data_image0
_chemical_formula_structural       Al2H14C28Cl2O10
_chemical_formula_sum              "Al2 H14 C28 Cl2 O10"
_cell_length_a       6.629962133541337
_cell_length_b       13.433625653745612
_cell_length_c       17.902665288183726
_cell_angle_alpha    89.89695398816727
_cell_angle_beta     77.65937936671658
_cell_angle_gamma    72.02152573593357

_space_group_name_H-M_alt    "P 1"
_space_group_IT_number       1

loop_
  _space_group_symop_operation_xyz
  'x, y, z'

loop_
  _atom_site_type_symbol
  _atom_site_label
  _atom_site_symmetry_multiplicity
  _atom_site_fract_x
  _atom_site_fract_y
  _atom_site_fract_z
  _atom_site_occupancy
  Al  Al1       1.0  0.00010566867671700408  0.4998708903141491  0.49998917020874256  1.0000
  Al  Al2       1.0  0.500140341068601  0.49982754888433334  0.49997343695159197  1.0000
  H   H1        1.0  0.16062031964124646  0.558545713230842  0.5931410169188567  1.0000
  H   H2        1.0  0.8393670561514168  0.44124446542216594  0.4068309882232697  1.0000
  H   H3        1.0  0.04397902900576156  0.5897561931083216  0.2779234825887329  1.0000
  H   H4        1.0  0.1011878942878467  0.5906155934943412  0.1357740956745985  1.0000
  H   H5        1.0  0.7833032166126086  0.4239208500018705  0.1160620992307884  1.0000
  H   H6        1.0  0.2166270661702681  0.576476904010953  0.8838846856099282  1.0000
  H   H7        1.0  0.955939931354514  0.4106157720477555  0.7221998951161127  1.0000
  H   H8        1.0  0.8987057825082584  0.4101268430843135  0.8643546285849766  1.0000
  H   H9        1.0  0.8669013164517593  0.8212089356622129  0.4688044708757388  1.0000
  H   H10       1.0  0.21638550234887782  0.8111221519326223  0.5526273252262541  1.0000
  H   H11       1.0  0.06980368558744492  0.006725785933788605  0.5574735975198949  1.0000
  H   H12       1.0  0.1330219159290422  0.17850916483804724  0.5310922486039189  1.0000
  H   H13       1.0  0.783631213210036  0.1885661713848421  0.4474185249322744  1.0000
  H   H14       1.0  0.9302231974840249  0.9929766250240565  0.44252047329592875  1.0000
  C   C1        1.0  0.6340114692209012  0.6892307805954445  0.5084996746360275  1.0000
  C   C2        1.0  0.6701372940023091  0.4860141492971408  0.6369428551955849  1.0000
  C   C3        1.0  0.3660705455277905  0.3104454028180755  0.4914424753669522  1.0000
  C   C4        1.0  0.3299551869852451  0.5138472309736528  0.3630326182979786  1.0000
  C   C5        1.0  0.3789130316947861  0.5112204431446515  0.27752121114745165  1.0000
  C   C6        1.0  0.2059343125024354  0.5553486312661065  0.24154247097269632  1.0000
  C   C7        1.0  0.2373226660967517  0.5554344962338362  0.1624674205781389  1.0000
  C   C8        1.0  0.4469410003292538  0.5078641350820802  0.11587900228670378  1.0000
  C   C9        1.0  0.6214521734818702  0.46248298029580337  0.15117580521751958  1.0000
  C   C10       1.0  0.5879373592939456  0.46474541341256537  0.23072242017210706  1.0000
  C   C11       1.0  0.48348086941945906  0.5031298396628686  0.034970575152122804  1.0000
  C   C12       1.0  0.5163226263495416  0.497539180280569  0.9651055271520832  1.0000
  C   C13       1.0  0.5528859304143053  0.4927432117057577  0.8841966113479529  1.0000
  C   C14       1.0  0.37853016695308367  0.538027521032994  0.8488198833446745  1.0000
  C   C15       1.0  0.4120999452313113  0.5355106214744225  0.7692754666431512  1.0000
  C   C16       1.0  0.6210489088923268  0.48882658774627435  0.7225038706951211  1.0000
  C   C17       1.0  0.7939180909183035  0.444856703762369  0.7585706160254446  1.0000
  C   C18       1.0  0.7625027047966524  0.4451037184470935  0.8376666761507395  1.0000
  C   C19       1.0  0.6929293744438638  0.8626884613834349  0.4871966312132727  1.0000
  C   C20       1.0  0.32344155650726236  0.8583590788067424  0.5350721557152482  1.0000
  C   C21       1.0  0.24361547485323584  0.9660277126053246  0.5372190984708141  1.0000
  C   C22       1.0  0.38523108198509703  0.026370180165749005  0.5128232949664238  1.0000
  C   C23       1.0  0.30702184555416767  0.13698118170162132  0.5127041254422409  1.0000
  C   C24       1.0  0.6764945896427719  0.1413358586083433  0.46490207435773095  1.0000
  C   C25       1.0  0.7564258660978708  0.033671750696974805  0.46275938400894023  1.0000
  C   C26       1.0  0.614812384563869  0.9733142632793061  0.48711274415438066  1.0000
  C   C27       1.0  0.5504344543016371  0.805978391590891  0.5101118846866229  1.0000
  C   C28       1.0  0.44953188671635047  0.1936926871999631  0.4898268151971478  1.0000
  Cl  Cl1       1.0  0.8130216416242818  0.4012497577732148  0.2672893284866618  1.0000
  Cl  Cl2       1.0  0.18695979294557194  0.5987025788870142  0.7326175139913006  1.0000
  O   O1        1.0  0.8393812317942206  0.6457302901091212  0.4961256766676668  1.0000
  O   O2        1.0  0.5331203235900474  0.4694082289673033  0.6028309183952061  1.0000
  O   O3        1.0  0.5082670970138989  0.35804572220656894  0.47956180535871334  1.0000
  O   O4        1.0  0.15134020410039262  0.49934378766254645  0.3950837593892871  1.0000
  O   O5        1.0  0.16071582503387552  0.35398704507431233  0.5038612143968706  1.0000
  O   O6        1.0  0.4669551419069647  0.5304175717550239  0.3971686161647341  1.0000
  O   O7        1.0  0.49185208378062856  0.6416058521830974  0.5204470924908691  1.0000
  O   O8        1.0  0.8487733005566439  0.5004766005323091  0.6048788720655338  1.0000
  O   O9        1.0  0.2017384092338331  0.541995888586861  0.5381175485690975  1.0000
  O   O10       1.0  0.7982278820169028  0.4577290295129899  0.46186688746151816  1.0000
