data_image0
_chemical_formula_structural       Zn4H40C60N16O12
_chemical_formula_sum              "Zn4 H40 C60 N16 O12"
_cell_length_a       7.857001530088854
_cell_length_b       11.23816056132807
_cell_length_c       15.127891685467974
_cell_angle_alpha    92.52662678261308
_cell_angle_beta     89.99979029353204
_cell_angle_gamma    90.00050397222628

_space_group_name_H-M_alt    "P 1"
_space_group_IT_number       1

loop_
  _space_group_symop_operation_xyz
  'x, y, z'

loop_
  _atom_site_type_symbol
  _atom_site_label
  _atom_site_symmetry_multiplicity
  _atom_site_fract_x
  _atom_site_fract_y
  _atom_site_fract_z
  _atom_site_occupancy
  Zn  Zn1       1.0  0.7876284874441029  0.3893794430228824  0.7470244763087239  1.0000
  Zn  Zn2       1.0  0.28762683777763703  0.11061885447055181  0.7529758602457406  1.0000
  Zn  Zn3       1.0  0.21237907179953205  0.6106199444216501  0.2529748528471174  1.0000
  Zn  Zn4       1.0  0.7123756304760819  0.8893823141104278  0.24702354850614944  1.0000
  H   H1        1.0  0.6717613188804421  0.2343394135096517  0.4216309484012228  1.0000
  H   H2        1.0  0.1717615487399087  0.2656604236946478  0.07836937564741221  1.0000
  H   H3        1.0  0.3282360583594441  0.765659959579594  0.5783690412393201  1.0000
  H   H4        1.0  0.8282383740207353  0.7343407878505275  0.9216280516784394  1.0000
  H   H5        1.0  0.3626402078890152  0.3214429449350647  0.3956450379740063  1.0000
  H   H6        1.0  0.8626402537043631  0.17855453165405788  0.10435348204931222  1.0000
  H   H7        1.0  0.6373520783249447  0.678554561042418  0.6043588349355248  1.0000
  H   H8        1.0  0.13735966907133704  0.8214476277631776  0.8956413431681371  1.0000
  H   H9        1.0  0.11627181291883201  0.42735273861458734  0.4680907539767461  1.0000
  H   H10       1.0  0.6162697856972912  0.07264134249709293  0.031912727835454305  1.0000
  H   H11       1.0  0.8837255642705275  0.5726429002824248  0.5319170021931328  1.0000
  H   H12       1.0  0.38373140983689785  0.9273625837521352  0.9680828374487191  1.0000
  H   H13       1.0  0.13791098899631046  0.49916426349235377  0.6287345614417675  1.0000
  H   H14       1.0  0.6379158594176392  0.0008268369315799971  0.871267732010118  1.0000
  H   H15       1.0  0.8620812971942726  0.5008305277849915  0.37127117350836164  1.0000
  H   H16       1.0  0.36208279061863646  0.9991771036338265  0.1287271728001471  1.0000
  H   H17       1.0  0.4116549053265717  0.47056604555579173  0.709499555968151  1.0000
  H   H18       1.0  0.9116568816938013  0.029430313773964697  0.7905017716954675  1.0000
  H   H19       1.0  0.5883411991182756  0.5294270505252285  0.2905021365306126  1.0000
  H   H20       1.0  0.0883468593286239  0.9705735408630504  0.20949709596687435  1.0000
  H   H21       1.0  0.9370080551134663  0.7150135571490568  0.7596496319149539  1.0000
  H   H22       1.0  0.43701374490611045  0.7849941357513901  0.7403455735747287  1.0000
  H   H23       1.0  0.06299059488921442  0.2849867494921554  0.24034841609217494  1.0000
  H   H24       1.0  0.5629950871433139  0.21501330985345402  0.25965213231462775  1.0000
  H   H25       1.0  0.3825740476804286  0.004280313168976598  0.5529203470880333  1.0000
  H   H26       1.0  0.8825756023336667  0.49572659732830715  0.9470795260435383  1.0000
  H   H27       1.0  0.6174271478104957  0.99571992186003  0.44708100329727074  1.0000
  H   H28       1.0  0.11742686595471243  0.5042799290329256  0.0529194610074768  1.0000
  H   H29       1.0  0.9194027765918877  0.2032362044386176  0.391865735982684  1.0000
  H   H30       1.0  0.41940699976326823  0.29675972525219413  0.10813789193720423  1.0000
  H   H31       1.0  0.08059332788224793  0.7967613588466165  0.6081354950193403  1.0000
  H   H32       1.0  0.5805954684479958  0.703235180648477  0.891862559195758  1.0000
  H   H33       1.0  0.3640417950957869  0.979205423456051  0.38578637751328426  1.0000
  H   H34       1.0  0.8640474541680803  0.5207941332193542  0.1142149096825946  1.0000
  H   H35       1.0  0.6359594003951374  0.020794811572955  0.6142149728720199  1.0000
  H   H36       1.0  0.13595119580880782  0.47920344439771173  0.885785660841208  1.0000
  H   H37       1.0  0.13285292843671934  0.08597995584099753  0.3073233275569792  1.0000
  H   H38       1.0  0.6328641760102091  0.4140159940383938  0.19268086617633884  1.0000
  H   H39       1.0  0.8671457215382858  0.9140184693800963  0.692679264190879  1.0000
  H   H40       1.0  0.36714083769170713  0.5859788545740727  0.8073222268587303  1.0000
  C   C1        1.0  0.9297497759358891  0.23394986387659605  0.5759713448190811  1.0000
  C   C2        1.0  0.42975393481071933  0.2660483878135409  0.9240300317304178  1.0000
  C   C3        1.0  0.07025141954966332  0.7660494805763705  0.4240299657703518  1.0000
  C   C4        1.0  0.5702510789384903  0.7339527521272448  0.07597069797144941  1.0000
  C   C5        1.0  0.6599324211787377  0.27807423484537713  0.4863714739014427  1.0000
  C   C6        1.0  0.1599338390986134  0.22192374851628935  0.013628790626135902  1.0000
  C   C7        1.0  0.34005986505618324  0.7219259715082486  0.5136311974435516  1.0000
  C   C8        1.0  0.8400673563936536  0.7780747769806599  0.986369177787104  1.0000
  C   C9        1.0  0.010643061912368502  0.222743716889461  0.6594001923764453  1.0000
  C   C10       1.0  0.51064775366676  0.2772573742685226  0.8405988317221899  1.0000
  C   C11       1.0  0.989354315363535  0.7772593044479804  0.3405959935911653  1.0000
  C   C12       1.0  0.48936107834127546  0.7227455325120787  0.15940263804422736  1.0000
  C   C13       1.0  0.768220348795545  0.28706958446140624  0.5593949540108911  1.0000
  C   C14       1.0  0.2682237328903909  0.21293129415138884  0.9406042139071646  1.0000
  C   C15       1.0  0.23178211943614715  0.7129271598873714  0.4406029348095403  1.0000
  C   C16       1.0  0.7317812808529143  0.7870680932853203  0.05939511525083668  1.0000
  C   C17       1.0  0.5317158195745721  0.3820261367761688  0.597896087603516  1.0000
  C   C18       1.0  0.0317157539819632  0.11797328839322321  0.9021034816265046  1.0000
  C   C19       1.0  0.4682815576551037  0.6179723170890201  0.4021051831932923  1.0000
  C   C20       1.0  0.968279077765388  0.8820269895882474  0.0978958873359943  1.0000
  C   C21       1.0  0.36516276540127995  0.3551478430675772  0.4642260172698443  1.0000
  C   C22       1.0  0.865160332347763  0.14485135854830844  0.0357758804472752  1.0000
  C   C23       1.0  0.6348358845688865  0.6448505535055064  0.535777895430151  1.0000
  C   C24       1.0  0.13483704495553894  0.8551569775973819  0.9642218652476588  1.0000
  C   C25       1.0  0.2322891399178459  0.4141411584413106  0.5056559301257622  1.0000
  C   C26       1.0  0.7322878308410171  0.0858505362862587  0.9943455427112016  1.0000
  C   C27       1.0  0.7677056917671552  0.5858518803397743  0.4943484042783481  1.0000
  C   C28       1.0  0.26770954643193084  0.914151608799152  0.005649942984483399  1.0000
  C   C29       1.0  0.24567332605434442  0.45623550451777833  0.5949906907516863  1.0000
  C   C30       1.0  0.7456746717008758  0.043758039298211295  0.9050114994400719  1.0000
  C   C31       1.0  0.7543215056438302  0.5437593297394019  0.4050130627680845  1.0000
  C   C32       1.0  0.2543277965380711  0.9562387480225782  0.09498440795216112  1.0000
  C   C33       1.0  0.3955164917901328  0.44084496177246285  0.6407534896863609  1.0000
  C   C34       1.0  0.895522169307043  0.059155779918668806  0.8592467433855264  1.0000
  C   C35       1.0  0.6044770671831403  0.5591517395769189  0.3592463805698216  1.0000
  C   C36       1.0  0.10448157172371712  0.9408498415464309  0.1407528643446128  1.0000
  C   C37       1.0  0.8502849341146546  0.6366671608577407  0.7554261669264052  1.0000
  C   C38       1.0  0.3502979280275228  0.8633346699780734  0.7445682864605986  1.0000
  C   C39       1.0  0.1497137158934052  0.36333403635951117  0.24457192087658805  1.0000
  C   C40       1.0  0.6497147222509058  0.13666921333432921  0.2554292602420531  1.0000
  C   C41       1.0  0.28339029511038666  0.0466056650685971  0.515222157860805  1.0000
  C   C42       1.0  0.7833974232580944  0.453392606406105  0.9847781858777297  1.0000
  C   C43       1.0  0.7166070821120344  0.9533927458245727  0.4847810943642089  1.0000
  C   C44       1.0  0.21660631772482472  0.5466058618026466  0.015222424437617094  1.0000
  C   C45       1.0  0.16329386057665124  0.11668453376655917  0.5613574095808218  1.0000
  C   C46       1.0  0.6632991737715488  0.3833183001370984  0.9386453581464098  1.0000
  C   C47       1.0  0.8366984256714362  0.8833174680631546  0.4386446808798398  1.0000
  C   C48       1.0  0.3367032944934537  0.6166855115239971  0.061355490945210506  1.0000
  C   C49       1.0  0.0209234876933166  0.15741624536398297  0.42499183329897516  1.0000
  C   C50       1.0  0.5209219535928826  0.34257992151653843  0.0750119296907243  1.0000
  C   C51       1.0  0.9790764350683933  0.8425866900372585  0.5750083155228723  1.0000
  C   C52       1.0  0.47907924184188744  0.657411393428042  0.9249896832119904  1.0000
  C   C53       1.0  0.2724117921443465  0.033210145236005  0.423716807620501  1.0000
  C   C54       1.0  0.7724168781941857  0.4667893913041894  0.07628462679308971  1.0000
  C   C55       1.0  0.7275868578301259  0.9667874180570595  0.5762844233793629  1.0000
  C   C56       1.0  0.22758177179586886  0.5332099817889643  0.9237153628463803  1.0000
  C   C57       1.0  0.1416435929352389  0.09114378404301252  0.37898171641158035  1.0000
  C   C58       1.0  0.641643827582655  0.4088567013535709  0.12102134044197752  1.0000
  C   C59       1.0  0.8583601480570806  0.9088581748498826  0.6210223554675594  1.0000
  C   C60       1.0  0.3583522769051797  0.5911435193357876  0.8789806704237153  1.0000
  N   N1        1.0  0.5120747712888586  0.3376706765454571  0.5109229516814793  1.0000
  N   N2        1.0  0.012075913905086104  0.1623295185001083  0.9890766906709916  1.0000
  N   N3        1.0  0.48792133319844316  0.6623286822158719  0.4890776984362049  1.0000
  N   N4        1.0  0.9879278271192221  0.8376734885328857  0.010920155767287597  1.0000
  N   N5        1.0  0.6877928961179549  0.3539083823541844  0.6268544679313166  1.0000
  N   N6        1.0  0.18779592859731048  0.14609106844452674  0.8731467780914459  1.0000
  N   N7        1.0  0.31220448111951543  0.6460909764110526  0.37314618218529466  1.0000
  N   N8        1.0  0.8122116306409525  0.8539074284239663  0.12685251126853103  1.0000
  N   N9        1.0  0.029659396623948512  0.16874315017219743  0.5152035005534401  1.0000
  N   N10       1.0  0.5296675576633734  0.3312580721848733  0.9847948307986132  1.0000
  N   N11       1.0  0.9703354351096962  0.8312544704051489  0.484795088545397  1.0000
  N   N12       1.0  0.47034000160659434  0.668744906211842  0.015203336588555797  1.0000
  N   N13       1.0  0.15013605717256703  0.14811901861506271  0.6483058902475565  1.0000
  N   N14       1.0  0.6501415947673905  0.3518855728764337  0.8516943374935624  1.0000
  N   N15       1.0  0.849862592828238  0.8518821356301772  0.3516941789836353  1.0000
  N   N16       1.0  0.3498634189992914  0.6481165292604276  0.14830312962383374  1.0000
  O   O1        1.0  0.9725011057762174  0.268757462244281  0.7357271637613608  1.0000
  O   O2        1.0  0.4725021429193462  0.23125084849998248  0.7642745780033808  1.0000
  O   O3        1.0  0.02749881699624271  0.7312472543090397  0.2642730646522224  1.0000
  O   O4        1.0  0.5274990525847444  0.7687511820051185  0.23572619149758375  1.0000
  O   O5        1.0  0.9292215418742703  0.5357851727915134  0.7570222089803168  1.0000
  O   O6        1.0  0.42922306882032774  0.9642153333119694  0.7429733518344649  1.0000
  O   O7        1.0  0.07077838089416844  0.46421694365371025  0.24297459766533794  1.0000
  O   O8        1.0  0.5707793994454917  0.035785906889032  0.2570227545370898  1.0000
  O   O9        1.0  0.6931271249617198  0.6509946893320732  0.7497991740704749  1.0000
  O   O10       1.0  0.19311953773405577  0.8490088043871398  0.7501976468205813  1.0000
  O   O11       1.0  0.30687279779461824  0.34900735549311435  0.25020093495550816  1.0000
  O   O12       1.0  0.8068867487712341  0.1509940880616369  0.24980448342406456  1.0000
