data_image0
_chemical_formula_structural       Zn4H52C52N24Cl2O12
_chemical_formula_sum              "Zn4 H52 C52 N24 Cl2 O12"
_cell_length_a       10.25516132969795
_cell_length_b       10.19829547767344
_cell_length_c       17.38
_cell_angle_alpha    98.7587071217501
_cell_angle_beta     93.33571967297476
_cell_angle_gamma    111.1266332250617

_space_group_name_H-M_alt    "P 1"
_space_group_IT_number       1

loop_
  _space_group_symop_operation_xyz
  'x, y, z'

loop_
  _atom_site_type_symbol
  _atom_site_label
  _atom_site_symmetry_multiplicity
  _atom_site_fract_x
  _atom_site_fract_y
  _atom_site_fract_z
  _atom_site_occupancy
  Zn  Zn1       1.0  0.8902143565500326  0.4777737261339183  0.8002411006450034  1.0000
  Zn  Zn2       1.0  0.1097840955512339  0.5222244867201837  0.19975534935715442  1.0000
  Zn  Zn3       1.0  0.5543317420973963  0.113748669314532  0.3745534915388903  1.0000
  Zn  Zn4       1.0  0.4456659391906257  0.886252753212517  0.6254466710321865  1.0000
  H   H1        1.0  0.2125489878243698  0.0530655227650243  0.7908732689532059  1.0000
  H   H2        1.0  0.7874488817479275  0.9469337599800624  0.20912728426331031  1.0000
  H   H3        1.0  0.3731212830391684  0.0552192133097122  0.8356643959762877  1.0000
  H   H4        1.0  0.6268775633067776  0.9447800694353744  0.1643338892800159  1.0000
  H   H5        1.0  0.3245749632846326  0.2569760448276738  0.9078908813110971  1.0000
  H   H6        1.0  0.6754248598349691  0.7430232379174126  0.09210916360295582  1.0000
  H   H7        1.0  0.31704387712346727  0.131057365604633  0.9684888731178347  1.0000
  H   H8        1.0  0.6829555517514408  0.8689408472494762  0.031511638038040204  1.0000
  H   H9        1.0  0.0481791921438415  0.027204117973070697  0.9365353953999646  1.0000
  H   H10       1.0  0.9518190716731426  0.9727962346630008  0.06346469157471553  1.0000
  H   H11       1.0  0.1235642244908206  0.2035595978208917  0.9928720449806506  1.0000
  H   H12       1.0  0.876435992873475  0.7964407548151726  0.007128684439550196  1.0000
  H   H13       1.0  0.03653014434191699  0.7998504973715156  0.751869422997359  1.0000
  H   H14       1.0  0.963468702004036  0.20014878537357103  0.2481294376329402  1.0000
  H   H15       1.0  0.1280823657731958  0.6459595184510717  0.9528992357601072  1.0000
  H   H16       1.0  0.8719162746123388  0.354036554621068  0.047098755635467206  1.0000
  H   H17       1.0  0.8839213957118162  0.1677995616730286  0.7142121266435595  1.0000
  H   H18       1.0  0.11608332895219314  0.8322050705269672  0.2857874137906151  1.0000
  H   H19       1.0  0.0583464585208588  0.3926435706692928  0.9440808024426631  1.0000
  H   H20       1.0  0.9416565008801143  0.6073589217487338  0.0559196369394073  1.0000
  H   H21       1.0  0.6707231145784575  0.41266765026908553  0.06128206255599619  1.0000
  H   H22       1.0  0.3292774793543884  0.5873284228030613  0.9387177220330828  1.0000
  H   H23       1.0  0.5281883562158924  0.5690322171375257  0.8690928407489977  1.0000
  H   H24       1.0  0.4718130262063269  0.4309659957165763  0.1309065867304255  1.0000
  H   H25       1.0  0.9598277405055526  0.3129709290985829  0.5819051800207617  1.0000
  H   H26       1.0  0.040178319824519776  0.6870240740825792  0.41809354590275666  1.0000
  H   H27       1.0  0.9255726136512126  0.7040995341388268  0.5410654403632975  1.0000
  H   H28       1.0  0.0744310988868619  0.2958943991513578  0.4589313832345425  1.0000
  H   H29       1.0  0.5498203147068281  0.4902636334457355  0.6780218310908808  1.0000
  H   H30       1.0  0.45018341550738944  0.5097356492993511  0.3219783479662226  1.0000
  H   H31       1.0  0.5970166748960678  0.3432948491721532  0.6887560201676451  1.0000
  H   H32       1.0  0.402986078544494  0.6567044335729334  0.3112423992317161  1.0000
  H   H33       1.0  0.3511763746246146  0.1926980645821104  0.7026287459038087  1.0000
  H   H34       1.0  0.6488263788159543  0.8073012181629763  0.2973708242435364  1.0000
  H   H35       1.0  0.4252141677818457  0.3495804586853382  0.7753402935879168  1.0000
  H   H36       1.0  0.5747889799034098  0.6504198939507262  0.224659385691595  1.0000
  H   H37       1.0  0.2093211001069974  0.30160012775285583  0.6323819557512849  1.0000
  H   H38       1.0  0.7906820475782583  0.6984002248832082  0.36761829890222225  1.0000
  H   H39       1.0  0.17627490562247772  0.3042641562954671  0.7316183208117906  1.0000
  H   H40       1.0  0.8237264767997489  0.695734056558635  0.2683811066676256  1.0000
  H   H41       1.0  0.3287454223828803  0.2917475017091249  0.41433485324005664  1.0000
  H   H42       1.0  0.671252447189417  0.7082517810359619  0.5856651246024642  1.0000
  H   H43       1.0  0.6136049238020007  0.1997165494172535  0.562349299682964  1.0000
  H   H44       1.0  0.3863988240883529  0.8002880827827354  0.4376479057194729  1.0000
  H   H45       1.0  0.41384698403783204  0.812833624425565  0.8053815639185872  1.0000
  H   H46       1.0  0.586153609895014  0.18716244864658185  0.1946170699225078  1.0000
  H   H47       1.0  0.2921032919423396  0.5365610258651543  0.5852533658168042  1.0000
  H   H48       1.0  0.7078975079509179  0.4634382568799325  0.41474498651103187  1.0000
  H   H49       1.0  0.014721922131286602  0.0136539486991083  0.35884052779540815  1.0000
  H   H50       1.0  0.9852693336619824  0.9863538931738205  0.6411657414867165  1.0000
  H   H51       1.0  0.7984953973550617  0.0333238943842034  0.5619304197745195  1.0000
  H   H52       1.0  0.2014978296616547  0.9666892969436346  0.4380786966643981  1.0000
  C   C1        1.0  0.2642031761580839  0.0416711838177122  0.8450049145342718  1.0000
  C   C2        1.0  0.7357942991695197  0.9583270290363898  0.1549943788020869  1.0000
  C   C3        1.0  0.2632372582543566  0.1482419545409357  0.9166384404095211  1.0000
  C   C4        1.0  0.7367607996022159  0.8517551884221888  0.0833613527044363  1.0000
  C   C5        1.0  0.11645575983089171  0.1381432535715774  0.9353099754785178  1.0000
  C   C6        1.0  0.8835444575333967  0.8618570990644869  0.06469017856769453  1.0000
  C   C7        1.0  0.081971747275503  0.7900192691474075  0.8077674831383703  1.0000
  C   C8        1.0  0.9180267048257562  0.2099789437067017  0.19223126835976254  1.0000
  C   C9        1.0  0.13119604782267658  0.7149311104301431  0.9104145459806503  1.0000
  C   C10       1.0  0.8688016157892093  0.2850649626420036  0.0895834118791612  1.0000
  C   C11       1.0  0.9381608313649821  0.19599332880348894  0.7732793443001571  1.0000
  C   C12       1.0  0.06184487007267579  0.8040113033964997  0.2267202296697803  1.0000
  C   C13       1.0  0.023307943168916295  0.3133368318140768  0.8897760981382136  1.0000
  C   C14       1.0  0.9766954104767437  0.6866667304949343  0.11022445037601611  1.0000
  C   C15       1.0  0.6118058949402823  0.4891145705321803  0.9604264951960177  1.0000
  C   C16       1.0  0.3881964642555928  0.5108836423219287  0.0395735411931568  1.0000
  C   C17       1.0  0.5958802958396916  0.4506594790032494  0.034373498423406104  1.0000
  C   C18       1.0  0.40412226931659484  0.5493419435237996  0.9656262564525023  1.0000
  C   C19       1.0  0.5154371607531303  0.5388206356169576  0.9264233769919132  1.0000
  C   C20       1.0  0.4845638274244025  0.4611765073461669  0.07357594135534382  1.0000
  C   C21       1.0  0.7318788487339063  0.4794555947559971  0.9181698283041939  1.0000
  C   C22       1.0  0.2681223454040378  0.5205447578800673  0.08182863315580143  1.0000
  C   C23       1.0  0.9356707706104431  0.5094350099336964  0.5684144108523057  1.0000
  C   C24       1.0  0.0643313826250136  0.49055999324746574  0.4315824548061756  1.0000
  C   C25       1.0  0.9780705247122299  0.3944324283894716  0.5456272604328448  1.0000
  C   C26       1.0  0.0219314225628224  0.6055593651187507  0.4543698867389026  1.0000
  C   C27       1.0  0.9577977007336785  0.6148128522131414  0.5222249920139674  1.0000
  C   C28       1.0  0.042202292994062404  0.3851789412950808  0.47777208808625465  1.0000
  C   C29       1.0  0.875691055914551  0.525708051754215  0.6444616119784001  1.0000
  C   C30       1.0  0.12430914377360124  0.4742869514269472  0.35553518660855593  1.0000
  C   C31       1.0  0.5102008921504789  0.3728131413370547  0.6681763848645375  1.0000
  C   C32       1.0  0.48980283806373853  0.627186141408032  0.3318226434445749  1.0000
  C   C33       1.0  0.38525747747684136  0.30984898721612086  0.712749797020095  1.0000
  C   C34       1.0  0.6147442991900648  0.6901502955289658  0.2872491642174992  1.0000
  C   C35       1.0  0.2565038731955127  0.3465665757919538  0.6933931335897299  1.0000
  C   C36       1.0  0.7434979034714003  0.6534327069531327  0.3066069783958413  1.0000
  C   C37       1.0  0.3922099721693257  0.2876829858724291  0.4657357785752012  1.0000
  C   C38       1.0  0.6077873148740096  0.7123173667636422  0.5342636994897276  1.0000
  C   C39       1.0  0.5371500659555224  0.23954966052966845  0.5396385182325858  1.0000
  C   C40       1.0  0.4628515224271085  0.7604517619973805  0.4603594769855803  1.0000
  C   C41       1.0  0.3741394292756866  0.716954274275153  0.7603419810751931  1.0000
  C   C42       1.0  0.6258603938439151  0.2830450084699336  0.23965633771687322  1.0000
  C   C43       1.0  0.31266504892074215  0.5807507330520707  0.6474969212103475  1.0000
  C   C44       1.0  0.687336727746164  0.4192485496930161  0.3525020400272396  1.0000
  C   C45       1.0  0.8958672831070446  0.0247679762094037  0.45566667551397444  1.0000
  C   C46       1.0  0.1041249494598802  0.9752398656635322  0.5443396273039056  1.0000
  C   C47       1.0  0.0091213741745975  0.005991389493416899  0.4205636961324828  1.0000
  C   C48       1.0  0.9908673455424052  0.9940175222704966  0.5794477600404521  1.0000
  C   C49       1.0  0.8872132532282608  0.0186161030688368  0.5354050305582234  1.0000
  C   C50       1.0  0.11278016207273107  0.9813949484770389  0.464603901152124  1.0000
  C   C51       1.0  0.787402650353201  0.05480944506400219  0.4076707197484239  1.0000
  C   C52       1.0  0.2125921182899972  0.945197326917956  0.59234247903251  1.0000
  N   N1        1.0  0.18889664341677562  0.8946717253417518  0.8550765340676989  1.0000
  N   N2        1.0  0.8111018086844837  0.1053264875123574  0.14492279280442943  1.0000
  N   N3        1.0  0.22182980748693382  0.8490505040223013  0.9208391907086979  1.0000
  N   N4        1.0  0.7781692271432945  0.1509466389408232  0.0791600605670268  1.0000
  N   N5        1.0  0.0430126937449629  0.6737724043923095  0.8414273993798957  1.0000
  N   N6        1.0  0.9569873176589141  0.326224738570815  0.1585707346836074  1.0000
  N   N7        1.0  0.0444734004501086  0.1897558643844448  0.8793150478417929  1.0000
  N   N8        1.0  0.9555289764219026  0.8102476979245665  0.12068546713667422  1.0000
  N   N9        1.0  0.9906383231401962  0.1127900469955847  0.8053630578199176  1.0000
  N   N10       1.0  0.00936463626077708  0.8872124454224418  0.1946373815621456  1.0000
  N   N11       1.0  0.9559545538622842  0.3203949026155185  0.8231674208459907  1.0000
  N   N12       1.0  0.04405212434902947  0.6796097295844701  0.1768321866597091  1.0000
  N   N13       1.0  0.4806658369012525  0.3200889137949615  0.5834824274563672  1.0000
  N   N14       1.0  0.5193357514813856  0.6799125087320874  0.4165167185097829  1.0000
  N   N15       1.0  0.3879007781159558  0.3521075411823844  0.5372700447207279  1.0000
  N   N16       1.0  0.6120994392483396  0.6478928114536799  0.4627301093254844  1.0000
  N   N17       1.0  0.48336813896852965  0.21714614338820576  0.46441968142520546  1.0000
  N   N18       1.0  0.5166313075825215  0.7828574189208055  0.5355795821979826  1.0000
  N   N19       1.0  0.29251830397279127  0.5007571241870679  0.7034810213637999  1.0000
  N   N20       1.0  0.7074844494677706  0.49924215855801884  0.2965173980355615  1.0000
  N   N21       1.0  0.3312845600288555  0.585793129245367  0.7760809810754594  1.0000
  N   N22       1.0  0.668716822393364  0.414205083608735  0.22391729565597276  1.0000
  N   N23       1.0  0.3646833098334881  0.7189132446613087  0.6817757886328621  1.0000
  N   N24       1.0  0.6353165132861137  0.2810860380837781  0.31822253015920415  1.0000
  Cl  Cl1       1.0  0.3989101556826498  0.9275869213712226  0.29291786900457595  1.0000
  Cl  Cl2       1.0  0.6010904382501963  0.0724091517009171  0.7070824909585057  1.0000
  O   O1        1.0  0.7158718297962139  0.4742398762237841  0.8432767779432455  1.0000
  O   O2        1.0  0.2841299468706922  0.5257594065213027  0.15672275866833732  1.0000
  O   O3        1.0  0.8409727145389996  0.47932827772926595  0.9555328775102228  1.0000
  O   O4        1.0  0.15903122163562952  0.5206742146887677  0.04446702003361481  1.0000
  O   O5        1.0  0.8773327584633464  0.43080016261452403  0.6866500020117671  1.0000
  O   O6        1.0  0.12266158058288572  0.569194840566638  0.3133471707345876  1.0000
  O   O7        1.0  0.8336547410050059  0.6253630471764635  0.6641816234968161  1.0000
  O   O8        1.0  0.1663505485118293  0.3746351656776454  0.3358133351337145  1.0000
  O   O9        1.0  0.6885051220493139  0.07568622777561979  0.445209670268639  1.0000
  O   O10       1.0  0.311486716272924  0.9243205442063313  0.5547942219211066  1.0000
  O   O11       1.0  0.7946633066237395  0.058269472496448295  0.33623836631485204  1.0000
  O   O12       1.0  0.20532733128829514  0.9417287403576536  0.6637658706370928  1.0000
