data_image0
_chemical_formula_structural       Cu2H24C16N32Cl4
_chemical_formula_sum              "Cu2 H24 C16 N32 Cl4"
_cell_length_a       6.579332117004757
_cell_length_b       8.425529620328563
_cell_length_c       15.242417920638603
_cell_angle_alpha    91.8663088579091
_cell_angle_beta     89.99990830576256
_cell_angle_gamma    90.00011116871279

_space_group_name_H-M_alt    "P 1"
_space_group_IT_number       1

loop_
  _space_group_symop_operation_xyz
  'x, y, z'

loop_
  _atom_site_type_symbol
  _atom_site_label
  _atom_site_symmetry_multiplicity
  _atom_site_fract_x
  _atom_site_fract_y
  _atom_site_fract_z
  _atom_site_occupancy
  Cu  Cu1       1.0  4.265112117699999e-06  0.5000092132083437  0.4999991157297926  1.0000
  Cu  Cu2       1.0  0.4999954500727739  0.9999949894158887  0.9999951324363465  1.0000
  H   H1        1.0  0.34332030881989783  0.7863442340410672  0.674513917635778  1.0000
  H   H2        1.0  0.8433098909639796  0.7136522813241226  0.8254885278339258  1.0000
  H   H3        1.0  0.6566939792639274  0.2136678829020724  0.3254904552141369  1.0000
  H   H4        1.0  0.15667551877271532  0.2863265338591248  0.1745121296109602  1.0000
  H   H5        1.0  0.3568586338853592  0.9886781957260097  0.5597394871359213  1.0000
  H   H6        1.0  0.856848782380922  0.5113242867148388  0.9402636832339437  1.0000
  H   H7        1.0  0.6431571741011197  0.011329192652020497  0.4402661361325498  1.0000
  H   H8        1.0  0.1431427070098934  0.48865924641911096  0.05973506756106419  1.0000
  H   H9        1.0  0.5479428630891903  0.6037415433142569  0.5699303179744746  1.0000
  H   H10       1.0  0.047935884921116695  0.8962615079805545  0.9300619145626995  1.0000
  H   H11       1.0  0.4520638254572731  0.3962752172313202  0.430067554628195  1.0000
  H   H12       1.0  0.9520510447372956  0.10372081645912351  0.0699355082664823  1.0000
  H   H13       1.0  0.2403636702534371  0.0649295572559865  0.6579110917815  1.0000
  H   H14       1.0  0.740353761342611  0.4350665476350314  0.8420941889333802  1.0000
  H   H15       1.0  0.7596475780024291  0.9350790079504635  0.34209389076929136  1.0000
  H   H16       1.0  0.25964076786291906  0.5649110482438504  0.15790448431236104  1.0000
  H   H17       1.0  0.489377713111537  0.9137712323937279  0.7481631266258757  1.0000
  H   H18       1.0  0.9893642034618323  0.5862242601577065  0.7518365826534533  1.0000
  H   H19       1.0  0.5106335351497719  0.08623968647601998  0.2518405744865504  1.0000
  H   H20       1.0  0.010613606725023298  0.4137581067546919  0.24816346509405204  1.0000
  H   H21       1.0  0.5524910929173573  0.2219407425810829  0.7675939974666477  1.0000
  H   H22       1.0  0.0525058315116524  0.278075261346629  0.732410357630215  1.0000
  H   H23       1.0  0.4475125557968482  0.7780749048494611  0.23240845322921183  1.0000
  H   H24       1.0  0.9475069366448917  0.7219201887960338  0.2675911731696984  1.0000
  C   C1        1.0  0.6697258107672255  0.6850925559631589  0.5886613336508049  1.0000
  C   C2        1.0  0.16971869307565154  0.8149083356041232  0.9113334129322367  1.0000
  C   C3        1.0  0.3302763180465575  0.3149217978169148  0.4113345392475478  1.0000
  C   C4        1.0  0.8302591171087668  0.1850740525478614  0.0886679472729455  1.0000
  C   C5        1.0  0.6006344256560254  0.2390627249732091  0.7004778380505241  1.0000
  C   C6        1.0  0.1006336686643934  0.26094733561815525  0.7995218143348524  1.0000
  C   C7        1.0  0.3993707429690047  0.7609517243871764  0.2995239409063473  1.0000
  C   C8        1.0  0.8993699800385214  0.7390516025338059  0.2004751693951619  1.0000
  C   C9        1.0  0.38335538820945897  0.022716764735306993  0.6287377580343898  1.0000
  C   C10       1.0  0.8833469984766537  0.4772795429285067  0.871267428923687  1.0000
  C   C11       1.0  0.6166558600446237  0.9772894149484584  0.371266537268255  1.0000
  C   C12       1.0  0.1166444909059905  0.5227004597104922  0.1287332440288651  1.0000
  C   C13       1.0  0.45866951571120046  0.8804467213228051  0.679144806446011  1.0000
  C   C14       1.0  0.9586573525182231  0.6195463740200323  0.8208562044058778  1.0000
  C   C15       1.0  0.5413402126402217  0.1195641869260697  0.3208582384380705  1.0000
  C   C16       1.0  0.041331097047922996  0.3804371803513504  0.17914385884779446  1.0000
  N   N1        1.0  0.8654736695503757  0.675781396598893  0.5681883922111906  1.0000
  N   N2        1.0  0.3654664989299902  0.8242221580744484  0.9318069132727513  1.0000
  N   N3        1.0  0.1345314990907127  0.324238915680148  0.4318088706921016  1.0000
  N   N4        1.0  0.6345173909173738  0.17576607176091127  0.06818861841918528  1.0000
  N   N5        1.0  0.8291585482658378  0.8872445794780147  0.6522019010646644  1.0000
  N   N6        1.0  0.3291481079287877  0.6127495196623657  0.8477992102136085  1.0000
  N   N7        1.0  0.17085118008135675  0.11276396448776177  0.34780176902895477  1.0000
  N   N8        1.0  0.6708357819228893  0.3872362715513376  0.15219235308600784  1.0000
  N   N9        1.0  0.751010184281114  0.3114228993510579  0.5836999973913777  1.0000
  N   N10       1.0  0.25101336131503865  0.1885838546107195  0.9163021347812543  1.0000
  N   N11       1.0  0.24899042461931487  0.6885974766435224  0.4163012028864301  1.0000
  N   N12       1.0  0.7489902873709794  0.8114056264088633  0.08369734978687399  1.0000
  N   N13       1.0  0.7381926450503541  0.3400908161874979  0.6719163806793702  1.0000
  N   N14       1.0  0.2382036792722246  0.1599195138174494  0.8280877751103117  1.0000
  N   N15       1.0  0.2618049240323542  0.6599331221592591  0.3280848661283926  1.0000
  N   N16       1.0  0.7618060490590893  0.8400735614201693  0.17191372467129173  1.0000
  N   N17       1.0  0.6453814632237354  0.814656212345021  0.6410247637384996  1.0000
  N   N18       1.0  0.1453696482846283  0.6853399373704362  0.8589725616848227  1.0000
  N   N19       1.0  0.3546297850424622  0.1853546640455477  0.3589763124585872  1.0000
  N   N20       1.0  0.8546157614617371  0.3146435957592005  0.1410261891121749  1.0000
  N   N21       1.0  0.6272452438708811  0.19843137946997297  0.5584868826961651  1.0000
  N   N22       1.0  0.1272394982287821  0.30157165786386747  0.9415165965578537  1.0000
  N   N23       1.0  0.37276296458060176  0.8015854341756635  0.44151427105018115  1.0000
  N   N24       1.0  0.8727595907127251  0.6984119177546546  0.05848477915000669  1.0000
  N   N25       1.0  0.5305711000437512  0.15172957461940936  0.631502707179493  1.0000
  N   N26       1.0  0.0305657493816511  0.3482733574837624  0.8685028041478515  1.0000
  N   N27       1.0  0.4694340685767671  0.8482813123866463  0.36849902524841127  1.0000
  N   N28       1.0  0.9694272599192572  0.6517161872470539  0.1315006177967746  1.0000
  N   N29       1.0  0.9605973942647096  0.802073040864883  0.6082165406895896  1.0000
  N   N30       1.0  0.460587008378333  0.6979223790169868  0.8917812187727845  1.0000
  N   N31       1.0  0.039410814183199194  0.197939001735385  0.391783238560471  1.0000
  N   N32       1.0  0.5394044810364207  0.3020693494593231  0.10821042207260939  1.0000
  Cl  Cl1       1.0  0.23193789388427183  0.4729344986781499  0.6130000662161947  1.0000
  Cl  Cl2       1.0  0.731932842967403  0.027073330725109198  0.8869968441433541  1.0000
  Cl  Cl3       1.0  0.7680687946653962  0.5270906377463193  0.3870018523270673  1.0000
  Cl  Cl4       1.0  0.2680647260764956  0.972905325169826  0.1129939698650233  1.0000
