data_image0
_chemical_formula_structural       Hg4H36C48Br8N12
_chemical_formula_sum              "Hg4 H36 C48 Br8 N12"
_cell_length_a       6.972466856067502
_cell_length_b       13.55672594223329
_cell_length_c       14.212316292116212
_cell_angle_alpha    89.99954348815155
_cell_angle_beta     90.00007819720108
_cell_angle_gamma    89.99950409782532

_space_group_name_H-M_alt    "P 1"
_space_group_IT_number       1

loop_
  _space_group_symop_operation_xyz
  'x, y, z'

loop_
  _atom_site_type_symbol
  _atom_site_label
  _atom_site_symmetry_multiplicity
  _atom_site_fract_x
  _atom_site_fract_y
  _atom_site_fract_z
  _atom_site_occupancy
  Hg  Hg1       1.0  0.5578428884660057  0.40859881389926755  0.5458639288783046  1.0000
  Hg  Hg2       1.0  0.44215998199577194  0.5913967761503542  0.0458651750529029  1.0000
  Hg  Hg3       1.0  0.05784317303665891  0.0913994481833527  0.545863546020463  1.0000
  Hg  Hg4       1.0  0.9421539605285433  0.9086013053765215  0.0458634470438994  1.0000
  H   H1        1.0  0.09640696094811571  0.3471212772715189  0.5120102617900882  1.0000
  H   H2        1.0  0.9035986897652537  0.6528804973390764  0.012013481484274297  1.0000
  H   H3        1.0  0.5963980595361633  0.15287857139927039  0.5120104727164331  1.0000
  H   H4        1.0  0.40358751227470446  0.8471143515613876  0.012013270584333198  1.0000
  H   H5        1.0  0.1701134652877556  0.04036719257811681  0.31514698902327604  1.0000
  H   H6        1.0  0.8298944087188928  0.9596357321815316  0.8151473876171165  1.0000
  H   H7        1.0  0.6701108901365559  0.4596347129540277  0.31514628131688477  1.0000
  H   H8        1.0  0.32989268128172716  0.5403623106853814  0.815148095344348  1.0000
  H   H9        1.0  0.2790501703759105  0.05626897527281469  0.14940410399766788  1.0000
  H   H10       1.0  0.7209615747991053  0.943736812473986  0.6494038419061351  1.0000
  H   H11       1.0  0.7790449936285456  0.4437338316594505  0.14940351685672934  1.0000
  H   H12       1.0  0.22095814632641717  0.5562653173354944  0.6494044290691718  1.0000
  H   H13       1.0  0.3575732911384223  0.21902741128525346  0.08089884758626197  1.0000
  H   H14       1.0  0.642431104650619  0.7809782124037312  0.5808997635953401  1.0000
  H   H15       1.0  0.857569411314991  0.2809748810352133  0.08089738366237498  1.0000
  H   H16       1.0  0.1424306818767462  0.7190255791836081  0.5808991166920449  1.0000
  H   H17       1.0  0.32024530147287317  0.3731424870137943  0.17401044741715307  1.0000
  H   H18       1.0  0.6797535998416465  0.6268638323662755  0.6740139657770639  1.0000
  H   H19       1.0  0.820242573535353  0.126859929978643  0.1740122628629805  1.0000
  H   H20       1.0  0.17975345942107168  0.8731382753572419  0.6740114467459007  1.0000
  H   H21       1.0  0.0565558635298373  0.4833382937075754  0.23793547615001384  1.0000
  H   H22       1.0  0.9434446383980845  0.5166682280885553  0.7379386107121062  1.0000
  H   H23       1.0  0.5565621557515356  0.016666240498842896  0.23793460903745967  1.0000
  H   H24       1.0  0.4434412146644462  0.9833329048756309  0.7379401814687226  1.0000
  H   H25       1.0  0.10162875983330372  0.666811692215987  0.23890226737672993  1.0000
  H   H26       1.0  0.8983688761761716  0.33319555914513194  0.738902539248613  1.0000
  H   H27       1.0  0.6016311748599675  0.8331929320229035  0.23890181476866695  1.0000
  H   H28       1.0  0.39837219805571783  0.16680768055433498  0.7389029918838899  1.0000
  H   H29       1.0  0.29557399048293587  0.7435076998352272  0.3688527140043049  1.0000
  H   H30       1.0  0.7044211154117476  0.2564947753030324  0.86885061474468  1.0000
  H   H31       1.0  0.7955733898937893  0.7564920200024898  0.3688521393197846  1.0000
  H   H32       1.0  0.20442028182105076  0.24350676692692727  0.8688525966728233  1.0000
  H   H33       1.0  0.44446643260839386  0.6320064893007781  0.4895147318234477  1.0000
  H   H34       1.0  0.5555375926828817  0.36799350025516026  0.9895166063584354  1.0000
  H   H35       1.0  0.9444639610453223  0.8679878673741114  0.4895168298143842  1.0000
  H   H36       1.0  0.05552859059445581  0.1320062210775887  0.989514508385781  1.0000
  C   C1        1.0  0.1335102679053648  0.31003729206896213  0.44684158731124046  1.0000
  C   C2        1.0  0.866496514702817  0.6899660053284863  0.946844760283355  1.0000
  C   C3        1.0  0.6335064810560668  0.18996367422601423  0.4468429242887594  1.0000
  C   C4        1.0  0.3664873937154952  0.8100307714966488  0.9468455341800206  1.0000
  C   C5        1.0  0.18226424752275955  0.19902779694532302  0.3380729854761951  1.0000
  C   C6        1.0  0.8177379493116776  0.8009756735025773  0.8380766892417311  1.0000
  C   C7        1.0  0.6822643347609157  0.3009723870891533  0.3380755916119753  1.0000
  C   C8        1.0  0.3177378621496203  0.6990222316580912  0.8380754903696681  1.0000
  C   C9        1.0  0.20096560250423326  0.11256167186511587  0.28512558189743936  1.0000
  C   C10       1.0  0.7990378906941089  0.88744371719104  0.7851250986541414  1.0000
  C   C11       1.0  0.7009656730033669  0.3874410849291507  0.28512542157856996  1.0000
  C   C12       1.0  0.2990378202648856  0.6125561900675792  0.7851266662339212  1.0000
  C   C13       1.0  0.26268673989903846  0.1223636990801253  0.1923672877185041  1.0000
  C   C14       1.0  0.7373222487066046  0.8776395160421941  0.6923647239768795  1.0000
  C   C15       1.0  0.7626855406790084  0.3776373458977176  0.19236579449602684  1.0000
  C   C16       1.0  0.23732201374495082  0.62236218102165  0.692366217212836  1.0000
  C   C17       1.0  0.30621426406712976  0.21510592226067615  0.15324947151562898  1.0000
  C   C18       1.0  0.6937888858499902  0.7848990956631283  0.6532503943927563  1.0000
  C   C19       1.0  0.806211752653205  0.28489673119558023  0.15325079231782007  1.0000
  C   C20       1.0  0.19378852889000336  0.7151023855988898  0.653250480842068  1.0000
  C   C21       1.0  0.2876850113696037  0.3017572003017647  0.20490785163556777  1.0000
  C   C22       1.0  0.7123125361803418  0.6982466474689627  0.7049101483380723  1.0000
  C   C23       1.0  0.7876825197969595  0.19824289043367568  0.2049084222208464  1.0000
  C   C24       1.0  0.2123135936022464  0.8017535809279507  0.7049095777802492  1.0000
  C   C25       1.0  0.2243848067559568  0.291798798052092  0.2973361503743133  1.0000
  C   C26       1.0  0.775614415601332  0.7082057511228468  0.7973391202927473  1.0000
  C   C27       1.0  0.7243878849091419  0.20820375194658414  0.2973373490611663  1.0000
  C   C28       1.0  0.27561133750567274  0.7917941584513882  0.7973393288612127  1.0000
  C   C29       1.0  0.22374235338554627  0.4643460797296656  0.364463892277726  1.0000
  C   C30       1.0  0.7762599121548278  0.5356564321150187  0.8644674673281326  1.0000
  C   C31       1.0  0.7237411558917658  0.0356536981848592  0.3644649920238335  1.0000
  C   C32       1.0  0.27625107021775364  0.9643421749052692  0.8644677748337769  1.0000
  C   C33       1.0  0.14121433477625803  0.5193650129105407  0.2921953498924096  1.0000
  C   C34       1.0  0.8587906110505797  0.48063957928932405  0.7921994009092471  1.0000
  C   C35       1.0  0.641215709836743  0.980637513120513  0.29219589017341707  1.0000
  C   C36       1.0  0.35878349918291963  0.0193619156035467  0.7921988606457617  1.0000
  C   C37       1.0  0.16608846641837977  0.621129936098974  0.2934839957747711  1.0000
  C   C38       1.0  0.8339107459027348  0.3788753829770783  0.7934852825831268  1.0000
  C   C39       1.0  0.6660915491246584  0.8788724680953662  0.2934846040393068  1.0000
  C   C40       1.0  0.33390766326199645  0.12112547455660659  0.7934874888068533  1.0000
  C   C41       1.0  0.273030265024623  0.6640210196473644  0.3657078479247175  1.0000
  C   C42       1.0  0.7269691353340874  0.33598074414990003  0.8657107909746456  1.0000
  C   C43       1.0  0.7730297648467327  0.8359780895103769  0.36570948502243533  1.0000
  C   C44       1.0  0.22696820134358126  0.16401851079853458  0.8657098575110707  1.0000
  C   C45       1.0  0.354266105071197  0.602681998631752  0.43335647722421555  1.0000
  C   C46       1.0  0.6457377740306072  0.3973184611197311  0.9333581936931876  1.0000
  C   C47       1.0  0.8542631414076354  0.8973154438390906  0.4333576492453445  1.0000
  C   C48       1.0  0.14572782981238674  0.10268132773210678  0.9333577252965167  1.0000
  Br  Br1       1.0  0.8400561967736593  0.5253639465728525  0.5204377524020243  1.0000
  Br  Br2       1.0  0.15994517328738309  0.47463038112103106  0.020429832190046692  1.0000
  Br  Br3       1.0  0.34005148482194875  0.9746269291297266  0.5204330565936813  1.0000
  Br  Br4       1.0  0.6599298063272343  0.025354858837666  0.020403568975453396  1.0000
  Br  Br5       1.0  0.33061405578092007  0.35157174281194875  0.6736096027452587  1.0000
  Br  Br6       1.0  0.6693991867155447  0.6484220400108212  0.17360846762514365  1.0000
  Br  Br7       1.0  0.8306138343140432  0.14842939547901324  0.6736098474139283  1.0000
  Br  Br8       1.0  0.1693807633256696  0.8515761896244384  0.17361314821061305  1.0000
  N   N1        1.0  0.12437655277355468  0.21400755523654877  0.43099935107437654  1.0000
  N   N2        1.0  0.8756273201861121  0.7859936618914889  0.9310010988346985  1.0000
  N   N3        1.0  0.6243740229466753  0.2859928468340343  0.4309999599420279  1.0000
  N   N4        1.0  0.3756226790011965  0.7140024691742822  0.9310018972170082  1.0000
  N   N5        1.0  0.19425868488837492  0.3607931002905572  0.3689554493763508  1.0000
  N   N6        1.0  0.805743592349458  0.6392086363097462  0.8689582602855449  1.0000
  N   N7        1.0  0.6942571839531765  0.1392075092751313  0.3689578748095741  1.0000
  N   N8        1.0  0.3057350538432573  0.8607890638471857  0.8689586493286254  1.0000
  N   N9        1.0  0.3309595417821782  0.5041560509568299  0.43293467339412917  1.0000
  N   N10       1.0  0.6690472046424601  0.4958451499553291  0.932937770276183  1.0000
  N   N11       1.0  0.8309563590365413  0.9958414990915827  0.4329358019907373  1.0000
  N   N12       1.0  0.16903604530423877  0.004154538366925899  0.9329359380789695  1.0000
