data_image0
_chemical_formula_structural       Zn4H28C40N8O16
_chemical_formula_sum              "Zn4 H28 C40 N8 O16"
_cell_length_a       8.980619327348462
_cell_length_b       10.363395077862968
_cell_length_c       16.722781085350352
_cell_angle_alpha    74.55295109244891
_cell_angle_beta     77.08391708817138
_cell_angle_gamma    68.17491065695403

_space_group_name_H-M_alt    "P 1"
_space_group_IT_number       1

loop_
  _space_group_symop_operation_xyz
  'x, y, z'

loop_
  _atom_site_type_symbol
  _atom_site_label
  _atom_site_symmetry_multiplicity
  _atom_site_fract_x
  _atom_site_fract_y
  _atom_site_fract_z
  _atom_site_occupancy
  Zn  Zn1       1.0  0.2978697249873506  0.3769327032416355  0.2740245679132371  1.0000
  Zn  Zn2       1.0  0.7021302486809519  0.6230667589181705  0.725976416039373  1.0000
  Zn  Zn3       1.0  0.47147008011345565  0.11283904412702128  0.22123261881574766  1.0000
  Zn  Zn4       1.0  0.5285298949049845  0.8871604135804249  0.7787677677283258  1.0000
  H   H1        1.0  0.9660522850231249  0.10736129168675751  0.2162090493443358  1.0000
  H   H2        1.0  0.03394682777610573  0.8926434590658302  0.7837887603661002  1.0000
  H   H3        1.0  0.8003413894290151  0.39243281348282716  0.27469560923304936  1.0000
  H   H4        1.0  0.19965663932222816  0.6075687677888693  0.7253046555809634  1.0000
  H   H5        1.0  0.49038095145729  0.9848068849690391  0.08018968365178131  1.0000
  H   H6        1.0  0.5096193626644521  0.015194694869279601  0.9198103067148722  1.0000
  H   H7        1.0  0.6784398757153342  0.776400299762649  0.016548583244848234  1.0000
  H   H8        1.0  0.32155929707129627  0.22360127634000543  0.9834509469369481  1.0000
  H   H9        1.0  0.9258702232210471  0.6320852125854016  0.23439676709779886  1.0000
  H   H10       1.0  0.07412827135897973  0.3679121192554931  0.765603555438851  1.0000
  H   H11       1.0  0.726578353121866  0.8472488221642819  0.2886872493121615  1.0000
  H   H12       1.0  0.2734224241283912  0.1527485171479555  0.7113139935941961  1.0000
  H   H13       1.0  0.03542617439170941  0.49677753197376245  0.12344335246204004  1.0000
  H   H14       1.0  0.9645719183973471  0.50322086129092  0.8765568405977363  1.0000
  H   H15       1.0  0.5203893878605329  0.37890712653705794  0.9570177888212329  1.0000
  H   H16       1.0  0.4796094444726649  0.6210923318870769  0.04298273494652699  1.0000
  H   H17       1.0  0.3572239260179515  0.1125462517683005  0.5402971973748976  1.0000
  H   H18       1.0  0.6427775948268531  0.8874521393463084  0.4597025840138401  1.0000
  H   H19       1.0  0.3527456504695581  0.6477925316335699  0.21727647945762396  1.0000
  H   H20       1.0  0.6472535836546103  0.352205865366777  0.7827241737870025  1.0000
  H   H21       1.0  0.2911165286625632  0.8674115228901728  0.27450461940737375  1.0000
  H   H22       1.0  0.7088841899504317  0.1325889866196448  0.7254943056190798  1.0000
  H   H23       1.0  0.9598507114533205  0.7156999403742148  0.4735862008176497  1.0000
  H   H24       1.0  0.04015040625036904  0.28429951661653513  0.526414048502744  1.0000
  H   H25       1.0  0.03394779660419537  0.5034497248252664  0.40727929520611644  1.0000
  H   H26       1.0  0.9660517766232746  0.4965507943059607  0.5927209618610833  1.0000
  H   H27       1.0  0.16647279370587853  0.9986310808259447  0.3859228443433409  1.0000
  H   H28       1.0  0.8335302702650155  0.0013662526005476005  0.6140775267071206  1.0000
  C   C1        1.0  0.39595432042258955  0.11975601555234049  0.40443347822329667  1.0000
  C   C2        1.0  0.6040441741574368  0.8802413162885544  0.5955668443133534  1.0000
  C   C3        1.0  0.10986474080337424  0.2214683017043057  0.2403072744817436  1.0000
  C   C4        1.0  0.8901355746685059  0.7785332736816529  0.759692118476373  1.0000
  C   C5        1.0  0.9563695948898288  0.20331180504265228  0.23518386663537436  1.0000
  C   C6        1.0  0.043630321491349405  0.7966908228623737  0.7648142020288093  1.0000
  C   C7        1.0  0.8108333196436067  0.29743929926898005  0.25436712665149497  1.0000
  C   C8        1.0  0.18916659133702046  0.702563346445487  0.7456333316468218  1.0000
  C   C9        1.0  0.656837590221663  0.2770335510926003  0.25185114276269627  1.0000
  C   C10       1.0  0.34316352613188883  0.722965910350517  0.7481497039662344  1.0000
  C   C11       1.0  0.5883941999190017  0.9029410826764774  0.11181704500139485  1.0000
  C   C12       1.0  0.4116072582381279  0.09706049199279221  0.8881822107330493  1.0000
  C   C13       1.0  0.69254304143837  0.7885790076586686  0.07696154424242967  1.0000
  C   C14       1.0  0.30745767582448746  0.21142150630350898  0.9230379781925608  1.0000
  C   C15       1.0  0.819302288313338  0.6894371502799148  0.12040388635152506  1.0000
  C   C16       1.0  0.1806976880552398  0.3105623029751711  0.8795959027840186  1.0000
  C   C17       1.0  0.8306041328923968  0.7083345860667903  0.19866948399687354  1.0000
  C   C18       1.0  0.16939544033507303  0.29166593306443633  0.8013307730703334  1.0000
  C   C19       1.0  0.7211172372016396  0.826231852780978  0.22904830292556258  1.0000
  C   C20       1.0  0.2788819969225287  0.17376654421937587  0.7709523503190711  1.0000
  C   C21       1.0  0.940704115828126  0.5712230767275983  0.08586596115239331  1.0000
  C   C22       1.0  0.05929512099631751  0.4287753113680283  0.9141334972751666  1.0000
  C   C23       1.0  0.42343117104418593  0.3704053350060477  0.09097614443415131  1.0000
  C   C24       1.0  0.5765691430775491  0.6295962448322712  0.9090238459324951  1.0000
  C   C25       1.0  0.48659918696569804  0.4382356126061282  0.006948690289902949  1.0000
  C   C26       1.0  0.513397701800571  0.5617659604775368  0.9930505169307227  1.0000
  C   C27       1.0  0.43497422564657745  0.05726650677079448  0.49114941542491414  1.0000
  C   C28       1.0  0.5650272951982277  0.9427318843438142  0.5088503659638235  1.0000
  C   C29       1.0  0.26619561912886525  0.6683743779214667  0.273446901675122  1.0000
  C   C30       1.0  0.7338039554487352  0.33162613675739994  0.7265527579835479  1.0000
  C   C31       1.0  0.2333225000494325  0.78796938150424  0.3057587089883214  1.0000
  C   C32       1.0  0.766677075878313  0.2120311287222663  0.6942403532618187  1.0000
  C   C33       1.0  0.12418272557970068  0.8055842057116819  0.3797758593671007  1.0000
  C   C34       1.0  0.8758168476477695  0.19441631341954488  0.6202243977001061  1.0000
  C   C35       1.0  0.04692900775765448  0.7036933879873997  0.41668492873853324  1.0000
  C   C36       1.0  0.9530717081550577  0.2963071304271381  0.5833151911049939  1.0000
  C   C37       1.0  0.08695810925853217  0.5874084444867265  0.38031850569266373  1.0000
  C   C38       1.0  0.9130414639689379  0.4125920746445004  0.619681751374543  1.0000
  C   C39       1.0  0.09904259187917576  0.9253601570618031  0.4171275572418978  1.0000
  C   C40       1.0  0.9009608098448751  0.0746393029479293  0.5828730150396737  1.0000
  N   N1        1.0  0.9368270024397631  0.5579079478034289  0.011603440703481703  1.0000
  N   N2        1.0  0.06317257213784441  0.44209256687543796  0.9883962189551951  1.0000
  N   N3        1.0  0.0024388164225969487  0.9414844918761244  0.48658607495236333  1.0000
  N   N4        1.0  0.9975665329187963  0.0585128401169897  0.5134140216507392  1.0000
  N   N5        1.0  0.6030743751301629  0.9228497056156756  0.18592825044030553  1.0000
  N   N6        1.0  0.39692634213268735  0.07715080834650222  0.814071271994685  1.0000
  N   N7        1.0  0.1960204734571462  0.5688392206777948  0.3105434277137037  1.0000
  N   N8        1.0  0.8039790997703167  0.4311612984534321  0.6894568293534961  1.0000
  O   O1        1.0  0.2954540115141955  0.24598880519666014  0.3921833453294141  1.0000
  O   O2        1.0  0.7045463652952221  0.7540095910870049  0.607817170691533  1.0000
  O   O3        1.0  0.4678546699876878  0.04479787943805039  0.3488101788704726  1.0000
  O   O4        1.0  0.5321453063808905  0.9552015738170283  0.651189610265071  1.0000
  O   O5        1.0  0.23809182713792165  0.11523054675225096  0.23102188612111263  1.0000
  O   O6        1.0  0.7619077474396863  0.8847699679266153  0.7689777735375644  1.0000
  O   O7        1.0  0.10317829463734543  0.33913166657584526  0.25385624328644246  1.0000
  O   O8        1.0  0.8968204763583076  0.6608709709505831  0.7461431574184872  1.0000
  O   O9        1.0  0.6643823459709354  0.17604122492835467  0.2196599850686596  1.0000
  O   O10       1.0  0.33561796815080686  0.8239603549099641  0.7803400052979941  1.0000
  O   O11       1.0  0.5286761440264486  0.3643571849895508  0.28314632370083365  1.0000
  O   O12       1.0  0.4713222851656341  0.6356433393107324  0.7168546679985826  1.0000
  O   O13       1.0  0.44740932194213223  0.23772642643537267  0.10170619377089449  1.0000
  O   O14       1.0  0.5525887081592488  0.7622751503839709  0.8982934736345812  1.0000
  O   O15       1.0  0.3562187119397464  0.44644901645320806  0.14624466744023576  1.0000
  O   O16       1.0  0.6437808599375785  0.5535515071303792  0.8537561870355007  1.0000
