data_image0
_chemical_formula_structural       Cd2H20C12N16O10
_chemical_formula_sum              "Cd2 H20 C12 N16 O10"
_cell_length_a       6.698294123727839
_cell_length_b       8.681726342235782
_cell_length_c       11.734396689005738
_cell_angle_alpha    103.76448533636946
_cell_angle_beta     89.99366782982538
_cell_angle_gamma    112.68917122097412

_space_group_name_H-M_alt    "P 1"
_space_group_IT_number       1

loop_
  _space_group_symop_operation_xyz
  'x, y, z'

loop_
  _atom_site_type_symbol
  _atom_site_label
  _atom_site_symmetry_multiplicity
  _atom_site_fract_x
  _atom_site_fract_y
  _atom_site_fract_z
  _atom_site_occupancy
  Cd  Cd1       1.0  0.34170810645335337  5.542076734600016e-05  0.2500079611380955  1.0000
  Cd  Cd2       1.0  0.6582916300455465  0.9999454939243007  0.7499879381756713  1.0000
  H   H1        1.0  0.8863701701209835  0.9919117948631566  0.18366181206924642  1.0000
  H   H2        1.0  0.8944430490698706  0.008226460842664098  0.3163457736115803  1.0000
  H   H3        1.0  0.11362936648904312  0.008091706258071001  0.8163353919646356  1.0000
  H   H4        1.0  0.10555689018219983  0.9917718736498953  0.6836513786618497  1.0000
  H   H5        1.0  0.7753902020364621  0.6632106345086797  0.22563233633368907  1.0000
  H   H6        1.0  0.11247974356369637  0.3370032717282355  0.2744095003762297  1.0000
  H   H7        1.0  0.22460784931865166  0.3367928832759048  0.7743716882346592  1.0000
  H   H8        1.0  0.8875227864706119  0.6630002459101404  0.7255945240269385  1.0000
  H   H9        1.0  0.6407978968596382  0.3600848484451403  0.47193451408812603  1.0000
  H   H10       1.0  0.2801415551355007  0.6398899339036105  0.027947704210539756  1.0000
  H   H11       1.0  0.3591997074048551  0.6399147886810254  0.5280671271476223  1.0000
  H   H12       1.0  0.7198562480630956  0.3601071147161575  0.9720517797451652  1.0000
  H   H13       1.0  0.8406048922245336  0.7975250210816398  0.486255978294274  1.0000
  H   H14       1.0  0.04311595438110771  0.2025300583838785  0.013747973323617694  1.0000
  H   H15       1.0  0.15939634480557877  0.20247591017589878  0.5137467414438462  1.0000
  H   H16       1.0  0.9568839915543419  0.7974682906464706  0.9862551468692974  1.0000
  H   H17       1.0  0.03781179807201342  0.7289748494272742  0.4405755355080885  1.0000
  H   H18       1.0  0.30888763679556774  0.27118552637374893  0.05942181982379681  1.0000
  H   H19       1.0  0.9621866540156034  0.27102349757497984  0.5594267321799649  1.0000
  H   H20       1.0  0.6911129542098278  0.7288141127317826  0.9405806738617601  1.0000
  C   C1        1.0  0.38492109196351276  0.9913082244586062  0.9784914545077756  1.0000
  C   C2        1.0  0.3936379236232028  0.008711605316442198  0.5215324880495517  1.0000
  C   C3        1.0  0.6150788472885579  0.008690110033946001  0.021505697765661604  1.0000
  C   C4        1.0  0.6063705230323394  0.9912828419948241  0.47845972288114075  1.0000
  C   C5        1.0  0.7082888513919771  0.5521444131343143  0.2625394848257017  1.0000
  C   C6        1.0  0.15624095886016687  0.44802496872220837  0.23747057578231084  1.0000
  C   C7        1.0  0.29170855298364984  0.4478578104214321  0.7374634611301618  1.0000
  C   C8        1.0  0.8437587852768759  0.5519759625840593  0.7625321440108623  1.0000
  C   C9        1.0  0.6376275539662687  0.39632562592219495  0.3898879627120594  1.0000
  C   C10       1.0  0.24093605881382274  0.6037190851309758  0.11003252474306183  1.0000
  C   C11       1.0  0.3623677105368088  0.6036753034534498  0.6101139046863652  1.0000
  C   C12       1.0  0.7590623913642531  0.39627925771763006  0.8899680378251348  1.0000
  N   N1        1.0  0.5374004652438772  0.2946866318197508  0.28624202561799456  1.0000
  N   N2        1.0  0.2424131190030679  0.7053948868326644  0.2136828664763328  1.0000
  N   N3        1.0  0.4625954452839168  0.705315589707901  0.7137600678329933  1.0000
  N   N4        1.0  0.7575859752901907  0.29460474401428627  0.7863162170245773  1.0000
  N   N5        1.0  0.58271514130724  0.3922972188089418  0.20470561267676862  1.0000
  N   N6        1.0  0.19042778330743462  0.6078673080579622  0.2952715069662872  1.0000
  N   N7        1.0  0.41728161608890696  0.6077037105179668  0.7952962546666031  1.0000
  N   N8        1.0  0.8095704660270046  0.39213361914338657  0.7047295077620961  1.0000
  N   N9        1.0  0.7455987767421348  0.5595494671774829  0.37923069090726363  1.0000
  N   N10       1.0  0.18593190332703813  0.4405427295660687  0.12074247220317601  1.0000
  N   N11       1.0  0.25439862858826257  0.4404527584550948  0.6207731076085212  1.0000
  N   N12       1.0  0.814066548760579  0.5594556174361857  0.8792597954848704  1.0000
  N   N13       1.0  0.8868803306652213  0.694316825214365  0.47051197281260937  1.0000
  N   N14       1.0  0.19255045007164992  0.30577190424168776  0.029484096129806393  1.0000
  N   N15       1.0  0.11311792248829276  0.3056841102942939  0.5294924521554806  1.0000
  N   N16       1.0  0.8074467090117635  0.6942238563797288  0.9705168668931922  1.0000
  O   O1        1.0  0.23821214733592191  0.9605974213788426  0.048693284637756934  1.0000
  O   O2        1.0  0.2775617078710937  0.03932115445925889  0.4513331934552555  1.0000
  O   O3        1.0  0.7617943999654457  0.039402184302510086  0.9512955678687408  1.0000
  O   O4        1.0  0.7224553059127957  0.9606784861870351  0.5486701521845632  1.0000
  O   O5        1.0  0.6409750693315746  0.9902222267475906  0.12306731263943503  1.0000
  O   O6        1.0  0.6506263008875378  0.009639857418250096  0.37686203678610053  1.0000
  O   O7        1.0  0.35902166992397605  0.0097786631195973  0.876918356065339  1.0000
  O   O8        1.0  0.34937892710165397  0.9903481540549137  0.623139274600881  1.0000
  O   O9        1.0  0.9848931479591274  0.00016368786991450003  0.25002560370381843  1.0000
  O   O10       1.0  0.015106587585002386  0.9998372247449083  0.7499694430500201  1.0000
