data_image0
_chemical_formula_structural       Gd2H10C20O18
_chemical_formula_sum              "Gd2 H10 C20 O18"
_cell_length_a       6.252972722649799
_cell_length_b       9.25069302344305
_cell_length_c       9.61201139543044
_cell_angle_alpha    87.87545180244868
_cell_angle_beta     73.77371317794643
_cell_angle_gamma    77.01165195234867

_space_group_name_H-M_alt    "P 1"
_space_group_IT_number       1

loop_
  _space_group_symop_operation_xyz
  'x, y, z'

loop_
  _atom_site_type_symbol
  _atom_site_label
  _atom_site_symmetry_multiplicity
  _atom_site_fract_x
  _atom_site_fract_y
  _atom_site_fract_z
  _atom_site_occupancy
  Gd  Gd1       1.0  0.3493532674016322  0.941445745279367  0.21905095363700877  1.0000
  Gd  Gd2       1.0  0.6506483108955194  0.0585555187052051  0.7809470252056558  1.0000
  H   H1        1.0  0.2349057333279134  0.9858077659627682  0.7208808847648599  1.0000
  H   H2        1.0  0.7650929032582354  0.014192381250325101  0.2791176686533349  1.0000
  H   H3        1.0  0.2306881806783637  0.9336786336212267  0.8791586314275577  1.0000
  H   H4        1.0  0.7693137846555373  0.0663215205757552  0.12083931234909073  1.0000
  H   H5        1.0  0.8153218704392703  0.3403051313946576  0.392951390214293  1.0000
  H   H6        1.0  0.18468215133876245  0.6596939119209608  0.60704725327804  1.0000
  H   H7        1.0  0.2983517854022752  0.43614698683179387  0.12904136543799893  1.0000
  H   H8        1.0  0.7016481385879985  0.5638542644894213  0.8709589974303855  1.0000
  H   H9        1.0  0.47993828443200215  0.5773332682259208  0.23827073591590425  1.0000
  H   H10       1.0  0.5200603722881426  0.42266686064434106  0.7617319759121699  1.0000
  C   C1        1.0  0.8959173347985612  0.4096126922528143  0.4417544027898473  1.0000
  C   C2        1.0  0.10408296616146376  0.5903874584522198  0.5582438458075745  1.0000
  C   C3        1.0  0.8385912282962168  0.7982780731810805  0.9142729478300924  1.0000
  C   C4        1.0  0.1614116223045627  0.20172430866874438  0.08572372165534863  1.0000
  C   C5        1.0  0.19928376267179715  0.7256322649711108  0.08206151325118333  1.0000
  C   C6        1.0  0.8007144868776024  0.2743689920295793  0.9179370752330274  1.0000
  C   C7        1.0  0.836550695912088  0.5644123643037916  0.42877176083705143  1.0000
  C   C8        1.0  0.16344794570755997  0.435587778323594  0.5712278321836097  1.0000
  C   C9        1.0  0.9258927492213616  0.6475564399038164  0.9642043762576195  1.0000
  C   C10       1.0  0.0741075567721623  0.35244370621551  0.03579491194227561  1.0000
  C   C11       1.0  0.8911014299501617  0.825994736699485  0.4778440187008998  1.0000
  C   C12       1.0  0.10888725562721653  0.1740053574619935  0.5221636408592261  1.0000
  C   C13       1.0  0.16792109941103922  0.4640404566922952  0.0715558395096423  1.0000
  C   C14       1.0  0.8320799806559905  0.53595746985183  0.9284433785582069  1.0000
  C   C15       1.0  0.09614224036184281  0.6116683948328542  0.03696512336804152  1.0000
  C   C16       1.0  0.903856401257805  0.3883317477945311  0.9630344696526195  1.0000
  C   C17       1.0  0.941710498184598  0.6575285722962148  0.48758249024695044  1.0000
  C   C18       1.0  0.058293131523186  0.3424715853927082  0.512415148708925  1.0000
  C   C19       1.0  0.6622685691348097  0.626794782338372  0.35175888255415094  1.0000
  C   C20       1.0  0.3377360143969738  0.3731931377745497  0.6482441783294277  1.0000
  O   O1        1.0  0.13998166285481523  0.8615405793380758  0.05413413642921941  1.0000
  O   O2        1.0  0.8600186330717107  0.13845957595266603  0.9458630725657288  1.0000
  O   O3        1.0  0.3470800606398399  0.6860568541170906  0.1534353037570284  1.0000
  O   O4        1.0  0.6529235741014431  0.3139432989861247  0.8465633748013206  1.0000
  O   O5        1.0  0.9518426485507735  0.844836338574737  0.798322712275997  1.0000
  O   O6        1.0  0.04815307149186764  0.15516266893833117  0.2016816137300808  1.0000
  O   O7        1.0  0.6372318598060646  0.8707989916353824  0.980654632634945  1.0000
  O   O8        1.0  0.3627610297189463  0.1292033463342435  0.019349063787487405  1.0000
  O   O9        1.0  0.5915632491607995  0.7630403732087389  0.34168767703423714  1.0000
  O   O10       1.0  0.40843385941234084  0.2369641948119181  0.658315175057915  1.0000
  O   O11       1.0  0.7344251500352359  0.8999646523332596  0.5786622808302228  1.0000
  O   O12       1.0  0.2655866702145602  0.10003109393016267  0.42133087977107664  1.0000
  O   O13       1.0  0.5902519379342478  0.5253219080376252  0.2947103305235146  1.0000
  O   O14       1.0  0.40974045336063375  0.4746770924915609  0.7052946051241095  1.0000
  O   O15       1.0  0.015152985112472183  0.8813218326050033  0.3706874089551279  1.0000
  O   O16       1.0  0.9848531992695584  0.11868055164300269  0.6293096904912404  1.0000
  O   O17       1.0  0.6712651223459999  0.036450819062210406  0.21159626438925738  1.0000
  O   O18       1.0  0.3287355757177792  0.9635482126838113  0.7884040283470884  1.0000
