data_image0
_chemical_formula_structural       Cu4H28C32N20Cl8
_chemical_formula_sum              "Cu4 H28 C32 N20 Cl8"
_cell_length_a       6.637632510022615
_cell_length_b       10.755223585659103
_cell_length_c       14.281604610367525
_cell_angle_alpha    96.50976057505093
_cell_angle_beta     90.00021817221625
_cell_angle_gamma    90.00017866325804

_space_group_name_H-M_alt    "P 1"
_space_group_IT_number       1

loop_
  _space_group_symop_operation_xyz
  'x, y, z'

loop_
  _atom_site_type_symbol
  _atom_site_label
  _atom_site_symmetry_multiplicity
  _atom_site_fract_x
  _atom_site_fract_y
  _atom_site_fract_z
  _atom_site_occupancy
  Cu  Cu1       1.0  0.3321733074499846  0.84515728554171  0.7416502522066039  1.0000
  Cu  Cu2       1.0  0.16783254311250323  0.8451589116063685  0.24164613632681406  1.0000
  Cu  Cu3       1.0  0.6678269122140889  0.15484301907282114  0.258351375115133  1.0000
  Cu  Cu4       1.0  0.8321676765321939  0.15483764483781207  0.7583530752865284  1.0000
  H   H1        1.0  0.35404545040332647  0.512176823965568  0.5515968279107142  1.0000
  H   H2        1.0  0.14595866677734654  0.5121793520538702  0.0515990509241746  1.0000
  H   H3        1.0  0.6459502495740919  0.4878234790044117  0.44840409906625917  1.0000
  H   H4        1.0  0.854040046313969  0.4878209460008592  0.9483997750347299  1.0000
  H   H5        1.0  0.8605799299688924  0.6954561746061074  0.42864727530702845  1.0000
  H   H6        1.0  0.6394278252504576  0.6954550549323172  0.9286503919948785  1.0000
  H   H7        1.0  0.13941727656941083  0.3045459967123564  0.5713524083344268  1.0000
  H   H8        1.0  0.3605754075278896  0.304543376420149  0.07135037764577849  1.0000
  H   H9        1.0  0.8364983749700201  0.9269575749268385  0.4876852404312331  1.0000
  H   H10       1.0  0.6635110337420257  0.9269583754089012  0.9876864606107886  1.0000
  H   H11       1.0  0.16349883157134568  0.07304366385776008  0.5123157652190642  1.0000
  H   H12       1.0  0.33648767935828516  0.07304005921761808  0.012315709706122396  1.0000
  H   H13       1.0  0.583545913313671  0.9875019540851254  0.6164285182361695  1.0000
  H   H14       1.0  0.9164562389150036  0.987506016692869  0.1164306493940259  1.0000
  H   H15       1.0  0.41645129322806435  0.0124974163526588  0.3835737307511167  1.0000
  H   H16       1.0  0.08353795451245818  0.0124952270069798  0.883572457274333  1.0000
  H   H17       1.0  0.758257614183364  0.44455453207068274  0.6594326522052325  1.0000
  H   H18       1.0  0.7417436538417448  0.44455072041779425  0.1594338117878138  1.0000
  H   H19       1.0  0.24173657924603734  0.5554513841357291  0.3405680464609944  1.0000
  H   H20       1.0  0.2582610854811734  0.5554448985789336  0.8405646208177728  1.0000
  H   H21       1.0  0.6489288913241255  0.6475506604291753  0.7591030073899674  1.0000
  H   H22       1.0  0.8510712060639067  0.6475433530866326  0.2591061674421127  1.0000
  H   H23       1.0  0.3510698217915546  0.3524571257685878  0.24089714828403427  1.0000
  H   H24       1.0  0.1489305201366804  0.3524513317333486  0.740892886829016  1.0000
  H   H25       1.0  0.9018539261966226  0.822855485456806  0.7772850391578103  1.0000
  H   H26       1.0  0.5981502190517248  0.8228532316531127  0.2772881758525259  1.0000
  H   H27       1.0  0.09814629347244622  0.1771485591304156  0.22271550217062944  1.0000
  H   H28       1.0  0.4018530137099319  0.17714238734195215  0.7227102567515826  1.0000
  C   C1        1.0  0.4714929650221579  0.6903559636990833  0.5682712714299853  1.0000
  C   C2        1.0  0.028512189043127002  0.6903563594989777  0.06827310706180609  1.0000
  C   C3        1.0  0.5285072546307887  0.3096424660105086  0.431728797867386  1.0000
  C   C4        1.0  0.9714895371708892  0.3096430043856984  0.9317263405685452  1.0000
  C   C5        1.0  0.7432417000075231  0.732332459875593  0.4776105480285223  1.0000
  C   C6        1.0  0.7567681493819052  0.7323334722511347  0.9776140518870234  1.0000
  C   C7        1.0  0.25675399996683274  0.267668775628266  0.5223890569396161  1.0000
  C   C8        1.0  0.24323508340199854  0.267665896553801  0.02238749676581619  1.0000
  C   C9        1.0  0.733826152192762  0.8587311640422255  0.5119587762207941  1.0000
  C   C10       1.0  0.7661850391396995  0.8587292766100206  0.011959440669208695  1.0000
  C   C11       1.0  0.26617105434016963  0.14126913565036864  0.48804075007697617  1.0000
  C   C12       1.0  0.233816687080072  0.14127009055371786  0.9880414076418234  1.0000
  C   C13       1.0  0.5928214278499553  0.8922455872448507  0.5816524804554674  1.0000
  C   C14       1.0  0.9071829712112418  0.8922477592826185  0.08165513644465963  1.0000
  C   C15       1.0  0.4071772852526649  0.1077556515414173  0.41834852519630056  1.0000
  C   C16       1.0  0.09281423533624182  0.10775161443422825  0.9183485132233002  1.0000
  C   C17       1.0  0.1554059625867552  0.6170571714660014  0.6368639345760343  1.0000
  C   C18       1.0  0.3445978767514788  0.6170554662695196  0.1368682543169086  1.0000
  C   C19       1.0  0.8445912439461765  0.38294312822658577  0.3631355917217363  1.0000
  C   C20       1.0  0.655405356015372  0.3829429585248221  0.8631297139623939  1.0000
  C   C21       1.0  0.8536653772104826  0.5280957349496873  0.6693133981063824  1.0000
  C   C22       1.0  0.6463288610674168  0.5280926440743414  0.16931304880252177  1.0000
  C   C23       1.0  0.1463318293389406  0.4719083112737223  0.3306878435594455  1.0000
  C   C24       1.0  0.3536713585684693  0.4719048416246566  0.8306834401213122  1.0000
  C   C25       1.0  0.7944324099949753  0.6379786604454124  0.724042430974812  1.0000
  C   C26       1.0  0.7055673516860421  0.6379738343308999  0.22404414137053408  1.0000
  C   C27       1.0  0.2055663031099542  0.3620253825006047  0.275957410011813  1.0000
  C   C28       1.0  0.2944373876226933  0.3620208422947612  0.775951411201852  1.0000
  C   C29       1.0  0.933260811612989  0.7345225633722449  0.7348160673439281  1.0000
  C   C30       1.0  0.5667395261703305  0.7345211822307718  0.2348220225529118  1.0000
  C   C31       1.0  0.06673940805051612  0.2654805437625001  0.265183694972329  1.0000
  C   C32       1.0  0.4332652131524029  0.265475370939363  0.7651757883841839  1.0000
  N   N1        1.0  0.33364698722000696  0.6017254820843048  0.5882169927707749  1.0000
  N   N2        1.0  0.166356375966366  0.6017271229103613  0.0882205777458438  1.0000
  N   N3        1.0  0.6663502193186659  0.3982748208873516  0.4117839342076762  1.0000
  N   N4        1.0  0.8336438436890816  0.39827317678557256  0.9117789485548755  1.0000
  N   N5        1.0  0.46617076332935886  0.8078236146305856  0.6128051511556408  1.0000
  N   N6        1.0  0.033832336090633006  0.8078240206007903  0.11280629686945787  1.0000
  N   N7        1.0  0.5338294563318371  0.1921766883444178  0.3871957758257595  1.0000
  N   N8        1.0  0.966166377001052  0.1921744091071318  0.8871937724264356  1.0000
  N   N9        1.0  0.6114415915589787  0.6488300845917792  0.5039159985691128  1.0000
  N   N10       1.0  0.8885654602374089  0.6488275378816296  0.003918925071573695  1.0000
  N   N11       1.0  0.3885556149712598  0.35116927928787317  0.49608344905681173  1.0000
  N   N12       1.0  0.11143626597680618  0.3511708918296322  0.9960811442272756  1.0000
  N   N13       1.0  0.1154886146545024  0.7236480791179858  0.6929792124282059  1.0000
  N   N14       1.0  0.3845177296835161  0.7236473934114115  0.19298158800660298  1.0000
  N   N15       1.0  0.8845116050011369  0.27635128640454104  0.3070209355410114  1.0000
  N   N16       1.0  0.6154885162031647  0.27635009557333495  0.8070163016038092  1.0000
  N   N17       1.0  0.031153530737363197  0.5174933487834464  0.625407908823334  1.0000
  N   N18       1.0  0.46884519197538316  0.5174891069904249  0.12541013489008887  1.0000
  N   N19       1.0  0.9688421692343071  0.4825069509074779  0.37459161747295877  1.0000
  N   N20       1.0  0.5311580407801557  0.482508377072378  0.8745856536963572  1.0000
  Cl  Cl1       1.0  0.584441531918877  0.9761806901005772  0.7994066585968299  1.0000
  Cl  Cl2       1.0  0.9155635692847923  0.9761810025535098  0.29940637229497474  1.0000
  Cl  Cl3       1.0  0.4155571811866209  0.023820550325218903  0.2005950473952751  1.0000
  Cl  Cl4       1.0  0.08443665038465302  0.0238211736869047  0.7005954123704469  1.0000
  Cl  Cl5       1.0  0.2706895208346225  0.7967513320688582  0.8898412455132885  1.0000
  Cl  Cl6       1.0  0.22930826034294682  0.7967521718853448  0.3898427741018864  1.0000
  Cl  Cl7       1.0  0.7293091922710603  0.20324897418353774  0.1101610821473074  1.0000
  Cl  Cl8       1.0  0.7706919593209348  0.20324906690259334  0.6101582315513524  1.0000
