data_image0
_chemical_formula_structural       CoH20C22Se2N6O2
_chemical_formula_sum              "Co1 H20 C22 Se2 N6 O2"
_cell_length_a       7.315616239495656
_cell_length_b       8.91990784325399
_cell_length_c       10.090736279669528
_cell_angle_alpha    110.17857579385276
_cell_angle_beta     102.51069179219586
_cell_angle_gamma    98.38164330564912

_space_group_name_H-M_alt    "P 1"
_space_group_IT_number       1

loop_
  _space_group_symop_operation_xyz
  'x, y, z'

loop_
  _atom_site_type_symbol
  _atom_site_label
  _atom_site_symmetry_multiplicity
  _atom_site_fract_x
  _atom_site_fract_y
  _atom_site_fract_z
  _atom_site_occupancy
  Co  Co1       1.0  0.5000057726996019  0.4999994719270476  0.49999796711558275  1.0000
  H   H1        1.0  0.6229261954934914  0.5576313368847039  0.8112669694916264  1.0000
  H   H2        1.0  0.3770722780175007  0.44236625719241834  0.1887323331199369  1.0000
  H   H3        1.0  0.8383317973817271  0.773018344967177  0.03961106712839071  1.0000
  H   H4        1.0  0.16165601468267715  0.2269815633253955  0.9603900991148535  1.0000
  H   H5        1.0  0.9857352421081772  0.0422033897234471  0.7760252204930183  1.0000
  H   H6        1.0  0.01426913143412634  0.9577955844785605  0.22397844393976377  1.0000
  H   H7        1.0  0.7616220453219357  0.8145014837244348  0.5601367788617395  1.0000
  H   H8        1.0  0.2383865944716561  0.18549751326109737  0.4398646321033511  1.0000
  H   H9        1.0  0.7716026763535737  0.34601416328084167  0.5936876725626804  1.0000
  H   H10       1.0  0.22840000197060562  0.6539835219002655  0.40631335100331956  1.0000
  H   H11       1.0  0.5858211950199107  0.2672723772016852  0.6226440094693046  1.0000
  H   H12       1.0  0.4141771486185988  0.7327301129450137  0.3773566955169515  1.0000
  H   H13       1.0  0.6519247728834472  0.0257557793538581  0.4162667588402443  1.0000
  H   H14       1.0  0.34807678721038837  0.9742431454989031  0.5837364206932633  1.0000
  H   H15       1.0  0.6837887492593426  0.16618261768362433  0.2499939817863819  1.0000
  H   H16       1.0  0.3162114041102556  0.8338162824945101  0.7500089552974956  1.0000
  H   H17       1.0  0.2898305691951392  0.731201577341146  0.8950292613509416  1.0000
  H   H18       1.0  0.7101653640017531  0.26879724881312234  0.10497294838403094  1.0000
  H   H19       1.0  0.27181077185201025  0.6117453251113503  0.0767602166252317  1.0000
  H   H20       1.0  0.7281837392611124  0.38825349344840276  0.9232427442656357  1.0000
  C   C1        1.0  0.7074563834058696  0.6667290102354856  0.808624614339962  1.0000
  C   C2        1.0  0.2925396265886278  0.33326973051821085  0.19137262736734328  1.0000
  C   C3        1.0  0.8299262742475975  0.7903744757406557  0.9369172920310972  1.0000
  C   C4        1.0  0.17006587250246952  0.20962062758633238  0.0630841927918837  1.0000
  C   C5        1.0  0.9357962713320943  0.9323740350903192  0.9325875346778004  1.0000
  C   C6        1.0  0.0641968330567977  0.06762475879481401  0.0674151837634369  1.0000
  C   C7        1.0  0.9103270543068052  0.9380663740579038  0.7921701760877298  1.0000
  C   C8        1.0  0.08967372212915593  0.06193500357245089  0.20783457701384828  1.0000
  C   C9        1.0  0.7837919517794847  0.8102708262798545  0.6686553551504345  1.0000
  C   C10       1.0  0.21621590435622554  0.18973062348327122  0.3313476293827193  1.0000
  C   C11       1.0  0.7771084604432515  0.5607488010157551  0.32942206347953357  1.0000
  C   C12       1.0  0.2228878310488511  0.4392559635128777  0.6705710301753597  1.0000
  C   C13       1.0  0.5761151603195884  0.9623441880501815  0.2991023464829539  1.0000
  C   C14       1.0  0.4238850237690599  0.0376546779677298  0.7008986033898594  1.0000
  C   C15       1.0  0.5939048594462478  0.04146796279677999  0.2036696749282925  1.0000
  C   C16       1.0  0.406092465115357  0.9585309051122266  0.7963337708618496  1.0000
  C   C17       1.0  0.4927915366232228  0.9611716041503016  0.05331638776047494  1.0000
  C   C18       1.0  0.5072097196172011  0.03882607343629729  0.9466853869614198  1.0000
  C   C19       1.0  0.3752347182516402  0.8030227454292956  0.008726259645861557  1.0000
  C   C20       1.0  0.6247604312873704  0.19697853350255906  0.9912775236571745  1.0000
  C   C21       1.0  0.3648468743782729  0.7341927561545843  0.11178831289060297  1.0000
  C   C22       1.0  0.6351497279635366  0.2658084962115552  0.8882127320454668  1.0000
  Se  Se1       1.0  0.9339573299656436  0.6200339352115023  0.23316347195387266  1.0000
  Se  Se2       1.0  0.0660419132106398  0.37997072494534484  0.7668211641504995  1.0000
  N   N1        1.0  0.6816038656690041  0.6749058145291259  0.6749042227384834  1.0000
  N   N2        1.0  0.3184037019728123  0.3250943708877188  0.3250963633775257  1.0000
  N   N3        1.0  0.6716816152146238  0.5224256870046206  0.3921092587602574  1.0000
  N   N4        1.0  0.32833369427558523  0.47758175618552207  0.6078818475188683  1.0000
  N   N5        1.0  0.46386222291840085  0.8109801929672288  0.25517327796128336  1.0000
  N   N6        1.0  0.5361351170027221  0.18901865786165933  0.7448291742233266  1.0000
  O   O1        1.0  0.6305010123648315  0.30742920820166836  0.5494580618936808  1.0000
  O   O2        1.0  0.3695012168739282  0.6925721428629573  0.4505439528409312  1.0000
