data_image0
_chemical_formula_structural       Zn2H20C32S4N8O8
_chemical_formula_sum              "Zn2 H20 C32 S4 N8 O8"
_cell_length_a       7.597520407986545
_cell_length_b       8.632849953481456
_cell_length_c       13.147122681268183
_cell_angle_alpha    90.00365234178355
_cell_angle_beta     93.12968969604792
_cell_angle_gamma    90.00453045112337

_space_group_name_H-M_alt    "P 1"
_space_group_IT_number       1

loop_
  _space_group_symop_operation_xyz
  'x, y, z'

loop_
  _atom_site_type_symbol
  _atom_site_label
  _atom_site_symmetry_multiplicity
  _atom_site_fract_x
  _atom_site_fract_y
  _atom_site_fract_z
  _atom_site_occupancy
  Zn  Zn1       1.0  0.7499956360830637  0.15580209256123817  0.7499977816544215  1.0000
  Zn  Zn2       1.0  0.2500087455047719  0.8441980821821102  0.24999497578640018  1.0000
  H   H1        1.0  0.7304069280160375  0.0677074389990437  0.051434726633082996  1.0000
  H   H2        1.0  0.7696233307748201  0.06766577746449799  0.4485625383838609  1.0000
  H   H3        1.0  0.26964145989225585  0.9322684121773148  0.9485732453902853  1.0000
  H   H4        1.0  0.2303725939688377  0.932342505939125  0.5514389147838655  1.0000
  H   H5        1.0  0.541333538091365  0.664343648678681  0.17107947998552217  1.0000
  H   H6        1.0  0.9586694292726035  0.6643261116704052  0.3289313343169836  1.0000
  H   H7        1.0  0.4586710270754323  0.33564146718050125  0.8289102422681649  1.0000
  H   H8        1.0  0.04132145601433021  0.33567522119331966  0.6710660525460526  1.0000
  H   H9        1.0  0.6845833299501647  0.44658737691129585  0.016154648158355683  1.0000
  H   H10       1.0  0.8154307750429409  0.44656224528752375  0.4838516818103712  1.0000
  H   H11       1.0  0.31541414194696676  0.5534081643553178  0.983843079328828  1.0000
  H   H12       1.0  0.18455343147225986  0.5534448792362667  0.5161468818364127  1.0000
  H   H13       1.0  0.015498548201449585  0.6934906500232143  0.8156309749519934  1.0000
  H   H14       1.0  0.4845027187072475  0.693463406426012  0.6843653986967266  1.0000
  H   H15       1.0  0.9845295261629728  0.30648751756393006  0.18438507927489667  1.0000
  H   H16       1.0  0.5154725887756013  0.3065448759172752  0.3156273769772682  1.0000
  H   H17       1.0  0.9515437122577307  0.9472237243365952  0.9006094513490622  1.0000
  H   H18       1.0  0.5484543935503295  0.9471752614984009  0.5993818761768992  1.0000
  H   H19       1.0  0.048516718047039796  0.052785719747816984  0.0993961000675156  1.0000
  H   H20       1.0  0.45152754690967356  0.05283302104640339  0.40061048156012175  1.0000
  C   C1        1.0  0.599769083116982  0.8920310302940634  0.12924453499759636  1.0000
  C   C2        1.0  0.9002229630444631  0.8920086279013615  0.370762080554293  1.0000
  C   C3        1.0  0.4002262424050115  0.10797377842069268  0.8707667812356874  1.0000
  C   C4        1.0  0.0997601564952859  0.10799849641844618  0.6292326214193834  1.0000
  C   C5        1.0  0.7815183659958436  0.8349867492712589  0.004921240420976894  1.0000
  C   C6        1.0  0.7184980653676475  0.8349526988391882  0.4950886810494381  1.0000
  C   C7        1.0  0.2184978533287918  0.16501921868098887  0.9950942011109588  1.0000
  C   C8        1.0  0.2814903697127419  0.16505326726951344  0.5049055348053101  1.0000
  C   C9        1.0  0.7088960815272853  0.6954386723043058  0.03995832545044209  1.0000
  C   C10       1.0  0.7911185993879639  0.6954005921193553  0.46004229167580485  1.0000
  C   C11       1.0  0.2911310446763551  0.30455107864462855  0.9600515912771781  1.0000
  C   C12       1.0  0.20887492082924544  0.304604215935626  0.5399552315797251  1.0000
  C   C13       1.0  0.7426055356600044  0.5550687236688956  0.9923968627846378  1.0000
  C   C14       1.0  0.7574047599235598  0.5550365423649806  0.5076066801051482  1.0000
  C   C15       1.0  0.257430554276226  0.4449129182735232  0.007596012472710395  1.0000
  C   C16       1.0  0.242595347418991  0.44497289938707496  0.49239118403162496  1.0000
  C   C17       1.0  0.8532652754864573  0.5588010791685888  0.9104406940920028  1.0000
  C   C18       1.0  0.6467374842648326  0.5587605886570655  0.5895626237602584  1.0000
  C   C19       1.0  0.14676854919591162  0.44119793791912787  0.0895459756555113  1.0000
  C   C20       1.0  0.35323414762201105  0.4412488517235926  0.4104253952584571  1.0000
  C   C21       1.0  0.9310074191824992  0.6983089748197813  0.8798156472359081  1.0000
  C   C22       1.0  0.5689975015655193  0.6982683156899083  0.6201901445396842  1.0000
  C   C23       1.0  0.0690247914711009  0.30166571768319267  0.1201975765496996  1.0000
  C   C24       1.0  0.43097017778281815  0.301733015988816  0.3797976698188776  1.0000
  C   C25       1.0  0.8966077285304265  0.8385879891659085  0.9264618066781551  1.0000
  C   C26       1.0  0.603393072677065  0.8385420753461117  0.5735423626418877  1.0000
  C   C27       1.0  0.10341544542090017  0.16139944491119704  0.073547905532152  1.0000
  C   C28       1.0  0.39657987618838325  0.16145925651900228  0.4264457243302572  1.0000
  C   C29       1.0  0.8842730398272776  0.41748913628342155  0.8474246055897651  1.0000
  C   C30       1.0  0.6157219736716895  0.41746481573791516  0.6525781532525627  1.0000
  C   C31       1.0  0.1157145663717287  0.5825284140520564  0.15258326722161533  1.0000
  C   C32       1.0  0.38426350379859997  0.5825353586678261  0.34742123708016237  1.0000
  S   S1        1.0  0.4845186489330189  0.0038338086178270996  0.20812687125013699  1.0000
  S   S2        1.0  0.015493156032675901  0.003812649918586399  0.2918751043510638  1.0000
  S   S3        1.0  0.5155081277591193  0.9961594167215674  0.791867044626997  1.0000
  S   S4        1.0  0.9845225300870125  0.9962095345762446  0.7081273714603852  1.0000
  N   N1        1.0  0.7103340476928038  0.9525076937019179  0.060928740071673766  1.0000
  N   N2        1.0  0.7896672081920215  0.9524700101397339  0.4390711310972719  1.0000
  N   N3        1.0  0.28970098272927197  0.04748089916058968  0.939081585547747  1.0000
  N   N4        1.0  0.21033125857627505  0.04752668975983449  0.5609319754994644  1.0000
  N   N5        1.0  0.6011921422141951  0.7361794003362973  0.11821652700498217  1.0000
  N   N6        1.0  0.8988074769798401  0.736150913389501  0.38179576748534316  1.0000
  N   N7        1.0  0.3987858740844174  0.2638462584869571  0.881796938564136  1.0000
  N   N8        1.0  0.10118081980101579  0.26385389444761376  0.6182007244526628  1.0000
  O   O1        1.0  0.980366607724207  0.43081491911432573  0.772880793523427  1.0000
  O   O2        1.0  0.5195985201104419  0.4307860834316911  0.7271141584467385  1.0000
  O   O3        1.0  0.01959929309376921  0.5691794626364411  0.22711453954977398  1.0000
  O   O4        1.0  0.4803827756767659  0.5692314664819447  0.2728888213740105  1.0000
  O   O5        1.0  0.8029784928355072  0.291424821434667  0.8712096946631503  1.0000
  O   O6        1.0  0.6970064214638966  0.2914200335227547  0.6287915354297196  1.0000
  O   O7        1.0  0.1970390158919599  0.7085637701459362  0.1287845027298928  1.0000
  O   O8        1.0  0.30297896384486467  0.7085801409459476  0.3712093723108935  1.0000
