data_image0
_chemical_formula_structural       Co2H12C16N8Cl4
_chemical_formula_sum              "Co2 H12 C16 N8 Cl4"
_cell_length_a       9.056821887148091
_cell_length_b       7.8775273160904264
_cell_length_c       13.157336456511091
_cell_angle_alpha    74.82100809873754
_cell_angle_beta     57.835644229884416
_cell_angle_gamma    69.33885890076985

_space_group_name_H-M_alt    "P 1"
_space_group_IT_number       1

loop_
  _space_group_symop_operation_xyz
  'x, y, z'

loop_
  _atom_site_type_symbol
  _atom_site_label
  _atom_site_symmetry_multiplicity
  _atom_site_fract_x
  _atom_site_fract_y
  _atom_site_fract_z
  _atom_site_occupancy
  Co  Co1       1.0  0.1541862635985679  0.9583419556932496  0.22436377312789796  1.0000
  Co  Co2       1.0  0.8458222796982611  0.0416490537384533  0.7756347111821142  1.0000
  H   H1        1.0  0.2372884259471491  0.9374878559764426  0.43081038268422134  1.0000
  H   H2        1.0  0.7627086421213817  0.06250401559714192  0.5691791134782277  1.0000
  H   H3        1.0  0.9795341135196477  0.414183491541138  0.7078871161078767  1.0000
  H   H4        1.0  0.020398797181798045  0.5858445473880918  0.2921330997321832  1.0000
  H   H5        1.0  0.12231637432031306  0.018156669607073222  0.9902948496854902  1.0000
  H   H6        1.0  0.8776840539957289  0.9818186365796178  0.009708330730809758  1.0000
  H   H7        1.0  0.4655756814769417  0.5750284180384428  0.19081781564247535  1.0000
  H   H8        1.0  0.5344691220154658  0.42498276876452207  0.80917691323485  1.0000
  H   H9        1.0  0.26784084290369503  0.7841734687583111  0.8438310101986983  1.0000
  H   H10       1.0  0.7322095908969641  0.21582190397991494  0.1561483205587777  1.0000
  H   H11       1.0  0.13436057934774942  0.7307222534280837  0.6221052680750814  1.0000
  H   H12       1.0  0.865622351051847  0.26929284053028363  0.3778933989383689  1.0000
  C   C1        1.0  0.1792617258298037  0.8277027911250057  0.44650332461340264  1.0000
  C   C2        1.0  0.8207400365150265  0.17228226481201867  0.5534868233594137  1.0000
  C   C3        1.0  0.06932424026337711  0.6426028301095953  0.42386685790039275  1.0000
  C   C4        1.0  0.9306714775434128  0.3573705350833194  0.5761405019389371  1.0000
  C   C5        1.0  0.059696763156793516  0.5921931317029203  0.5395169126202715  1.0000
  C   C6        1.0  0.9402609260176715  0.40781823633388115  0.4604979844682118  1.0000
  C   C7        1.0  0.9898384114789205  0.4496742813352058  0.6190528878707653  1.0000
  C   C8        1.0  0.010154786822290906  0.5503125681300958  0.3809438950575411  1.0000
  C   C9        1.0  0.21289082916906216  0.8868505545864878  0.9959126887706019  1.0000
  C   C10       1.0  0.7871104211122811  0.11314205081233546  0.00409428898106515  1.0000
  C   C11       1.0  0.40403724596544066  0.6157423042654101  0.9458673593192798  1.0000
  C   C12       1.0  0.5959652736776702  0.3842750911911921  0.05413781673740914  1.0000
  C   C13       1.0  0.3844829716003061  0.6588841857051051  0.05222130477485359  1.0000
  C   C14       1.0  0.6155276898725647  0.341124566513578  0.9477774185971624  1.0000
  C   C15       1.0  0.48094916536942367  0.5431904581610425  0.10947862248288227  1.0000
  C   C16       1.0  0.519057620983986  0.45682147903453807  0.8905271993583382  1.0000
  N   N1        1.0  0.26120848535311586  0.8289601232339193  0.08122764171847757  1.0000
  N   N2        1.0  0.738804295084847  0.171045533490819  0.9187744998369637  1.0000
  N   N3        1.0  0.291906927266993  0.7642292304437389  0.9148322367472089  1.0000
  N   N4        1.0  0.7081118518186073  0.235782777005916  0.08516323369769906  1.0000
  N   N5        1.0  0.14449044492975097  0.7913002466356431  0.3690197119399485  1.0000
  N   N6        1.0  0.8554800902660133  0.20870008663728612  0.6309865817461427  1.0000
  N   N7        1.0  0.13223675557043893  0.712630470469847  0.5483160796742295  1.0000
  N   N8        1.0  0.8677589929476353  0.28736870665975534  0.45168065557886194  1.0000
  Cl  Cl1       1.0  0.29208034155598744  0.15337916599152376  0.20421124342984595  1.0000
  Cl  Cl2       1.0  0.707927743463564  0.84658738887903  0.7957978594405615  1.0000
  Cl  Cl3       1.0  0.8607829006226948  0.0954240306543781  0.26955653339399527  1.0000
  Cl  Cl4       1.0  0.13923251180941076  0.9045835207195196  0.730429979564043  1.0000
