data_image0
_chemical_formula_structural       Al4H19C32O24F
_chemical_formula_sum              "Al4 H19 C32 O24 F1"
_cell_length_a       6.7258718035839715
_cell_length_b       14.071927181113956
_cell_length_c       15.97368199811608
_cell_angle_alpha    89.0846150222562
_cell_angle_beta     89.29819774996443
_cell_angle_gamma    88.28178597418247

_space_group_name_H-M_alt    "P 1"
_space_group_IT_number       1

loop_
  _space_group_symop_operation_xyz
  'x, y, z'

loop_
  _atom_site_type_symbol
  _atom_site_label
  _atom_site_symmetry_multiplicity
  _atom_site_fract_x
  _atom_site_fract_y
  _atom_site_fract_z
  _atom_site_occupancy
  Al  Al1       1.0  0.9044382619452878  0.5009417213054947  0.5000662326820304  1.0000
  Al  Al2       1.0  0.4040166312263622  0.5019030637215067  0.4985440846188496  1.0000
  Al  Al3       1.0  0.3636273088567066  0.005934245344434403  0.0005578171530090004  1.0000
  Al  Al4       1.0  0.8663758538968482  0.002682975633803201  0.9995799431537762  1.0000
  H   H1        1.0  0.4353915767443794  0.7968753188355181  0.816119788659698  1.0000
  H   H2        1.0  0.9789770840214235  0.8009997879199561  0.8000218656772589  1.0000
  H   H3        1.0  0.44458907367324246  0.6818297129099234  0.70105953634814  1.0000
  H   H4        1.0  0.9871429425744722  0.7033144480271075  0.6977508180247155  1.0000
  H   H5        1.0  0.8358148508643312  0.7806955843212576  0.1642667644099447  1.0000
  H   H6        1.0  0.8453461624675144  0.6580480230323147  0.28040079788070926  1.0000
  H   H7        1.0  0.43225937947294574  0.7428498029600304  0.3445975452975816  1.0000
  H   H8        1.0  0.42298807410891487  0.8650763130404897  0.22817520118711337  1.0000
  H   H9        1.0  0.918282032713897  0.3657554077498445  0.7435905837015611  1.0000
  H   H10       1.0  0.3409937967213282  0.15258435456797773  0.7655409157311865  1.0000
  H   H11       1.0  0.3668970689750355  0.270224484856513  0.6459039342524093  1.0000
  H   H12       1.0  0.3150115108483078  0.19352469459660432  0.2127144052416696  1.0000
  H   H13       1.0  0.341444096235179  0.31204918263748743  0.32445421106240246  1.0000
  H   H14       1.0  0.9348847400912207  0.2760623803159064  0.005680584571777601  1.0000
  H   H15       1.0  0.20295565219176848  0.18259360399277813  0.0876597891206004  1.0000
  H   H16       1.0  0.649683744028529  0.6232527328050209  0.4744849544956153  1.0000
  H   H17       1.0  0.15973774985403827  0.38376766655103006  0.4653974934057175  1.0000
  H   H18       1.0  0.6152954543727136  0.882223095340315  0.9851221159351979  1.0000
  H   H19       1.0  0.11261619898314733  0.11539353585894223  0.9502650505602261  1.0000
  C   C1        1.0  0.6613929103220357  0.3882074673793952  0.6127258367643549  1.0000
  C   C2        1.0  0.6593000340656519  0.3907057696448747  0.38439411357845177  1.0000
  C   C3        1.0  0.1426710268151581  0.6211394966442472  0.38841594362543924  1.0000
  C   C4        1.0  0.15138507952841004  0.6105064027616083  0.6128686066176667  1.0000
  C   C5        1.0  0.29338525789052033  0.7770960625372256  0.7898641848829014  1.0000
  C   C6        1.0  0.12594842976943715  0.8168566884073414  0.8232351544311385  1.0000
  C   C7        1.0  0.2990763084069244  0.7098629362049423  0.7217369792278916  1.0000
  C   C8        1.0  0.13807362900211478  0.6788231228271046  0.6818623675679376  1.0000
  C   C9        1.0  0.9651391003708057  0.7718060579782745  0.20437680210003606  1.0000
  C   C10       1.0  0.9703906436835796  0.7040869991110912  0.26867354203830723  1.0000
  C   C11       1.0  0.13926518971965152  0.6935249123116308  0.3190929148351955  1.0000
  C   C12       1.0  0.30271103225945245  0.7514662055482402  0.30459609058743103  1.0000
  C   C13       1.0  0.2978091389435563  0.8191603934782207  0.24019822470548038  1.0000
  C   C14       1.0  0.1289681619285119  0.8294425930151872  0.1898219120242786  1.0000
  C   C15       1.0  0.7919442655507896  0.3192180358980821  0.7489703541553966  1.0000
  C   C16       1.0  0.7719343947630721  0.2577760168422216  0.8177909250478377  1.0000
  C   C17       1.0  0.6118033207441727  0.195249935006224  0.8215215836150163  1.0000
  C   C18       1.0  0.46559907676196144  0.1999840900513732  0.7600494810007703  1.0000
  C   C19       1.0  0.4809086864494745  0.2644766320066552  0.6937019348809983  1.0000
  C   C20       1.0  0.6463631927711264  0.32244236363602147  0.6867757804123966  1.0000
  C   C21       1.0  0.8244833686321444  0.2878219097909138  0.2690485650725449  1.0000
  C   C22       1.0  0.8121071528737789  0.2231965841241177  0.2040448154758465  1.0000
  C   C23       1.0  0.6243523612910808  0.1924010432079513  0.18049452452307688  1.0000
  C   C24       1.0  0.4567774160437353  0.22373013927199287  0.2255874643067131  1.0000
  C   C25       1.0  0.47299554640362373  0.2876048573642367  0.2900241298456762  1.0000
  C   C26       1.0  0.6570744218643584  0.32250671932366254  0.3131972159808427  1.0000
  C   C27       1.0  0.6102384838859862  0.12470029681008299  0.1096267414004117  1.0000
  C   C28       1.0  0.6063738186225862  0.1190381390893478  0.8870927396405932  1.0000
  C   C29       1.0  0.12341652465750033  0.8842216784686484  0.8928256591398878  1.0000
  C   C30       1.0  0.1253121332763172  0.8996083480176083  0.1190573586267902  1.0000
  C   C31       1.0  0.9194746875552301  0.2583779226361215  0.8874913383247358  1.0000
  C   C32       1.0  0.9997551179095724  0.17691085460983663  0.1711793555831065  1.0000
  O   O1        1.0  0.48891522564949963  0.4255735804426877  0.4050235927342385  1.0000
  O   O2        1.0  0.8307242075427298  0.4209148098919044  0.5935738731234819  1.0000
  O   O3        1.0  0.9863852122998015  0.5920303708601082  0.5788016122739492  1.0000
  O   O4        1.0  0.8237089812552015  0.4069589435920306  0.4193016892754784  1.0000
  O   O5        1.0  0.9763891123351275  0.5855318383314413  0.4088573188701545  1.0000
  O   O6        1.0  0.5006506309683659  0.4052214875615618  0.5732615698637956  1.0000
  O   O7        1.0  0.6512168259081437  0.5595635333997038  0.4984419157754658  1.0000
  O   O8        1.0  0.3101493988788278  0.6012253710347297  0.4222960944241194  1.0000
  O   O9        1.0  0.32193402481505035  0.5761355754533353  0.5920385882411665  1.0000
  O   O10       1.0  0.15770590517237792  0.4425186619852539  0.4963252118852353  1.0000
  O   O11       1.0  0.7747640665592644  0.09214104044443873  0.9163187683314717  1.0000
  O   O12       1.0  0.4407371396570883  0.1087228131161524  0.0778737442009074  1.0000
  O   O13       1.0  0.2903832710565979  0.9346542359180887  0.0967008569554793  1.0000
  O   O14       1.0  0.43896228435490064  0.08556999438475543  0.9076873247736117  1.0000
  O   O15       1.0  0.28778129539417563  0.906272522088358  0.9256470941745858  1.0000
  O   O16       1.0  0.7743487610605728  0.08793316697841651  0.0847351140684367  1.0000
  O   O17       1.0  0.6165075664463092  0.9474394323743315  0.003610244057661299  1.0000
  O   O18       1.0  0.9495499960353658  0.9149536364364936  0.9149096824395854  1.0000
  O   O19       1.0  0.9583244837041962  0.9174613292189093  0.0845070051975867  1.0000
  O   O20       1.0  0.11162550367124174  0.0643922957808485  0.9927762817681655  1.0000
  O   O21       1.0  0.09694820544806501  0.2375301386333533  0.879222397544403  1.0000
  O   O22       1.0  0.8356802050793423  0.2861317668759611  0.9607186090681381  1.0000
  O   O23       1.0  0.07662365732157642  0.10892996155320842  0.20810155851893333  1.0000
  O   O24       1.0  0.08258393190681798  0.22171192468588435  0.10441978484888638  1.0000
  F   F1        1.0  0.009183599137081402  0.3164415586185427  0.2887351542445842  1.0000
