data_image0
_chemical_formula_structural       Yb2H28C36N4O12
_chemical_formula_sum              "Yb2 H28 C36 N4 O12"
_cell_length_a       7.302311025554418
_cell_length_b       9.979011092814652
_cell_length_c       12.853052420448922
_cell_angle_alpha    112.49347087712633
_cell_angle_beta     91.32666351557346
_cell_angle_gamma    97.79906929052645

_space_group_name_H-M_alt    "P 1"
_space_group_IT_number       1

loop_
  _space_group_symop_operation_xyz
  'x, y, z'

loop_
  _atom_site_type_symbol
  _atom_site_label
  _atom_site_symmetry_multiplicity
  _atom_site_fract_x
  _atom_site_fract_y
  _atom_site_fract_z
  _atom_site_occupancy
  Yb  Yb1       1.0  0.7082227689735417  0.5742168538429553  0.6884894215520418  1.0000
  Yb  Yb2       1.0  0.2917769597999041  0.42578185917716393  0.3115099649845519  1.0000
  H   H1        1.0  0.24688350347084756  0.32035322286476736  0.690499380543578  1.0000
  H   H2        1.0  0.7531137945974749  0.6796469340141869  0.3095008563018524  1.0000
  H   H3        1.0  0.3015171829232912  0.19457229134368953  0.559123568008772  1.0000
  H   H4        1.0  0.6984814096975285  0.8054272758386318  0.44087751022433247  1.0000
  H   H5        1.0  0.9835044744523173  0.17784685116245663  0.4720899208122376  1.0000
  H   H6        1.0  0.016493504388257908  0.8221498401891694  0.5279094641406203  1.0000
  H   H7        1.0  0.963294566233955  0.13461686874020973  0.5930308531018369  1.0000
  H   H8        1.0  0.03670551150698742  0.8653831210655908  0.406971068227989  1.0000
  H   H9        1.0  0.501103755300214  0.6677659736377066  0.05407095140694199  1.0000
  H   H10       1.0  0.4988960897957284  0.3322331649776443  0.9459292800607316  1.0000
  H   H11       1.0  0.32470284325257376  0.5420206842566342  0.9585439147614351  1.0000
  H   H12       1.0  0.6752971503336199  0.45797962780849133  0.04145463026218721  1.0000
  H   H13       1.0  0.3854145594643085  0.7337923787732945  0.6073487067465138  1.0000
  H   H14       1.0  0.6145871518870082  0.26620920710576707  0.3926523712359753  1.0000
  H   H15       1.0  0.31874602144888087  0.9750857158016399  0.6141288613178659  1.0000
  H   H16       1.0  0.6812543953499386  0.02491645977406163  0.38587137527694887  1.0000
  H   H17       1.0  0.5483860696926681  0.2043933774799953  0.7239890982113125  1.0000
  H   H18       1.0  0.45161689413377815  0.7956077798320962  0.2760111330057526  1.0000
  H   H19       1.0  0.8434800003287606  0.31547597605159444  0.8436641646360387  1.0000
  H   H20       1.0  0.15652003533481462  0.6845241748838689  0.1563360685406892  1.0000
  H   H21       1.0  0.13108367061817458  0.2844615309876772  0.9351195716810993  1.0000
  H   H22       1.0  0.8689117611947734  0.7155361786275519  0.0648798186495085  1.0000
  H   H23       1.0  0.3264793857092838  0.11965717197737279  0.9749831846395907  1.0000
  H   H24       1.0  0.6735215955392844  0.8803411124757761  0.025015355131579004  1.0000
  H   H25       1.0  0.3779271824190714  0.8598603944084005  0.9368337729923084  1.0000
  H   H26       1.0  0.6220768433148721  0.14013932201660137  0.0631656097502784  1.0000
  H   H27       1.0  0.13570661550616583  0.6523097894351364  0.8203328712835186  1.0000
  H   H28       1.0  0.864294598387403  0.34768934620846886  0.1796673583498034  1.0000
  C   C1        1.0  0.2864676012335607  0.40556347739244797  0.5617353535195377  1.0000
  C   C2        1.0  0.7135307587422659  0.5944352385994164  0.4382640348514144  1.0000
  C   C3        1.0  0.21671030839537053  0.28142761444865266  0.5988069959101736  1.0000
  C   C4        1.0  0.7832880515804559  0.7185711015432048  0.40119239246077854  1.0000
  C   C5        1.0  0.011276361454214585  0.22329765832899534  0.5644519165273678  1.0000
  C   C6        1.0  0.9887207460464823  0.7767014862298395  0.43554831860900833  1.0000
  C   C7        1.0  0.8927467757784908  0.3428892286029565  0.6127664204539157  1.0000
  C   C8        1.0  0.10725158419733558  0.6571094873889078  0.3872329679170363  1.0000
  C   C9        1.0  0.5737564090764664  0.5710547457025114  0.8838948861573712  1.0000
  C   C10       1.0  0.42624362658710874  0.42894540523295177  0.1161053470193565  1.0000
  C   C11       1.0  0.4747115562819033  0.5605316241333042  0.9828739654514608  1.0000
  C   C12       1.0  0.5252868036939161  0.43946709185856037  0.0171254229194915  1.0000
  C   C13       1.0  0.48211215906173527  0.8339764553197354  0.6538051516636898  1.0000
  C   C14       1.0  0.5178901239924585  0.16602816751968413  0.3461959314459477  1.0000
  C   C15       1.0  0.4450988317422571  0.9709557630103022  0.6586691789980037  1.0000
  C   C16       1.0  0.5549009712763181  0.029043536734704337  0.3413293643165645  1.0000
  C   C17       1.0  0.5701667532764958  0.0959712348778794  0.7183785033698484  1.0000
  C   C18       1.0  0.429834044657575  0.9040329653380538  0.2816217366430607  1.0000
  C   C19       1.0  0.7340412328027027  0.08290771557759051  0.7724008022043662  1.0000
  C   C20       1.0  0.2659601716584916  0.9170924323861271  0.227599429138003  1.0000
  C   C21       1.0  0.8704145727845257  0.20741415959580675  0.8361376653767537  1.0000
  C   C22       1.0  0.1295807499590467  0.7925900525071014  0.1638625819735751  1.0000
  C   C23       1.0  0.028066278467868182  0.18969335682805163  0.885594612596492  1.0000
  C   C24       1.0  0.9719377571756952  0.8103054506127376  0.114408989674331  1.0000
  C   C25       1.0  0.06316237990403548  0.04708532970073518  0.8738153296165905  1.0000
  C   C26       1.0  0.9368345370290357  0.9529128025379804  0.1261849038107385  1.0000
  C   C27       1.0  0.22587689610531206  0.02477925876894441  0.9224728569898062  1.0000
  C   C28       1.0  0.774123637016011  0.975223342401982  0.0775282245360884  1.0000
  C   C29       1.0  0.25277486291535917  0.883619039956528  0.9043454475305097  1.0000
  C   C30       1.0  0.7472292370637134  0.11638126319336099  0.09565309199004451  1.0000
  C   C31       1.0  0.11651228458232046  0.765357658924813  0.8389717085327035  1.0000
  C   C32       1.0  0.883489194123996  0.23464307576379884  0.1610276795876331  1.0000
  C   C33       1.0  0.9310543800986223  0.9212509252380201  0.8105794573162726  1.0000
  C   C34       1.0  0.06894976195782479  0.07874921678221367  0.18942077035739396  1.0000
  C   C35       1.0  0.762401377874987  0.9397755174438985  0.7606181450281396  1.0000
  C   C36       1.0  0.2376005982890774  0.06022766748017007  0.2393820914413709  1.0000
  N   N1        1.0  0.6363999793635244  0.8180292129905238  0.7022971563024568  1.0000
  N   N2        1.0  0.36360119245266986  0.18197008378274399  0.2977013851777599  1.0000
  N   N3        1.0  0.9588062406655382  0.7824499500986305  0.7942625825020854  1.0000
  N   N4        1.0  0.04119512171828889  0.2175503589947496  0.20573596068717848  1.0000
  O   O1        1.0  0.4196835967997359  0.5031006027205862  0.62110741524981  1.0000
  O   O2        1.0  0.5803162482962065  0.49689853589475774  0.3788928162178635  1.0000
  O   O3        1.0  0.21150268746473694  0.4039188315840078  0.4710970545141748  1.0000
  O   O4        1.0  0.7884956725110897  0.5960798844078566  0.5289023338567773  1.0000
  O   O5        1.0  0.9695750137628635  0.46912923783607136  0.6845914752611506  1.0000
  O   O6        1.0  0.030424715010589392  0.5308694751840477  0.3154079112754431  1.0000
  O   O7        1.0  0.7207525787849464  0.319554241811545  0.5817774347817917  1.0000
  O   O8        1.0  0.2792472663110033  0.6804448968038058  0.4182227966858818  1.0000
  O   O9        1.0  0.6475656729708845  0.4632516240462364  0.8192950161759639  1.0000
  O   O10       1.0  0.3524357314903099  0.5367485239174882  0.18070521516640528  1.0000
  O   O11       1.0  0.5798197097950961  0.6875404348265802  0.8641333020840847  1.0000
  O   O12       1.0  0.4201800189783498  0.3124582781935317  0.135866084452509  1.0000
