data_image0
_chemical_formula_structural       H16Pb2C20I4N4O4
_chemical_formula_sum              "H16 Pb2 C20 I4 N4 O4"
_cell_length_a       8.598800937561466
_cell_length_b       9.507473101189095
_cell_length_c       10.275677431564255
_cell_angle_alpha    112.45899888721759
_cell_angle_beta     114.74273502479276
_cell_angle_gamma    89.94630724776732

_space_group_name_H-M_alt    "P 1"
_space_group_IT_number       1

loop_
  _space_group_symop_operation_xyz
  'x, y, z'

loop_
  _atom_site_type_symbol
  _atom_site_label
  _atom_site_symmetry_multiplicity
  _atom_site_fract_x
  _atom_site_fract_y
  _atom_site_fract_z
  _atom_site_occupancy
  H   H1        1.0  0.39120770531558685  0.3649894153339304  0.40160752756056434  1.0000
  H   H2        1.0  0.9899024869367564  0.13507991738782013  0.5986078804230316  1.0000
  H   H3        1.0  0.6088407996504939  0.6350064368934909  0.598367647263039  1.0000
  H   H4        1.0  0.01009122869909613  0.864921499108483  0.40141838189008866  1.0000
  H   H5        1.0  0.24193055894948398  0.5560054623932587  0.5338742492770834  1.0000
  H   H6        1.0  0.7086432740501107  0.9442479476781497  0.4661043878560916  1.0000
  H   H7        1.0  0.758226544041733  0.44412159848052807  0.4661067624485184  1.0000
  H   H8        1.0  0.2912531594958664  0.0559209769080127  0.5338935339032175  1.0000
  H   H9        1.0  0.9381750685471812  0.5804827346107045  0.36391611215277897  1.0000
  H   H10       1.0  0.5746613643142169  0.9195222881641738  0.6358073077636346  1.0000
  H   H11       1.0  0.061942318166757084  0.41955209708373786  0.6361514305489777  1.0000
  H   H12       1.0  0.4252692036549417  0.08054897939531  0.3641986641901055  1.0000
  H   H13       1.0  0.8025583280922247  0.4152882964542001  0.07331732769695516  1.0000
  H   H14       1.0  0.7295916289072011  0.0842786974734722  0.9265714773188023  1.0000
  H   H15       1.0  0.19740161217115568  0.5846978646440562  0.926740405752376  1.0000
  H   H16       1.0  0.2704289608664112  0.9156923656431316  0.07347953203974086  1.0000
  Pb  Pb1       1.0  0.4364291232586055  0.24992237237263737  5.962387110260114e-05  1.0000
  Pb  Pb2       1.0  0.5634824705938825  0.7500391888149949  0.9998216729806868  1.0000
  C   C1        1.0  0.26188578364740056  0.38392857862674384  0.33742828744672676  1.0000
  C   C2        1.0  0.9248277587400862  0.11596558109636851  0.6627111974620518  1.0000
  C   C3        1.0  0.7381829266124315  0.6160848695677856  0.6625134876478923  1.0000
  C   C4        1.0  0.07517447923367371  0.8839800738914079  0.33731266843344077  1.0000
  C   C5        1.0  0.1758195350511612  0.48663060961936816  0.406631460861547  1.0000
  C   C6        1.0  0.7696938303423977  0.013297264242396502  0.5933643792563287  1.0000
  C   C7        1.0  0.8242873057129215  0.5133988923562426  0.5933468180629475  1.0000
  C   C8        1.0  0.23024227560335928  0.9867518843842049  0.40664922544208076  1.0000
  C   C9        1.0  0.008590176071415129  0.4995946660133442  0.31325561559742  1.0000
  C   C10       1.0  0.6957981789775544  0.00020996949898940105  0.6866083659673876  1.0000
  C   C11       1.0  0.9914596103259468  0.5003881686414999  0.6867640054420149  1.0000
  C   C12       1.0  0.3041207463981621  0.9998311943318826  0.31337889767836913  1.0000
  C   C13       1.0  0.9312451174914212  0.4062995788569879  0.15151744371124204  1.0000
  C   C14       1.0  0.7801082744915743  0.0932863153559822  0.848408340810117  1.0000
  C   C15       1.0  0.06870967250579699  0.5936390580160732  0.8485195486273653  1.0000
  C   C16       1.0  0.21983717110416012  0.9067349949308434  0.1515956259936998  1.0000
  C   C17       1.0  0.019599519914251594  0.30336467279739315  0.08440404584430176  1.0000
  C   C18       1.0  0.9354256678950319  0.1962351475517607  0.9156770244060936  1.0000
  C   C19       1.0  0.9803748845681707  0.6966124045178147  0.9156126397641982  1.0000
  C   C20       1.0  0.06456823379423329  0.8037314577119332  0.08434073833909388  1.0000
  I   I1        1.0  0.485501481239332  0.3914394155751423  0.7571509535315214  1.0000
  I   I2        1.0  0.7281480122655494  0.10853231288822228  0.24277672764956282  1.0000
  I   I3        1.0  0.5146035941350318  0.6084334987111076  0.24277749092779266  1.0000
  I   I4        1.0  0.27175877642675766  0.8912961428751841  0.7572275241810968  1.0000
  N   N1        1.0  0.18473374463025036  0.2940619416416154  0.17945342925019495  1.0000
  N   N2        1.0  0.005464108674992494  0.20577934686595253  0.8207165875767615  1.0000
  N   N3        1.0  0.81526521103045  0.705971088811651  0.8205266010707104  1.0000
  N   N4        1.0  0.9945211489022581  0.7941768311265419  0.17929638835754239  1.0000
  O   O1        1.0  0.2677186488424396  0.19261479241407636  0.11882489978685834  1.0000
  O   O2        1.0  0.14880168433212046  0.3074171961245966  0.8814980576928731  1.0000
  O   O3        1.0  0.7322982277844118  0.807448487257048  0.8811459023571899  1.0000
  O   O4        1.0  0.8512017337752622  0.6925401096390258  0.11851968209445819  1.0000
