data_image0
_chemical_formula_structural       Zn4H4C48N4Cl20O16F4
_chemical_formula_sum              "Zn4 H4 C48 N4 Cl20 O16 F4"
_cell_length_a       10.121975471051801
_cell_length_b       11.084921356136917
_cell_length_c       28.518768328255362
_cell_angle_alpha    90.10064048202219
_cell_angle_beta     89.13328743459833
_cell_angle_gamma    89.94609379113712

_space_group_name_H-M_alt    "P 1"
_space_group_IT_number       1

loop_
  _space_group_symop_operation_xyz
  'x, y, z'

loop_
  _atom_site_type_symbol
  _atom_site_label
  _atom_site_symmetry_multiplicity
  _atom_site_fract_x
  _atom_site_fract_y
  _atom_site_fract_z
  _atom_site_occupancy
  Zn  Zn1       1.0  0.6456699824753684  0.4892181204605492  0.4974473544567318  1.0000
  Zn  Zn2       1.0  0.36346825841467023  0.48775561101781034  0.4960027717899252  1.0000
  Zn  Zn3       1.0  0.35489630364183716  0.49179298935504784  0.11947701925507913  1.0000
  Zn  Zn4       1.0  0.6371230533789001  0.49004382631558474  0.12105539996142062  1.0000
  H   H1        1.0  0.27237161586786834  0.464846575479065  0.9714737325344276  1.0000
  H   H2        1.0  0.6976383092285515  0.49709882456522786  0.9738240898336629  1.0000
  H   H3        1.0  0.30281692622249773  0.49642576697677754  0.6431110572963378  1.0000
  H   H4        1.0  0.7282701023179641  0.46558747738060186  0.6456843163852568  1.0000
  C   C1        1.0  0.48746395746698573  0.7208860909152222  0.49925716540279563  1.0000
  C   C2        1.0  0.5177239937844432  0.4757858851318275  0.5863671934058772  1.0000
  C   C3        1.0  0.49060131873100227  0.25631516273296745  0.4945514399714597  1.0000
  C   C4        1.0  0.5246361761172126  0.5308458398320113  0.4091654408394945  1.0000
  C   C5        1.0  0.5128164213770177  0.7232345492054008  0.11765337609070772  1.0000
  C   C6        1.0  0.48309728938294677  0.47641654022594787  0.030663099862437107  1.0000
  C   C7        1.0  0.5111275610965577  0.2587153663136803  0.1228839420314927  1.0000
  C   C8        1.0  0.47431507993648847  0.5337981432740406  0.20791953235144695  1.0000
  C   C9        1.0  0.9339856615249785  0.4282485115707785  0.4647667199405206  1.0000
  C   C10       1.0  0.0720310026957662  0.5496096411849222  0.5302464068916991  1.0000
  C   C11       1.0  0.0740259968806498  0.42985351925110377  0.4640011191373149  1.0000
  C   C12       1.0  0.9321543851064646  0.5525115756442317  0.5297825054785933  1.0000
  C   C13       1.0  0.48914600656147655  0.11874067755847048  0.49605217236948823  1.0000
  C   C14       1.0  0.48704065047788697  0.8579657429021169  0.4962291199431449  1.0000
  C   C15       1.0  0.36950754146099024  0.05264785140928299  0.4951102955909691  1.0000
  C   C16       1.0  0.6063673320756634  0.9237218994198314  0.49352314081661336  1.0000
  C   C17       1.0  0.368603398734983  0.9252608634603516  0.49747217065048943  1.0000
  C   C18       1.0  0.607444414406089  0.050784308212634195  0.4974775022138971  1.0000
  C   C19       1.0  0.484786278359479  0.4806144228050896  0.9781997979936394  1.0000
  C   C20       1.0  0.36677150497484934  0.47537723364951745  0.953221814314503  1.0000
  C   C21       1.0  0.3723285597768252  0.48436649343724264  0.904837018480258  1.0000
  C   C22       1.0  0.491867678703457  0.49683871855965844  0.8791083415316623  1.0000
  C   C23       1.0  0.6076188592668927  0.5009652790215428  0.9061013136687636  1.0000
  C   C24       1.0  0.6061133889730783  0.4934937005691679  0.9544225841768323  1.0000
  C   C25       1.0  0.4966450315578469  0.5017555566842943  0.8298934433242096  1.0000
  C   C26       1.0  0.5031332965553473  0.5018954487539062  0.7871685298253299  1.0000
  C   C27       1.0  0.5081236336957602  0.4971477566147938  0.7379443132345926  1.0000
  C   C28       1.0  0.3924835563410909  0.5008210272587802  0.7108842054109205  1.0000
  C   C29       1.0  0.39430245786853396  0.4932143848607354  0.6625557064695755  1.0000
  C   C30       1.0  0.5158085198119479  0.48056786857424083  0.6388363867987722  1.0000
  C   C31       1.0  0.6337346243166024  0.4759366390045868  0.6638864705219947  1.0000
  C   C32       1.0  0.627865481692929  0.48515869526748645  0.7122739448674553  1.0000
  C   C33       1.0  0.5148429447879437  0.5695724538056837  0.3583399388764122  1.0000
  C   C34       1.0  0.48324471988611606  0.5714078393372617  0.2589473672633673  1.0000
  C   C35       1.0  0.6254896957646989  0.5811164960826217  0.32790022611563074  1.0000
  C   C36       1.0  0.37243207963536656  0.5804467501761224  0.2894420208670924  1.0000
  C   C37       1.0  0.6085316349535005  0.5894646298291235  0.27905054507759536  1.0000
  C   C38       1.0  0.3892380556022914  0.5868673460386091  0.33835113859237964  1.0000
  C   C39       1.0  0.0667210619700995  0.4307463102859116  0.1518283006591119  1.0000
  C   C40       1.0  0.9283354560023512  0.5521127095798235  0.08653169009145503  1.0000
  C   C41       1.0  0.92675034703543  0.4338122368133953  0.15299991577543184  1.0000
  C   C42       1.0  0.06825820821369892  0.5541140195053058  0.08672615159011342  1.0000
  C   C43       1.0  0.5121049781835297  0.12112175200209661  0.12143448508133763  1.0000
  C   C44       1.0  0.5133555515804815  0.8603396481013874  0.12075672168214173  1.0000
  C   C45       1.0  0.6312256087004753  0.05449711838925  0.12370866734465123  1.0000
  C   C46       1.0  0.3941303440639884  0.9267441859269638  0.12245138540230023  1.0000
  C   C47       1.0  0.6320435942614892  0.9271991492078514  0.12079183143026033  1.0000
  C   C48       1.0  0.39381447808283815  0.05381751858197959  0.11862868982682781  1.0000
  N   N1        1.0  0.8653575512113604  0.4906347943289191  0.49733424338963783  1.0000
  N   N2        1.0  0.1410583850271152  0.4897217433499534  0.49701057465656373  1.0000
  N   N3        1.0  0.13520402436759577  0.4922981790088699  0.11910635370303882  1.0000
  N   N4        1.0  0.85951971144938  0.49325415104203757  0.11998649262644531  1.0000
  Cl  Cl1       1.0  0.8517727180878011  0.34635751665742726  0.42470906402864733  1.0000
  Cl  Cl2       1.0  0.15286309906433357  0.6220526038036596  0.5733389363235375  1.0000
  Cl  Cl3       1.0  0.1581175273224886  0.35592442251217443  0.4213043760988243  1.0000
  Cl  Cl4       1.0  0.8482666993721254  0.6351720866760714  0.5702016900325191  1.0000
  Cl  Cl5       1.0  0.21766723232632756  0.1207678167208073  0.490457847974831  1.0000
  Cl  Cl6       1.0  0.7551783948783138  0.8528973413113903  0.4829844056912834  1.0000
  Cl  Cl7       1.0  0.21665853444046945  0.8568507029286536  0.502411957632255  1.0000
  Cl  Cl8       1.0  0.7584389808459235  0.11756142794524752  0.5063000537159255  1.0000
  Cl  Cl9       1.0  0.7842776370024894  0.5860201155756497  0.3483324353725905  1.0000
  Cl  Cl10      1.0  0.21371349256222058  0.584762015727101  0.2689439219438725  1.0000
  Cl  Cl11      1.0  0.7417487340318658  0.6302286704403385  0.24457918025454728  1.0000
  Cl  Cl12      1.0  0.2550883476841435  0.624418891370034  0.3730322179598886  1.0000
  Cl  Cl13      1.0  0.14896181357885038  0.3480522967616437  0.19155709043883465  1.0000
  Cl  Cl14      1.0  0.8471627100453462  0.6248059069407574  0.043635153181618605  1.0000
  Cl  Cl15      1.0  0.8429294862001627  0.36256584378202217  0.1963084059819309  1.0000
  Cl  Cl16      1.0  0.1520582772298411  0.6356509854488267  0.04608553662915681  1.0000
  Cl  Cl17      1.0  0.7821524776521116  0.12227579413854527  0.1309363914760553  1.0000
  Cl  Cl18      1.0  0.24420967195220558  0.8569695687246437  0.13154156590643853  1.0000
  Cl  Cl19      1.0  0.7843481848815231  0.85870243221747  0.11688064426674323  1.0000
  Cl  Cl20      1.0  0.24408146645680517  0.1215630226983819  0.10829272884712542  1.0000
  O   O1        1.0  0.5860865650004142  0.6703370607236891  0.5174138743815889  1.0000
  O   O2        1.0  0.3866541295826663  0.6661600172616174  0.48340136740518613  1.0000
  O   O3        1.0  0.4108024207975162  0.503119481545873  0.5662575978681802  1.0000
  O   O4        1.0  0.626482117958183  0.4467709888352687  0.5658634236665776  1.0000
  O   O5        1.0  0.384108724059672  0.3093697126140427  0.5069600550751971  1.0000
  O   O6        1.0  0.5951289916005322  0.30897781940039687  0.48072466562389604  1.0000
  O   O7        1.0  0.628960989788446  0.5561331036337477  0.4316433413750573  1.0000
  O   O8        1.0  0.42807354739914416  0.47035620729992184  0.4252695324797458  1.0000
  O   O9        1.0  0.414202071567658  0.6725367684559558  0.09953297703398793  1.0000
  O   O10       1.0  0.613679730608702  0.6684774310211736  0.133457857726988  1.0000
  O   O11       1.0  0.5900523455796217  0.5037979518491511  0.05074765312210162  1.0000
  O   O12       1.0  0.3743710693032085  0.4478719961523154  0.051207704600884106  1.0000
  O   O13       1.0  0.6178746340902136  0.311170092429677  0.11051309814089193  1.0000
  O   O14       1.0  0.40655707179947603  0.3118653090075014  0.1365118985649119  1.0000
  O   O15       1.0  0.37012529349387074  0.559059884651333  0.18535373577846315  1.0000
  O   O16       1.0  0.5714985428340996  0.4739509788167169  0.1917741684997054  1.0000
  F   F1        1.0  0.7248441518260974  0.5127721114788956  0.8830101899183163  1.0000
  F   F2        1.0  0.25856735239938894  0.48051210468949523  0.8804301657518965  1.0000
  F   F3        1.0  0.741532781232614  0.48196111673163944  0.7367449627455969  1.0000
  F   F4        1.0  0.27507131187581996  0.5123072206146445  0.7339195585494167  1.0000
