data_image0
_chemical_formula_structural       Zr6H50C62O36
_chemical_formula_sum              "Zr6 H50 C62 O36"
_cell_length_a       14.778798730481617
_cell_length_b       14.779353428100132
_cell_length_c       14.75581682387197
_cell_angle_alpha    60.180009869024055
_cell_angle_beta     60.005413567965874
_cell_angle_gamma    59.96595651207925

_space_group_name_H-M_alt    "P 1"
_space_group_IT_number       1

loop_
  _space_group_symop_operation_xyz
  'x, y, z'

loop_
  _atom_site_type_symbol
  _atom_site_label
  _atom_site_symmetry_multiplicity
  _atom_site_fract_x
  _atom_site_fract_y
  _atom_site_fract_z
  _atom_site_occupancy
  Zr  Zr1       1.0  0.8749840791072147  0.8847495675520494  0.620728400274821  1.0000
  Zr  Zr2       1.0  0.11688982640943384  0.1191304726168951  0.3873807203744164  1.0000
  Zr  Zr3       1.0  0.11358401664479352  0.8809021181243893  0.6258035177200012  1.0000
  Zr  Zr4       1.0  0.8780410960658358  0.12358355592663638  0.3823395667586809  1.0000
  Zr  Zr5       1.0  0.11635194581342755  0.8826603975432407  0.3843859316948013  1.0000
  Zr  Zr6       1.0  0.8766840144968739  0.12140518019874968  0.6246565369273469  1.0000
  H   H1        1.0  0.08909196029071609  0.719599925301303  0.5957283542367122  1.0000
  H   H2        1.0  0.09370883924254512  0.0926544800900331  0.22167072216907968  1.0000
  H   H3        1.0  0.08858885430210255  0.0932294630345114  0.6037570924761368  1.0000
  H   H4        1.0  0.7136745971508419  0.10014307192277282  0.5955765126509149  1.0000
  H   H5        1.0  0.15820889159749657  0.5608203692851889  0.40700285727666596  1.0000
  H   H6        1.0  0.8208308166549901  0.4667686290034256  0.5675801285656733  1.0000
  H   H7        1.0  0.5838650069187851  0.1436114678402589  0.9100263399195966  1.0000
  H   H8        1.0  0.4159430085280322  0.8527380688772369  0.10545155513437279  1.0000
  H   H9        1.0  0.8232709399831464  0.08697003789325941  0.1399380531711928  1.0000
  H   H10       1.0  0.14492089769000688  0.8722689626075281  0.903500721246317  1.0000
  H   H11       1.0  0.6030921176908709  0.4249113401618987  0.35183551271466496  1.0000
  H   H12       1.0  0.40678007481589873  0.5957681838587876  0.6426119814975733  1.0000
  H   H13       1.0  0.9656798809459773  0.576578103387867  0.744482315279761  1.0000
  H   H14       1.0  0.996871856036208  0.23034824978535087  0.06916797097169096  1.0000
  H   H15       1.0  0.581769050071316  0.875361146289805  0.647753283820883  1.0000
  H   H16       1.0  0.41890754588872176  0.12030552943223685  0.3507651202192505  1.0000
  H   H17       1.0  0.27188871260551645  0.3987489053402984  0.3720767935188007  1.0000
  H   H18       1.0  0.22740778524234878  0.28209018208880127  0.43718025104117686  1.0000
  H   H19       1.0  0.21675107551536152  0.3744459712356802  0.3062526996531361  1.0000
  H   H20       1.0  0.7572038088595722  0.6563249483676971  0.6649946703174051  1.0000
  H   H21       1.0  0.7571120477365629  0.7491895335428185  0.5315381094815808  1.0000
  H   H22       1.0  0.7062735091970893  0.638013801798245  0.5905080106749099  1.0000
  H   H23       1.0  0.46006672496662304  0.23886934277888375  0.027173581778200256  1.0000
  H   H24       1.0  0.3226168317167364  0.23378950448927335  0.09172698296520572  1.0000
  H   H25       1.0  0.41266874722459335  0.15769970905393654  0.16900376136131004  1.0000
  H   H26       1.0  0.5423565324035382  0.7553184819926317  0.9903103252995606  1.0000
  H   H27       1.0  0.5903595236269437  0.8356181462548451  0.8482792398950066  1.0000
  H   H28       1.0  0.6795819313119511  0.7610998127996498  0.9262326667105542  1.0000
  H   H29       1.0  0.777275337886522  0.19150928488202382  0.9084728857801353  1.0000
  H   H30       1.0  0.7496836527575116  0.07106965480047506  0.9513491325102804  1.0000
  H   H31       1.0  0.7081938877353268  0.1310517181384939  0.0513114285894433  1.0000
  H   H32       1.0  0.25142955212010065  0.8027645748068295  0.005419932848397653  1.0000
  H   H33       1.0  0.22990407334987142  0.8859471089458283  0.07467691349658888  1.0000
  H   H34       1.0  0.18091764447299846  0.7733942440592189  0.15119266074356114  1.0000
  H   H35       1.0  0.4853789185847504  0.548240553760657  0.2570731110170428  1.0000
  H   H36       1.0  0.34333727499257805  0.598329692397414  0.3376346309019454  1.0000
  H   H37       1.0  0.4227250309445268  0.6858303326421265  0.2619828167076079  1.0000
  H   H38       1.0  0.5267139111442419  0.4754681777468833  0.7349632507439806  1.0000
  H   H39       1.0  0.5842601017178025  0.3367447125805756  0.7346622517849397  1.0000
  H   H40       1.0  0.6680614568075498  0.41997556442476747  0.656269892997649  1.0000
  H   H41       1.0  0.4539102052242611  0.7906582139852462  0.7505057596740556  1.0000
  H   H42       1.0  0.31827970951484735  0.8662527834859832  0.7398748172588229  1.0000
  H   H43       1.0  0.4110041294777533  0.7677853885417393  0.6721422871595877  1.0000
  H   H44       1.0  0.5750818500578845  0.23587304627805145  0.32304280622531684  1.0000
  H   H45       1.0  0.6853457186797628  0.13285589589507657  0.2676358170041269  1.0000
  H   H46       1.0  0.558232452362205  0.19283007248100156  0.24070059040530375  1.0000
  H   H47       1.0  0.07475975949054003  0.4017018008550012  0.20928210788105878  1.0000
  H   H48       1.0  0.06837475507519027  0.7109243406003289  0.9043893351676003  1.0000
  H   H49       1.0  0.9625937229482207  0.46637778911664185  0.6697983086812157  1.0000
  H   H50       1.0  0.9906215444674304  0.23467081599193318  0.8301073012870007  1.0000
  C   C1        1.0  0.9872667592956579  0.7067940547977829  0.49487841033894153  1.0000
  C   C2        1.0  0.30535095294214193  0.9999589002468385  0.20485136446233562  1.0000
  C   C3        1.0  0.996631589431232  0.31020095438363887  0.4970026754191253  1.0000
  C   C4        1.0  0.6943871392996146  0.9968080600010581  0.8104304062377424  1.0000
  C   C5        1.0  0.9911293432537821  0.6965189605027434  0.8093795495779688  1.0000
  C   C6        1.0  0.6937581356208754  0.0070648695909911  0.49473095326016653  1.0000
  C   C7        1.0  0.9990434701860026  0.30549065096195  0.19686174301183715  1.0000
  C   C8        1.0  0.3035653259702471  0.9923326949032971  0.5069242572745553  1.0000
  C   C9        1.0  0.3036460972306189  0.7008517044092102  0.4994807422687515  1.0000
  C   C10       1.0  0.9852023991070668  0.99256581439456  0.8194096043168244  1.0000
  C   C11       1.0  0.7002731898136292  0.3136564862825397  0.5003088212555937  1.0000
  C   C12       1.0  0.9938064743350952  0.9901628635485337  0.20689356918878615  1.0000
  C   C13       1.0  0.9966405350770916  0.41548955626529266  0.4879773719037531  1.0000
  C   C14       1.0  0.982985807053588  0.6104501670134187  0.48977416391745277  1.0000
  C   C15       1.0  0.09507873092016453  0.44087192737848824  0.4388149413415689  1.0000
  C   C16       1.0  0.883664099035734  0.5876807899836083  0.5342504388415394  1.0000
  C   C17       1.0  0.08440119939193376  0.5387761028404229  0.44182714723301336  1.0000
  C   C18       1.0  0.8945835433340079  0.489126874326509  0.5319809694428557  1.0000
  C   C19       1.0  0.4063413178653549  0.002486331313626513  0.10371279411033647  1.0000
  C   C20       1.0  0.5947429774175037  0.9927986255023743  0.912855027191398  1.0000
  C   C21       1.0  0.45255432845442567  0.0877758419520093  0.04970380258078681  1.0000
  C   C22       1.0  0.5487611043747127  0.9072735862437397  0.9670359804214783  1.0000
  C   C23       1.0  0.545900533764744  0.07953525307181082  0.9548518738618057  1.0000
  C   C24       1.0  0.45482806328141867  0.9160336050075985  0.06140032064318767  1.0000
  C   C25       1.0  0.9782078525512861  0.9848664093934122  0.9273262028440639  1.0000
  C   C26       1.0  0.9912739101260826  0.9784078655229181  0.1135312500934449  1.0000
  C   C27       1.0  0.8827053696110598  0.04387554784740653  0.9961950246394053  1.0000
  C   C28       1.0  0.08451950684643346  0.9129566739951258  0.04905028232473547  1.0000
  C   C29       1.0  0.8932999089142016  0.03875200618771397  0.08758414309544807  1.0000
  C   C30       1.0  0.07433351093389003  0.9192016072953284  0.956903021376533  1.0000
  C   C31       1.0  0.40837914579288537  0.603488577451863  0.4935481346764731  1.0000
  C   C32       1.0  0.6004810880711918  0.4162138795514851  0.5017853987196261  1.0000
  C   C33       1.0  0.46311441876699194  0.556936434452034  0.40789928936159475  1.0000
  C   C34       1.0  0.5468188755259719  0.46388650419098126  0.5864447073396518  1.0000
  C   C35       1.0  0.558323646730976  0.4639335386531514  0.41551466487835836  1.0000
  C   C36       1.0  0.45159870531505675  0.5569000500995714  0.5788022325650457  1.0000
  C   C37       1.0  0.000638148370647669  0.5911458004759212  0.9029295671409016  1.0000
  C   C38       1.0  0.9852084922806627  0.5005179613832952  0.9067280672019108  1.0000
  C   C39       1.0  0.03272034964736288  0.5793481087837123  0.9840247503371058  1.0000
  C   C40       1.0  0.9747372241453791  0.5013938989803536  0.8155851703624748  1.0000
  C   C41       1.0  0.9777999011592444  0.406884511891903  0.8153124105931866  1.0000
  C   C42       1.0  0.00822439454543665  0.398247164590714  0.0909414093462857  1.0000
  C   C43       1.0  0.03577677262666165  0.4819836385093126  0.079607452568311  1.0000
  C   C44       1.0  0.9914821718260001  0.4017168046169035  0.0011612542118017862  1.0000
  C   C45       1.0  0.9920335969558639  0.3066502099403795  0.9989900616652676  1.0000
  C   C46       1.0  0.9889063169222537  0.307791067580219  0.9067116994331811  1.0000
  C   C47       1.0  0.4057212022515984  0.9903944476325891  0.5067452195224363  1.0000
  C   C48       1.0  0.5943446052852083  0.006099344354410705  0.4922909533099896  1.0000
  C   C49       1.0  0.45087147310666603  0.9178349421720001  0.5935100941143076  1.0000
  C   C50       1.0  0.5499465605017806  0.07772793594427446  0.4049447981036707  1.0000
  C   C51       1.0  0.5444590412890733  0.9289666173968529  0.5827597014124848  1.0000
  C   C52       1.0  0.4561905946701331  0.06675580725610802  0.4158037915000037  1.0000
  C   C53       1.0  0.20883466433333106  0.369905849141013  0.3864349746804763  1.0000
  C   C54       1.0  0.7700259963115389  0.661786807007289  0.582569283912868  1.0000
  C   C55       1.0  0.4096249285274709  0.18490724211346796  0.08612125491099928  1.0000
  C   C56       1.0  0.5926172987163131  0.8094621674425899  0.9312683927689136  1.0000
  C   C57       1.0  0.7735217493657559  0.1126067986992113  0.9760305500123394  1.0000
  C   C58       1.0  0.1926706956010236  0.8400282668966953  0.07101121016435025  1.0000
  C   C59       1.0  0.42688131258628936  0.5993806230148664  0.31086253701245425  1.0000
  C   C60       1.0  0.5832518056507467  0.4220395391798919  0.6832388182481496  1.0000
  C   C61       1.0  0.4061404582322158  0.8311004170171971  0.6946027753189766  1.0000
  C   C62       1.0  0.5948824714344454  0.16396463260921487  0.30332495254683783  1.0000
  O   O1        1.0  0.9118000589775478  0.744788838175637  0.5736284519280802  1.0000
  O   O2        1.0  0.2628907632601667  0.07599759543152375  0.2468100143201255  1.0000
  O   O3        1.0  0.07474305415102116  0.2656304101090969  0.4235809401995921  1.0000
  O   O4        1.0  0.7352308327348144  0.9225732374554383  0.7666780162179735  1.0000
  O   O5        1.0  0.06217426086347928  0.7431869247545035  0.7750421903372241  1.0000
  O   O6        1.0  0.7325864716253819  0.08529783664531727  0.42159609669607073  1.0000
  O   O7        1.0  0.9234204304605884  0.2647877741114471  0.23606087021239844  1.0000
  O   O8        1.0  0.26107911518690236  0.9176419982494722  0.5835837653497862  1.0000
  O   O9        1.0  0.2611123216200116  0.7412047729420409  0.42455791963802614  1.0000
  O   O10       1.0  0.9140426902076799  0.0742247065364696  0.7740979140492072  1.0000
  O   O11       1.0  0.7389907225042196  0.2691252715235991  0.5790995938514101  1.0000
  O   O12       1.0  0.07403303809051918  0.9202371925260877  0.24428105033710784  1.0000
  O   O13       1.0  0.06524961316750215  0.9187073089355882  0.7760801604332811  1.0000
  O   O14       1.0  0.7395985666038885  0.2751344955483292  0.42239262640696756  1.0000
  O   O15       1.0  0.9179145445679285  0.07030699992541409  0.24272723502681978  1.0000
  O   O16       1.0  0.2616165758872242  0.7371025116491127  0.5797917599221522  1.0000
  O   O17       1.0  0.9160730324548829  0.7365309982652876  0.7677515303638104  1.0000
  O   O18       1.0  0.26372104841771465  0.07062276617661215  0.43059258017431995  1.0000
  O   O19       1.0  0.0681471686292384  0.2720327223830097  0.24550705343669682  1.0000
  O   O20       1.0  0.7332311077804264  0.9294283804749883  0.571559055794232  1.0000
  O   O21       1.0  0.732250518169849  0.07477244126194914  0.7716912653941107  1.0000
  O   O22       1.0  0.06859015632101537  0.7411613029095959  0.4231447147322598  1.0000
  O   O23       1.0  0.26624807279727475  0.9231730481016173  0.24267117650643402  1.0000
  O   O24       1.0  0.9204882244787029  0.2714325972989686  0.5765361706361959  1.0000
  O   O25       1.0  0.7940567631265413  0.07234217858702861  0.5694437540301891  1.0000
  O   O26       1.0  0.06278477211822069  0.06763699944790605  0.5747929973345477  1.0000
  O   O27       1.0  0.0653290922118117  0.06922871972162176  0.30194462243362347  1.0000
  O   O28       1.0  0.06154248566029727  0.7997929010513903  0.5714845362175396  1.0000
  O   O29       1.0  0.14484309258394026  0.9509180542031714  0.456709332837292  1.0000
  O   O30       1.0  0.9464188499210594  0.9542328777066873  0.45268021102402417  1.0000
  O   O31       1.0  0.9479528793287958  0.14982946692154558  0.4552390559231013  1.0000
  O   O32       1.0  0.9449462836491663  0.9526496040295457  0.6525729565285233  1.0000
  O   O33       1.0  0.06387964166442837  0.4783783828868664  0.1559774681677908  1.0000
  O   O34       1.0  0.0596185843110176  0.6564513502599144  0.9803381379772204  1.0000
  O   O35       1.0  0.9729465928182391  0.39631697227446266  0.7307436891792706  1.0000
  O   O36       1.0  0.9972002542839462  0.2143353989918711  0.9011480350728931  1.0000
