data_image0
_chemical_formula_structural       Cd2H44C32S4N8O12
_chemical_formula_sum              "Cd2 H44 C32 S4 N8 O12"
_cell_length_a       7.82185353208224
_cell_length_b       8.83069401402959
_cell_length_c       13.92816140903042
_cell_angle_alpha    90.0000038469503
_cell_angle_beta     90.000232715717
_cell_angle_gamma    103.27051988589459

_space_group_name_H-M_alt    "P 1"
_space_group_IT_number       1

loop_
  _space_group_symop_operation_xyz
  'x, y, z'

loop_
  _atom_site_type_symbol
  _atom_site_label
  _atom_site_symmetry_multiplicity
  _atom_site_fract_x
  _atom_site_fract_y
  _atom_site_fract_z
  _atom_site_occupancy
  Cd  Cd1       1.0  0.9999998400771516  0.5000010018466196  0.9999996163167493  1.0000
  Cd  Cd2       1.0  0.4999997506521011  0.4999997854035312  0.4999998132198513  1.0000
  H   H1        1.0  0.15865616784377318  0.42766955285051705  0.5898813494317138  1.0000
  H   H2        1.0  0.34134295807974274  0.5723301174560758  0.08988089383667129  1.0000
  H   H3        1.0  0.8413433334604293  0.5723300179565527  0.41011827700799586  1.0000
  H   H4        1.0  0.6586565432244598  0.4276694533509937  0.9101187326030383  1.0000
  H   H5        1.0  0.814066212575014  0.3090129208771088  0.5066449794135934  1.0000
  H   H6        1.0  0.685932161303981  0.690987039077896  0.0066441732634033  1.0000
  H   H7        1.0  0.18593359326624176  0.6909878134088882  0.49335464702648585  1.0000
  H   H8        1.0  0.31406764454001745  0.3090136952086978  0.9933561711465231  1.0000
  H   H9        1.0  0.8660858280815233  0.06459169428817547  0.583694686687963  1.0000
  H   H10       1.0  0.6339144127025449  0.935408391269213  0.0836944894596812  1.0000
  H   H11       1.0  0.1339152555171879  0.9354090372545655  0.4163056577234343  1.0000
  H   H12       1.0  0.36608667089616637  0.06459234027353489  0.9163058549517088  1.0000
  H   H13       1.0  0.6224973621851503  0.8969297114131147  0.6763886408937408  1.0000
  H   H14       1.0  0.8775045605850523  0.10306936232650087  0.17638824898027386  1.0000
  H   H15       1.0  0.37750341687651456  0.10306985665069847  0.3236117035172796  1.0000
  H   H16       1.0  0.12249749623406098  0.8969302029940704  0.8236128134020575  1.0000
  H   H17       1.0  0.33135792551980353  0.9708871345211986  0.6859473601562556  1.0000
  H   H18       1.0  0.16864351724424154  0.029113856541698593  0.18594576969907445  1.0000
  H   H19       1.0  0.6686418803296874  0.029113599766588994  0.3140544201933793  1.0000
  H   H20       1.0  0.831357566351727  0.970886875000445  0.8140538567424613  1.0000
  H   H21       1.0  0.18370659947782997  0.19219428007301784  0.530982716409639  1.0000
  H   H22       1.0  0.3162936583812197  0.8078064528586777  0.0309829310409029  1.0000
  H   H23       1.0  0.8162957618728511  0.80780644872528  0.46901691003336765  1.0000
  H   H24       1.0  0.6837058429229828  0.19219311794839192  0.9690166953987998  1.0000
  H   H25       1.0  0.1612759483414266  0.15784126236848545  0.6567523411064614  1.0000
  H   H26       1.0  0.33872399344005544  0.8421596828081374  0.15675260841815938  1.0000
  H   H27       1.0  0.8387228842821701  0.8421606381402779  0.3432472853325237  1.0000
  H   H28       1.0  0.6612755078641469  0.1578398879989322  0.8432470180215503  1.0000
  H   H29       1.0  0.40360517178341127  0.3861452462579533  0.742399246552395  1.0000
  H   H30       1.0  0.09639767585338885  0.6138546726181101  0.24239895051488958  1.0000
  H   H31       1.0  0.5963959118125572  0.6138554852841905  0.2576003798891477  1.0000
  H   H32       1.0  0.9036018254508136  0.3861448981889523  0.7576006759248131  1.0000
  H   H33       1.0  0.18050991621566934  0.3890934594508052  0.7581218133601766  1.0000
  H   H34       1.0  0.3194917738856731  0.6109064883588357  0.2581213093595807  1.0000
  H   H35       1.0  0.8194895850885331  0.6109061113562645  0.24187781307953315  1.0000
  H   H36       1.0  0.6805080319555827  0.389094245927154  0.7418783170804985  1.0000
  H   H37       1.0  0.254855736414676  0.6716562353327048  0.6966801979663799  1.0000
  H   H38       1.0  0.24514451066501408  0.32834477635304876  0.1966795125237653  1.0000
  H   H39       1.0  0.7451440694293298  0.3283444989538891  0.30332014644355343  1.0000
  H   H40       1.0  0.7548565729336971  0.6716559551896989  0.8033208318876318  1.0000
  H   H41       1.0  0.47975218788253926  0.6586844706775421  0.690702637830327  1.0000
  H   H42       1.0  0.02024643120246589  0.34131537031676357  0.1907028746047388  1.0000
  H   H43       1.0  0.5202473134216632  0.3413151001295274  0.3092969886093826  1.0000
  H   H44       1.0  0.979752765567426  0.6586830370119753  0.8092974698044486  1.0000
  C   C1        1.0  0.7111112448822039  0.23020455049104518  0.546889224282765  1.0000
  C   C2        1.0  0.7888861589640541  0.7697954792449476  0.0468886567385383  1.0000
  C   C3        1.0  0.2888869786700283  0.7697950230604673  0.4531111201253353  1.0000
  C   C4        1.0  0.21111364687720166  0.23020525504104936  0.953110969701541  1.0000
  C   C5        1.0  0.7398229422174367  0.09598010815317785  0.589856878216402  1.0000
  C   C6        1.0  0.7601770411461217  0.9040188241896129  0.0898562504584248  1.0000
  C   C7        1.0  0.2601775323071677  0.9040182964317152  0.410143466194242  1.0000
  C   C8        1.0  0.23982246016082343  0.09598074661805359  0.910144093951132  1.0000
  C   C9        1.0  0.6030511875333815  0.0016298508316552002  0.6413172091525965  1.0000
  C   C10       1.0  0.8969507716089423  0.9983703279672366  0.1413176159283083  1.0000
  C   C11       1.0  0.3969498960653297  0.9983708807110854  0.3586831352588007  1.0000
  C   C12       1.0  0.10305000745546522  0.0016292400971807  0.8586834464525666  1.0000
  C   C13       1.0  0.4415016217696461  0.042617809996954685  0.6470277574947402  1.0000
  C   C14       1.0  0.058498550189007396  0.9573842824593156  0.14702738871119433  1.0000
  C   C15       1.0  0.5584981840743524  0.9573829242896323  0.3529725869151931  1.0000
  C   C16       1.0  0.9415012556549984  0.04261645182727849  0.852972955698739  1.0000
  C   C17       1.0  0.42100278698017485  0.17778967990712852  0.6013074165534391  1.0000
  C   C18       1.0  0.07899642631139159  0.8222100094325667  0.10130708916760507  1.0000
  C   C19       1.0  0.5789970188638238  0.8222110543794654  0.3986929278564944  1.0000
  C   C20       1.0  0.9210043527475237  0.17778955863065699  0.8986925372735681  1.0000
  C   C21       1.0  0.2464958707566041  0.22459003492251373  0.6010106964387631  1.0000
  C   C22       1.0  0.25350461802236884  0.7754096511794016  0.1010107661851194  1.0000
  C   C23       1.0  0.753504908302304  0.7754095331407098  0.3989889300024032  1.0000
  C   C24       1.0  0.7464958564994929  0.22458875340488754  0.8989888602556775  1.0000
  C   C25       1.0  0.2985922847442025  0.43841678086028674  0.7150868363703252  1.0000
  C   C26       1.0  0.2014081030812491  0.5615842614868852  0.21508677833483594  1.0000
  C   C27       1.0  0.7014075210970532  0.5615839534257104  0.2849127900697539  1.0000
  C   C28       1.0  0.7985901204682477  0.43841531206402334  0.7849128481034099  1.0000
  C   C29       1.0  0.35330772593133025  0.613905248508594  0.7264049792426944  1.0000
  C   C30       1.0  0.1466927484331961  0.3860958126910957  0.22640407101950188  1.0000
  C   C31       1.0  0.6466920799099255  0.3860954857773961  0.2735946471973847  1.0000
  C   C32       1.0  0.8533067528710063  0.6139037581159741  0.7735955554202006  1.0000
  S   S1        1.0  0.3837099503099423  0.671974534857277  0.849800339910324  1.0000
  S   S2        1.0  0.11629304987134499  0.328027892624135  0.34980007779104466  1.0000
  S   S3        1.0  0.6162892464599564  0.328023872471462  0.15020000449886337  1.0000
  S   S4        1.0  0.8837080337273661  0.6719728389186128  0.6502002666203522  1.0000
  N   N1        1.0  0.5552115622052158  0.26963557319502474  0.5531052298294128  1.0000
  N   N2        1.0  0.9447881401417034  0.7303632979283633  0.0531042991999513  1.0000
  N   N3        1.0  0.44478793910173653  0.7303639976126346  0.4468951145801441  1.0000
  N   N4        1.0  0.055211361162498876  0.26963627287869923  0.9468953272397513  1.0000
  N   N5        1.0  0.2687113964728666  0.39380260523675037  0.6133023691477958  1.0000
  N   N6        1.0  0.23128790853470343  0.6061971040832429  0.11330166327312699  1.0000
  N   N7        1.0  0.7312881048313358  0.6061969655703192  0.3866972572919066  1.0000
  N   N8        1.0  0.7687115927667562  0.3938024667232226  0.8866972451967283  1.0000
  O   O1        1.0  0.4814155639330693  0.8347060741083322  0.8495563451614316  1.0000
  O   O2        1.0  0.0185816546904505  0.16529869364533306  0.3495580069428569  1.0000
  O   O3        1.0  0.518583937373876  0.16529349669932705  0.15044399924812515  1.0000
  O   O4        1.0  0.9814178466164947  0.8347008771623334  0.6504423374666999  1.0000
  O   O5        1.0  0.2026849900443892  0.654758117909857  0.8881476204177403  1.0000
  O   O6        1.0  0.2973196407104409  0.3452397140443749  0.3881463369876101  1.0000
  O   O7        1.0  0.7973157890145259  0.34524145015335944  0.111852006023426  1.0000
  O   O8        1.0  0.7026808338086782  0.6547586905393245  0.6118525714833325  1.0000
  O   O9        1.0  0.47607657945361137  0.5647353715040068  0.8967556717305172  1.0000
  O   O10       1.0  0.023934995759056204  0.4352741013475167  0.3967552027590243  1.0000
  O   O11       1.0  0.5239232263903943  0.4352653627825872  0.1032446726794163  1.0000
  O   O12       1.0  0.9760673655943677  0.564726627451385  0.6032451416538294  1.0000
