data_image0
_chemical_formula_structural       In4Cu8H24C56I8N8O32
_chemical_formula_sum              "In4 Cu8 H24 C56 I8 N8 O32"
_cell_length_a       17.198343806357688
_cell_length_b       17.189000598466745
_cell_length_c       17.186403516428022
_cell_angle_alpha    115.91948884739483
_cell_angle_beta     106.55829378064634
_cell_angle_gamma    106.145467668007

_space_group_name_H-M_alt    "P 1"
_space_group_IT_number       1

loop_
  _space_group_symop_operation_xyz
  'x, y, z'

loop_
  _atom_site_type_symbol
  _atom_site_label
  _atom_site_symmetry_multiplicity
  _atom_site_fract_x
  _atom_site_fract_y
  _atom_site_fract_z
  _atom_site_occupancy
  In  In1       1.0  0.10390053834491648  0.8747006725736812  0.4785402393421592  1.0000
  In  In2       1.0  0.6052618528051924  0.2303487967957168  0.1252188714234777  1.0000
  In  In3       1.0  0.8961685379999268  0.3748827766955289  0.7710038701544306  1.0000
  In  In4       1.0  0.3949873051475804  0.5202597485983914  0.6253384255037772  1.0000
  Cu  Cu1       1.0  0.4463574887286796  0.7373672426205714  0.3131075646409939  1.0000
  Cu  Cu2       1.0  0.56946829838747  0.7027292464049213  0.2652751709761247  1.0000
  Cu  Cu3       1.0  0.553598815883504  0.866756797891391  0.29109653205418345  1.0000
  Cu  Cu4       1.0  0.43057249944021  0.6956941493019643  0.13338572258270184  1.0000
  Cu  Cu5       1.0  0.9244782874588253  0.8825071947252212  0.9361022409583551  1.0000
  Cu  Cu6       1.0  0.0755297400813362  0.011976314980906002  0.9580066273554521  1.0000
  Cu  Cu7       1.0  0.06233923856073891  0.04736535319900531  0.11713394760640478  1.0000
  Cu  Cu8       1.0  0.9376031878337229  0.05478867709096845  0.984855600756816  1.0000
  H   H1        1.0  0.3103215968665936  0.7990821298533392  0.36441048772203993  1.0000
  H   H2        1.0  0.5654224087396285  0.5107556457545925  0.20195770656245313  1.0000
  H   H3        1.0  0.6895761705587233  0.05411824547510951  0.48877796567109755  1.0000
  H   H4        1.0  0.4345483359331937  0.6365664532435318  0.9454530689660031  1.0000
  H   H5        1.0  0.9342207543703012  0.6950434486181153  0.8846259857929152  1.0000
  H   H6        1.0  0.06580195737620917  0.9507126820805781  0.7607281054177618  1.0000
  H   H7        1.0  0.1913712805242795  0.23934218062512977  0.3052035250286167  1.0000
  H   H8        1.0  0.8085420868774947  0.11362833840226473  0.047839870856393005  1.0000
  H   H9        1.0  0.2681579206359075  0.6989229470529424  0.546222522495995  1.0000
  H   H10       1.0  0.8478036727888706  0.5701618146058537  0.30140062943218  1.0000
  H   H11       1.0  0.7318999915599563  0.27798458654137903  0.4307704626016857  1.0000
  H   H12       1.0  0.15215111158781985  0.45347150438050926  0.7223019582717782  1.0000
  H   H13       1.0  0.6522259227432841  0.4713604225049651  0.7035318600762467  1.0000
  H   H14       1.0  0.3477952948755956  0.05119671461556408  0.819184535363668  1.0000
  H   H15       1.0  0.2313406526460398  0.18036156496442862  0.5285116232624247  1.0000
  H   H16       1.0  0.7686642018533546  0.2971430274453299  0.949051118126661  1.0000
  H   H17       1.0  0.4524702434815424  0.6546379054266468  0.42653405440456277  1.0000
  H   H18       1.0  0.7692364283680605  0.7970501907150764  0.34456861149772067  1.0000
  H   H19       1.0  0.5474483015866126  0.9740147140218343  0.20213125092071488  1.0000
  H   H20       1.0  0.2307945139145246  0.5752253818547857  0.02788364391465589  1.0000
  H   H21       1.0  0.7278590183191722  0.7754606928772532  0.8231988579892329  1.0000
  H   H22       1.0  0.2721337117381212  0.09571906034862825  0.04773415292836354  1.0000
  H   H23       1.0  0.04817703804941685  0.9531177042865835  0.22300026044515414  1.0000
  H   H24       1.0  0.9516943311949365  0.1747529950666407  0.9047642475219748  1.0000
  C   C1        1.0  0.3246668335299959  0.7630673758376292  0.40133234357309533  1.0000
  C   C2        1.0  0.6379919732735858  0.561399328451266  0.23758829679331228  1.0000
  C   C3        1.0  0.6752776078929302  0.07670056490754726  0.438440423889311  1.0000
  C   C4        1.0  0.36198359400989943  0.5995530386541575  0.9234612572115707  1.0000
  C   C5        1.0  0.8613172135182552  0.6725733486650753  0.8479632714375781  1.0000
  C   C6        1.0  0.13869643628934367  0.9869119130660025  0.8112338871127988  1.0000
  C   C7        1.0  0.1764133671065551  0.18876050999357125  0.3272057764757221  1.0000
  C   C8        1.0  0.823528159020704  0.1506173410780891  0.012219955158663384  1.0000
  C   C9        1.0  0.28114995981823654  0.7534536597457945  0.45618582475745467  1.0000
  C   C10       1.0  0.7030523432067071  0.5279910926249657  0.24691855826581122  1.0000
  C   C11       1.0  0.7188470400594724  0.17506792874073088  0.4723757650269461  1.0000
  C   C12       1.0  0.2969009528844851  0.5438066695116818  0.8249333365671916  1.0000
  C   C13       1.0  0.796796433594821  0.5742309234746799  0.7932235226160029  1.0000
  C   C14       1.0  0.20322796222337297  0.9965357484693983  0.7774370968019751  1.0000
  C   C15       1.0  0.21909084568336115  0.22234066061927396  0.42577032085934247  1.0000
  C   C16       1.0  0.7809167595380657  0.20653934869253018  0.0031777393069630407  1.0000
  C   C17       1.0  0.3013532272943352  0.7073774390018175  0.5030476343168288  1.0000
  C   C18       1.0  0.7956418401915571  0.5944584177122538  0.29278147046898084  1.0000
  C   C19       1.0  0.6986584781833827  0.20164167545971162  0.40603347384549676  1.0000
  C   C20       1.0  0.20433889553532933  0.49704690318615247  0.7987999391351152  1.0000
  C   C21       1.0  0.7039013529655235  0.547710018483606  0.7466105933898459  1.0000
  C   C22       1.0  0.2961267417593587  0.042743040234867566  0.8438645577863964  1.0000
  C   C23       1.0  0.19855021474757711  0.15593685240449423  0.4519872765570483  1.0000
  C   C24       1.0  0.8014363833457454  0.2533833131540677  0.9573688726883844  1.0000
  C   C25       1.0  0.3640735710004607  0.6717659527088388  0.4929526984320772  1.0000
  C   C26       1.0  0.8200378241773976  0.6924483716369141  0.3279636136654248  1.0000
  C   C27       1.0  0.6359277844551839  0.1288115587334888  0.30764355218227024  1.0000
  C   C28       1.0  0.17995230403546003  0.5078279609953641  0.8723963812935905  1.0000
  C   C29       1.0  0.6784710909196932  0.620638459421606  0.7568574586257595  1.0000
  C   C30       1.0  0.32152483063232046  0.07849450717186812  0.9422764510338978  1.0000
  C   C31       1.0  0.1359568206965704  0.05788928420651022  0.37845198121411977  1.0000
  C   C32       1.0  0.8640079081201008  0.2424784673273236  0.9219141832654427  1.0000
  C   C33       1.0  0.40413788301816583  0.6830257287132896  0.43616766815308244  1.0000
  C   C34       1.0  0.7512925655859847  0.7206955484128343  0.31667105176534693  1.0000
  C   C35       1.0  0.5958036616770669  0.031987802539646316  0.27886589041633403  1.0000
  C   C36       1.0  0.24871381209953813  0.5652679960917267  0.9694511409985292  1.0000
  C   C37       1.0  0.7465806234319032  0.7174501331082154  0.8135037674221335  1.0000
  C   C38       1.0  0.2534043199599552  0.067198630531486  0.9709486334116163  1.0000
  C   C39       1.0  0.09648151091271731  0.02950855627134531  0.28135711470265784  1.0000
  C   C40       1.0  0.903425572505718  0.1848029155855715  0.9328929481137463  1.0000
  C   C41       1.0  0.2132563522683953  0.7913913212443974  0.46351457101133775  1.0000
  C   C42       1.0  0.6730447165295743  0.4223604609337174  0.20878517366904245  1.0000
  C   C43       1.0  0.7867569130103147  0.2503375709221841  0.578270867838526  1.0000
  C   C44       1.0  0.32689189581705586  0.5357745993047587  0.7493308875727108  1.0000
  C   C45       1.0  0.8273030876945383  0.4988238637948756  0.785523294334993  1.0000
  C   C46       1.0  0.17273846094602877  0.9582015666477731  0.6714465648439826  1.0000
  C   C47       1.0  0.28645083965908213  0.32801305467363323  0.5014934887662362  1.0000
  C   C48       1.0  0.7136003615399815  0.2148634801125978  0.04148585446129246  1.0000
  C   C49       1.0  0.3868568681755846  0.6184980603153677  0.5382729551162838  1.0000
  C   C50       1.0  0.9183640933371535  0.7686455898652582  0.3808313130875474  1.0000
  C   C51       1.0  0.6132504590336368  0.1513456800680899  0.23157710975025475  1.0000
  C   C52       1.0  0.0816323872731601  0.4624693925396599  0.8502217735198697  1.0000
  C   C53       1.0  0.5799424155623781  0.5981833831299709  0.71176565579168  1.0000
  C   C54       1.0  0.42006295420502227  0.13181881548565857  0.018426333533341242  1.0000
  C   C55       1.0  0.11281155131584353  0.9818477600396422  0.4007838974967796  1.0000
  C   C56       1.0  0.8872425517822649  0.2880877653793876  0.8691381230061308  1.0000
  I   I1        1.0  0.40509868595794535  0.5587271786343565  0.1806831084210074  1.0000
  I   I2        1.0  0.621636035924766  0.8483807790601646  0.4429895948137243  1.0000
  I   I3        1.0  0.5949546617598643  0.7755687340712641  0.1538182978037312  1.0000
  I   I4        1.0  0.3783382768523893  0.82117547674045  0.22671464167376595  1.0000
  I   I5        1.0  0.8785952103410679  0.9744111085027927  0.06899218931095409  1.0000
  I   I6        1.0  0.12132977356992572  0.19063840425573636  0.09592182638323268  1.0000
  I   I7        1.0  0.09413276852451732  0.9014390204644587  0.0225839929210423  1.0000
  I   I8        1.0  0.905870904864649  0.9286040163290536  0.8070335856273018  1.0000
  N   N1        1.0  0.3847464147534367  0.728004814982022  0.3913721776119843  1.0000
  N   N2        1.0  0.6618381076449608  0.656251365723037  0.2723812889606662  1.0000
  N   N3        1.0  0.6151673973376147  0.006620204438803459  0.34326158507696636  1.0000
  N   N4        1.0  0.3381518848324702  0.6104351727471878  0.9944648532658035  1.0000
  N   N5        1.0  0.8363103196303853  0.7427361042588531  0.8580482662125417  1.0000
  N   N6        1.0  0.16367773038888336  0.022090418525877474  0.906455143668417  1.0000
  N   N7        1.0  0.11649729797194651  0.09385524407054652  0.2561898573700887  1.0000
  N   N8        1.0  0.8833970379292069  0.1395576853903294  0.9771900153999552  1.0000
  O   O1        1.0  0.20584832829108982  0.8437446411329573  0.42938235561548754  1.0000
  O   O2        1.0  0.5865479089257665  0.3629267956058515  0.15638364669927546  1.0000
  O   O3        1.0  0.7941903466150252  0.2236888351775621  0.6380954425186474  1.0000
  O   O4        1.0  0.4133952276079782  0.5699646317830657  0.7764633275821495  1.0000
  O   O5        1.0  0.9138170241861445  0.5256717513437508  0.8202509865495741  1.0000
  O   O6        1.0  0.08621276371908244  0.9063563861976718  0.6117347101461305  1.0000
  O   O7        1.0  0.2938339220595481  0.3873631352252574  0.4742675934338506  1.0000
  O   O8        1.0  0.7063303344363235  0.18036141311763745  0.09355513228488371  1.0000
  O   O9        1.0  0.16607494365305087  0.7713155269209794  0.5027189512434801  1.0000
  O   O10       1.0  0.7325293006579869  0.3951022563848525  0.22863789750067548  1.0000
  O   O11       1.0  0.8339355705468278  0.33675062892698554  0.6053870012853791  1.0000
  O   O12       1.0  0.2673900210648554  0.49613631090804233  0.6625495476431736  1.0000
  O   O13       1.0  0.7679174114043545  0.41225036192560083  0.7454546530348692  1.0000
  O   O14       1.0  0.23210566538212155  0.9774514040985094  0.6442520381940894  1.0000
  O   O15       1.0  0.3331091124518792  0.35538551660796003  0.5884118564378297  1.0000
  O   O16       1.0  0.6668842174291213  0.25501139684446616  0.02212121934582704  1.0000
  O   O17       1.0  0.3538787010646161  0.6181600746456369  0.5969487321026249  1.0000
  O   O18       1.0  0.9778006931712964  0.7362914205513819  0.3814192746734972  1.0000
  O   O19       1.0  0.6463132902286829  0.24299732988593095  0.2642132639605137  1.0000
  O   O20       1.0  0.022190108383668337  0.40359912846648166  0.7583818625280114  1.0000
  O   O21       1.0  0.5208505545805409  0.5065860633687792  0.6531742572278461  1.0000
  O   O22       1.0  0.4791673405027268  0.13237761584576194  0.9859523982971793  1.0000
  O   O23       1.0  0.1457271858202276  0.014130092352843323  0.4925628849209288  1.0000
  O   O24       1.0  0.8544150320771707  0.3470312390636751  0.8686627581753115  1.0000
  O   O25       1.0  0.4333684577564086  0.5758298138393131  0.516733335800737  1.0000
  O   O26       1.0  0.9388527933919022  0.8575392214795557  0.4228319755002942  1.0000
  O   O27       1.0  0.5667167000712611  0.08326901414313437  0.14234160891825098  1.0000
  O   O28       1.0  0.061105908092308314  0.4840783285972634  0.9186048818675161  1.0000
  O   O29       1.0  0.5588487124009305  0.6662986567361389  0.7333681613974788  1.0000
  O   O30       1.0  0.44109940028872785  0.17436816525373908  0.10764616921044022  1.0000
  O   O31       1.0  0.06596992561067344  0.8928470383771057  0.33243162501349827  1.0000
  O   O32       1.0  0.9340455476038089  0.26661452647885403  0.8269719990370489  1.0000
