data_image0
_chemical_formula_structural       CdH28C26N6O6
_chemical_formula_sum              "Cd1 H28 C26 N6 O6"
_cell_length_a       8.8937902785709
_cell_length_b       9.99553451338873
_cell_length_c       11.82718717025649
_cell_angle_alpha    61.9560560031643
_cell_angle_beta     87.40971483584784
_cell_angle_gamma    73.2166782611078

_space_group_name_H-M_alt    "P 1"
_space_group_IT_number       1

loop_
  _space_group_symop_operation_xyz
  'x, y, z'

loop_
  _atom_site_type_symbol
  _atom_site_label
  _atom_site_symmetry_multiplicity
  _atom_site_fract_x
  _atom_site_fract_y
  _atom_site_fract_z
  _atom_site_occupancy
  Cd  Cd1       1.0  0.5000005423258004  0.4999990661835055  0.49999936482355883  1.0000
  H   H1        1.0  0.22658715035329632  0.9443795445824106  0.8233990836065814  1.0000
  H   H2        1.0  0.7734158095112349  0.05561624511430809  0.1765996498997069  1.0000
  H   H3        1.0  0.0394195120792276  0.0033511724868944006  0.8714194139021103  1.0000
  H   H4        1.0  0.9605807868988877  0.9966529302105724  0.1285770131893501  1.0000
  H   H5        1.0  0.007709219945837692  0.7350067686106457  0.9407536146002754  1.0000
  H   H6        1.0  0.9922847669334233  0.2649994841323391  0.05924980134972197  1.0000
  H   H7        1.0  0.19149240223997305  0.6766579732807828  0.8863319846699088  1.0000
  H   H8        1.0  0.8084952958824161  0.3233397885814782  0.11367327040947117  1.0000
  H   H9        1.0  0.5746947204604284  0.5926663125769308  0.20878132416318354  1.0000
  H   H10       1.0  0.4253086112422509  0.4073283122020683  0.7912161599622679  1.0000
  H   H11       1.0  0.44422537302613563  0.6774513494924363  0.9927244785954201  1.0000
  H   H12       1.0  0.5557734708673792  0.3225467475532326  0.0072734966103027415  1.0000
  H   H13       1.0  9.557909416454549e-05  0.7008505856951005  0.159233370903891  1.0000
  H   H14       1.0  0.9999077668006962  0.2991510517133237  0.8407732141080118  1.0000
  H   H15       1.0  0.14701966085557674  0.6151388316514924  0.36514426423836  1.0000
  H   H16       1.0  0.8529881111692106  0.3848665534892604  0.6348564778588539  1.0000
  H   H17       1.0  0.909086135754549  0.9741078272945032  0.7058359367177971  1.0000
  H   H18       1.0  0.0909137824593529  0.025897464717097304  0.294160039434388  1.0000
  H   H19       1.0  0.0248817567757484  0.10628314259368209  0.6374233748534692  1.0000
  H   H20       1.0  0.9751215597079013  0.8937150494910853  0.3625744089149591  1.0000
  H   H21       1.0  0.1387087580978914  0.565902577478404  0.5948000388764074  1.0000
  H   H22       1.0  0.8612886333440956  0.43409303242840025  0.4052031847267585  1.0000
  H   H23       1.0  0.9637212990942389  0.7414203348607842  0.6715361436243583  1.0000
  H   H24       1.0  0.03627942264526499  0.2585789380275187  0.3284655357237014  1.0000
  H   H25       1.0  0.30487829959060525  0.9996212745854222  0.5836697026041406  1.0000
  H   H26       1.0  0.6951228181321342  0.0003732416829862027  0.4163321280402172  1.0000
  H   H27       1.0  0.4680083325066208  0.8129083153219483  0.5089257378898467  1.0000
  H   H28       1.0  0.5319908966141256  0.18708858021137326  0.4910735384152005  1.0000
  C   C1        1.0  0.10921268537862967  0.9264433070736757  0.8329925770930232  1.0000
  C   C2        1.0  0.8907895352726102  0.0735548002602684  0.1670095053349812  1.0000
  C   C3        1.0  0.12570653153699846  0.7514190333302365  0.9280914902850839  1.0000
  C   C4        1.0  0.8742912388392339  0.24857891797356046  0.0719150343804742  1.0000
  C   C5        1.0  0.4475579386071902  0.6171307175322764  0.19288585529876912  1.0000
  C   C6        1.0  0.5524442552659039  0.38286746299093016  0.8071111261689269  1.0000
  C   C7        1.0  0.3737849546177259  0.6652171098960195  0.07305644673532193  1.0000
  C   C8        1.0  0.6262168477351437  0.3347858150488748  0.9269412335961322  1.0000
  C   C9        1.0  0.2095550928065677  0.6968586245020771  0.056617137325048424  1.0000
  C   C10       1.0  0.7904434015639126  0.3031405764702625  0.9433863380617638  1.0000
  C   C11       1.0  0.12768090276054522  0.6787198577296678  0.16415586575264748  1.0000
  C   C12       1.0  0.8723190511575608  0.32128533669625625  0.8358469116799514  1.0000
  C   C13       1.0  0.21009283869604903  0.6296641371591888  0.2810864897793835  1.0000
  C   C14       1.0  0.7899130777978771  0.3703400111478814  0.7189147989757529  1.0000
  C   C15       1.0  0.030635148721174177  0.9810938783824669  0.698720971731113  1.0000
  C   C16       1.0  0.9693678048503643  0.018905454223599297  0.30127976173824333  1.0000
  C   C17       1.0  0.17227985735981113  0.663328914154448  0.5934449043701024  1.0000
  C   C18       1.0  0.8277156588692522  0.33666903842264156  0.4065583153739  1.0000
  C   C19       1.0  0.07592835249690921  0.7606396594015904  0.638863332184627  1.0000
  C   C20       1.0  0.9240731441600829  0.23935719826381072  0.36114179952212305  1.0000
  C   C21       1.0  0.12270952289326692  0.8822787456174764  0.6400745374991318  1.0000
  C   C22       1.0  0.8772889625511695  0.1177204797512843  0.35992723756758244  1.0000
  C   C23       1.0  0.2651317316799081  0.9030586237701855  0.5900165430942649  1.0000
  C   C24       1.0  0.7348704908012921  0.09693595285262553  0.40998268921061515  1.0000
  C   C25       1.0  0.3548605716304536  0.8019589753732675  0.5456244568076585  1.0000
  C   C26       1.0  0.6451409268564987  0.1980343515810006  0.45437782477596766  1.0000
  N   N1        1.0  0.3673245292018024  0.5989035168087468  0.2958702961255426  1.0000
  N   N2        1.0  0.6326783957616301  0.401099419697708  0.7041281865066294  1.0000
  N   N3        1.0  0.3106737953990618  0.6822862301383098  0.5483228246212305  1.0000
  N   N4        1.0  0.6893232483498581  0.31770695298402535  0.45168304903990025  1.0000
  N   N5        1.0  0.756952595475397  0.7010870143309589  0.42357416357565825  1.0000
  N   N6        1.0  0.24304281890720603  0.29891826802902705  0.5764160528934709  1.0000
  O   O1        1.0  0.6384940675503615  0.685419793036175  0.3765460779667507  1.0000
  O   O2        1.0  0.3615036072723826  0.3145819451411711  0.6234454434608594  1.0000
  O   O3        1.0  0.7410870145758182  0.7334228433898458  0.5151579588639805  1.0000
  O   O4        1.0  0.25889667038161684  0.2666050018907029  0.4848196303960961  1.0000
  O   O5        1.0  0.8853643276091105  0.6844693540289197  0.37504586954345603  1.0000
  O   O6        1.0  0.1146356871851353  0.31552157117394586  0.6249557093172556  1.0000
