data_image0
_chemical_formula_structural       Fe2Ag4H16C24N16
_chemical_formula_sum              "Fe2 Ag4 H16 C24 N16"
_cell_length_a       6.621927182923685
_cell_length_b       8.696085928902772
_cell_length_c       13.745312831808135
_cell_angle_alpha    87.14011262798904
_cell_angle_beta     82.44165219857362
_cell_angle_gamma    67.6263951685524

_space_group_name_H-M_alt    "P 1"
_space_group_IT_number       1

loop_
  _space_group_symop_operation_xyz
  'x, y, z'

loop_
  _atom_site_type_symbol
  _atom_site_label
  _atom_site_symmetry_multiplicity
  _atom_site_fract_x
  _atom_site_fract_y
  _atom_site_fract_z
  _atom_site_occupancy
  Fe  Fe1       1.0  0.9785707835142501  0.017585970301794904  0.004537523006604304  1.0000
  Fe  Fe2       1.0  0.0039499540741517  0.017612855815045205  0.4952197236093242  1.0000
  Ag  Ag1       1.0  0.4812368606042836  0.037285525636690416  0.24994800989490787  1.0000
  Ag  Ag2       1.0  0.5195188202605222  0.9603990199975527  0.7500538607375661  1.0000
  Ag  Ag3       1.0  0.6639499086054029  0.6728410047893904  0.24988584870541083  1.0000
  Ag  Ag4       1.0  0.3388248166164302  0.322605133277314  0.7498633653975804  1.0000
  H   H1        1.0  0.4893531177409115  0.1667059917519609  0.9871723328431444  1.0000
  H   H2        1.0  0.3440993493130406  0.16654966120174214  0.5127589883818189  1.0000
  H   H3        1.0  0.5171751554130777  0.8202261566829139  0.016370706809070226  1.0000
  H   H4        1.0  0.6621703798850616  0.8201238134906249  0.48360402672023645  1.0000
  H   H5        1.0  0.17060926175017233  0.420734139559869  0.05178340548536651  1.0000
  H   H6        1.0  0.40875520292420464  0.42075890444468916  0.44847784646717065  1.0000
  H   H7        1.0  0.8379196491735923  0.5650434401441019  0.9482534030290495  1.0000
  H   H8        1.0  0.5968996000375313  0.5649614288492941  0.551988641901332  1.0000
  H   H9        1.0  0.244506817757532  0.6121522435207114  0.1635615785332831  1.0000
  H   H10       1.0  0.1433441543510625  0.6124355603599413  0.3368613847977073  1.0000
  H   H11       1.0  0.7591737261546283  0.38175522798001543  0.8339116163002702  1.0000
  H   H12       1.0  0.8591032927345876  0.3820573296254395  0.6663074845387557  1.0000
  H   H13       1.0  0.902063838996753  0.29444761539537007  0.14188019130764934  1.0000
  H   H14       1.0  0.8033193606765039  0.2947994219432672  0.35828386234729254  1.0000
  H   H15       1.0  0.1063870951441145  0.7096332694433656  0.8526250274538614  1.0000
  H   H16       1.0  0.18341651411506618  0.7104054496341234  0.6472619633914791  1.0000
  C   C1        1.0  0.16594565937784722  0.2348099929486196  0.8645077973286137  1.0000
  C   C2        1.0  0.5992639761275598  0.23473931039358586  0.6351578293846174  1.0000
  C   C3        1.0  0.829615526974223  0.7716406819204097  0.13744883056156715  1.0000
  C   C4        1.0  0.39902178270886396  0.771791506242778  0.362168694561639  1.0000
  C   C5        1.0  0.5096649882928259  0.25239167171301363  0.03629572821395041  1.0000
  C   C6        1.0  0.2380278827675325  0.2524111269236188  0.46375088275792115  1.0000
  C   C7        1.0  0.49833750097015167  0.7374015374900511  0.9644837549998613  1.0000
  C   C8        1.0  0.7638959584185654  0.7374524558949108  0.5354961846536669  1.0000
  C   C9        1.0  0.3338638210042148  0.3937735165031599  0.07239682225523582  1.0000
  C   C10       1.0  0.2723825438028768  0.3939320162020935  0.4278765574419127  1.0000
  C   C11       1.0  0.6740731686737503  0.596317954169777  0.9272538912499542  1.0000
  C   C12       1.0  0.7293900481636086  0.5964404495596441  0.5728995866856581  1.0000
  C   C13       1.0  0.3739199886372047  0.49736992564488264  0.13443837819132656  1.0000
  C   C14       1.0  0.1286913603636606  0.4976413256302408  0.36592328351905223  1.0000
  C   C15       1.0  0.631022687517209  0.49691070897696943  0.863254141805243  1.0000
  C   C16       1.0  0.871946960709714  0.49723818926597124  0.6369237678250315  1.0000
  C   C17       1.0  0.2558639455177384  0.04657773161769541  0.15975385256811594  1.0000
  C   C18       1.0  0.6974279148857505  0.046766030685972716  0.3400643982536948  1.0000
  C   C19       1.0  0.7387585771223611  0.9571308329322721  0.8423365952387203  1.0000
  C   C20       1.0  0.30362592873370875  0.9573847481308138  0.657632134417824  1.0000
  C   C21       1.0  0.7378521308640416  0.32395642901998656  0.12203114778586871  1.0000
  C   C22       1.0  0.9380890713935413  0.3242413620076262  0.37811167122549705  1.0000
  C   C23       1.0  0.2706206526869438  0.6751653529089553  0.8741867408178623  1.0000
  C   C24       1.0  0.05377759846463441  0.6757267081618323  0.6257580335755295  1.0000
  N   N1        1.0  0.5768448915730813  0.46018081855977044  0.15998503197607053  1.0000
  N   N2        1.0  0.9628692918279567  0.4605484418894648  0.34031624133569244  1.0000
  N   N3        1.0  0.42936303335816456  0.537100275996302  0.8356755071381843  1.0000
  N   N4        1.0  0.033284583459923904  0.5376689861853097  0.6644005706029504  1.0000
  N   N5        1.0  0.1475520022049963  0.033673634652842614  0.10189058834944831  1.0000
  N   N6        1.0  0.8188273772932461  0.0337593960700815  0.3978628912080708  1.0000
  N   N7        1.0  0.8296149357395347  0.9849315823360956  0.9031086026513294  1.0000
  N   N8        1.0  0.1853465627132562  0.9850639773863251  0.596708051221164  1.0000
  N   N9        1.0  0.08854531025509257  0.15915458569573812  0.9203366342314683  1.0000
  N   N10       1.0  0.7524757122642425  0.15901670600936063  0.5794087230116178  1.0000
  N   N11       1.0  0.8882059954834456  0.8618308830118053  0.0849800457476277  1.0000
  N   N12       1.0  0.2502011889323085  0.8618808226480682  0.4147166979738729  1.0000
  N   N13       1.0  0.7150198252940709  0.2169793809475919  0.05976898543848113  1.0000
  N   N14       1.0  0.06807174624745468  0.21705389792143148  0.4402121160774897  1.0000
  N   N15       1.0  0.29680911717517205  0.7752832475629889  0.9381979221483477  1.0000
  N   N16       1.0  0.9275318856553125  0.7755383017773101  0.5616699652162893  1.0000
