data_image0
_chemical_formula_structural       Zn6H23C62I4O24F9
_chemical_formula_sum              "Zn6 H23 C62 I4 O24 F9"
_cell_length_a       18.799930602397524
_cell_length_b       18.847025227173592
_cell_length_c       18.471422565807636
_cell_angle_alpha    108.86742290425283
_cell_angle_beta     109.07754879213473
_cell_angle_gamma    109.93076553645847

_space_group_name_H-M_alt    "P 1"
_space_group_IT_number       1

loop_
  _space_group_symop_operation_xyz
  'x, y, z'

loop_
  _atom_site_type_symbol
  _atom_site_label
  _atom_site_symmetry_multiplicity
  _atom_site_fract_x
  _atom_site_fract_y
  _atom_site_fract_z
  _atom_site_occupancy
  Zn  Zn1       1.0  0.4426167342421363  0.9401965746943616  0.0025724607357631227  1.0000
  Zn  Zn2       1.0  0.5657250365372236  0.06685320918105478  0.001098640447907044  1.0000
  Zn  Zn3       1.0  0.000703454609492784  0.056678455956408386  0.5618099827835792  1.0000
  Zn  Zn4       1.0  0.9980197872487865  0.9342511579772648  0.43150673329849115  1.0000
  Zn  Zn5       1.0  0.4366000080011005  0.5045914471085453  0.43978479022818834  1.0000
  Zn  Zn6       1.0  0.5654849510021903  0.5050081073166907  0.5638231966689631  1.0000
  H   H1        1.0  0.397253549576149  0.5768444038174606  0.7332202850947241  1.0000
  H   H2        1.0  0.34270863114241484  0.7158729608818605  0.7563993546963774  1.0000
  H   H3        1.0  0.3996612474366187  0.7001040588089749  0.8428602199921543  1.0000
  H   H4        1.0  0.7202133974558649  0.13219390275600057  0.28196636071091064  1.0000
  H   H5        1.0  0.8401607112389798  0.1481136233417857  0.4057218045364835  1.0000
  H   H6        1.0  0.7492929523369157  0.820347035202417  0.205513429225853  1.0000
  H   H7        1.0  0.6928167068473527  0.8010477272882779  0.2645311000469873  1.0000
  H   H8        1.0  0.5622006715942262  0.7865346707823518  0.14921958511055786  1.0000
  H   H9        1.0  0.6461807791722477  0.31875787884209206  0.22689549773892984  1.0000
  H   H10       1.0  0.26831388170468523  0.816181824663964  0.7681147008462192  1.0000
  H   H11       1.0  0.3984596147995916  0.05441873412188869  0.21008110189217183  1.0000
  H   H12       1.0  0.1161368983067206  0.1087758082902965  0.3300823400879268  1.0000
  H   H13       1.0  0.43211403672565046  0.35914524233889006  0.6725718973808983  1.0000
  H   H14       1.0  0.3736499961619728  0.41646737177152454  0.6841330037534307  1.0000
  H   H15       1.0  0.13969636376121744  0.679942392240335  0.638464850780288  1.0000
  H   H16       1.0  0.8352145553337421  0.6912807968226388  0.43614962264705787  1.0000
  H   H17       1.0  0.715594090136271  0.5922857750743017  0.4446027357958684  1.0000
  H   H18       1.0  0.6133953672995104  0.8237995613788482  0.5206187745621874  1.0000
  H   H19       1.0  0.6822047290489407  0.8847833870687865  0.40985860279332104  1.0000
  H   H20       1.0  0.7432591309265462  0.9306158751405177  0.5262311823428975  1.0000
  H   H21       1.0  0.23521856163322494  0.12342565272896167  0.7849630549657008  1.0000
  H   H22       1.0  0.665853520353991  0.9285357186376826  0.8430640737820313  1.0000
  H   H23       1.0  0.3424749980822739  0.5942835749086086  0.6469399327674027  1.0000
  C   C1        1.0  0.5420159497583938  0.9175313011195954  0.8962921004225708  1.0000
  C   C2        1.0  0.22007225579345396  0.8997727410936066  0.7420612763258351  1.0000
  C   C3        1.0  0.2925393464846308  0.9784353916309597  0.817928657810299  1.0000
  C   C4        1.0  0.29389517444413826  0.0554931018604137  0.8314749624362963  1.0000
  C   C5        1.0  0.2288129977343516  0.06037916792934078  0.7725041166958067  1.0000
  C   C6        1.0  0.15883090578270753  0.9858989914569988  0.6976598979658493  1.0000
  C   C7        1.0  0.4813555950879334  0.7620970021800487  0.7942631440566077  1.0000
  C   C8        1.0  0.5467434877055339  0.8478660652589409  0.8349585154811765  1.0000
  C   C9        1.0  0.6136900398920202  0.8624071910149309  0.8131696567283202  1.0000
  C   C10       1.0  0.6137145811152463  0.7935100584252408  0.7538408755897736  1.0000
  C   C11       1.0  0.5470257894903625  0.7067735385646329  0.7124327623350908  1.0000
  C   C12       1.0  0.36467679732155733  0.9785858403061383  0.8839041515410248  1.0000
  C   C13       1.0  0.48142138520841365  0.6944285046735388  0.7345437594402854  1.0000
  C   C14       1.0  0.39505112500548717  0.6262721109324898  0.7148050032082267  1.0000
  C   C15       1.0  0.3956285746344576  0.7032998707457592  0.7834391540812932  1.0000
  C   C16       1.0  0.6651128605482767  0.9225983945757221  0.20805858421255155  1.0000
  C   C17       1.0  0.6578341640277473  0.993298339711508  0.20697664339520835  1.0000
  C   C18       1.0  0.722965805826803  0.0748711273408347  0.28033111342922024  1.0000
  C   C19       1.0  0.7912436138410469  0.08399051508691704  0.3496813814236078  1.0000
  C   C20       1.0  0.8013753862090098  0.012576695571162599  0.3466835545232884  1.0000
  C   C21       1.0  0.7365439913769052  0.9319870505411739  0.2740361042986236  1.0000
  C   C22       1.0  0.7073856461979702  0.8361357111229636  0.22923375581060404  1.0000
  C   C23       1.0  0.5274838540743759  0.1427449666878715  0.11810937356897717  1.0000
  C   C24       1.0  0.6252350745162758  0.8261071075591744  0.15702007252958333  1.0000
  C   C25       1.0  0.4679095019161323  0.18187973393664686  0.21840288437428512  1.0000
  C   C26       1.0  0.53056759613807  0.2071022762640595  0.19316607912343642  1.0000
  C   C27       1.0  0.595650598134462  0.294413649756457  0.2433985881365786  1.0000
  C   C28       1.0  0.5964025348393065  0.3510835808489146  0.3150638654778889  1.0000
  C   C29       1.0  0.5336240040452793  0.3273699685132527  0.3406886755654669  1.0000
  C   C30       1.0  0.4690252885736115  0.24055647889284867  0.2882556897328996  1.0000
  C   C31       1.0  0.38765684183687205  0.1733112747408043  0.27616417395095283  1.0000
  C   C32       1.0  0.3885750677416554  0.10490241462378687  0.19878832666088903  1.0000
  C   C33       1.0  0.11383736686875781  0.09024514100055113  0.4727573098842087  1.0000
  C   C34       1.0  0.5909276498789566  0.9859150396656702  0.12997252705382337  1.0000
  C   C35       1.0  0.10102797594712602  0.9985483354300299  0.6309144871310509  1.0000
  C   C36       1.0  0.872120645182136  0.8527956267134797  0.4565337150496165  1.0000
  C   C37       1.0  0.8801276100475875  0.022373412828592596  0.41283763469538576  1.0000
  C   C38       1.0  0.5847812131319116  0.6089237665756284  0.4603074214646129  1.0000
  C   C39       1.0  0.5387394596836189  0.6305332742818734  0.6435853999829676  1.0000
  C   C40       1.0  0.3654191632145398  0.3845283638262699  0.4788312328644155  1.0000
  C   C41       1.0  0.5302460857265173  0.39084282191443254  0.4116402274362656  1.0000
  C   C42       1.0  0.2493452608579999  0.23480881506144866  0.5491658175776166  1.0000
  C   C43       1.0  0.17847965616169859  0.16206714999488264  0.47158883263124113  1.0000
  C   C44       1.0  0.1692949981620302  0.16330430936246637  0.3936850930757957  1.0000
  C   C45       1.0  0.21539523587057358  0.8185701022873032  0.7239123260061506  1.0000
  C   C46       1.0  0.22694909705490568  0.2358265230521113  0.39628357186265367  1.0000
  C   C47       1.0  0.30015145267083193  0.3086198971853235  0.474147312539536  1.0000
  C   C48       1.0  0.30944023495022316  0.3035613271282145  0.550085861599854  1.0000
  C   C49       1.0  0.36770762274400676  0.3534647698337848  0.6492440337072979  1.0000
  C   C50       1.0  0.2986109033270239  0.2769413015638307  0.6484209031083809  1.0000
  C   C51       1.0  0.7282198649597615  0.8025437087615825  0.4516451728850513  1.0000
  C   C52       1.0  0.7940349115064151  0.7862635472971462  0.4472799905679923  1.0000
  C   C53       1.0  0.785385825997679  0.7067931079772406  0.4402241675928666  1.0000
  C   C54       1.0  0.7174070705477931  0.6505074651648215  0.44407597621501105  1.0000
  C   C55       1.0  0.6511068651504175  0.6673900710484942  0.44881043750219635  1.0000
  C   C56       1.0  0.14404314249837563  0.7425644841607592  0.6527719448852808  1.0000
  C   C57       1.0  0.6570347462735455  0.743293419774261  0.4492628488303652  1.0000
  C   C58       1.0  0.6199171107889683  0.8027604004928435  0.46167778068733184  1.0000
  C   C59       1.0  0.6996381431384221  0.8697772919053646  0.46360038337941495  1.0000
  C   C60       1.0  0.07372143067794208  0.7453793116233455  0.5989208214589115  1.0000
  C   C61       1.0  0.0762740349790859  0.8230697794949576  0.6139663571472483  1.0000
  C   C62       1.0  0.1507001613675385  0.9033212582499104  0.6827045651839755  1.0000
  I   I1        1.0  0.6065528216927376  0.7748580901628656  0.02441473807422052  1.0000
  I   I2        1.0  0.4017245389299617  0.15131682921923328  0.38786127410263305  1.0000
  I   I3        1.0  0.4938646652638282  0.758282655913234  0.3546810491379446  1.0000
  I   I4        1.0  0.7137190249047833  0.8224427021498498  0.7209736143887542  1.0000
  O   O1        1.0  0.48322531089316095  0.8921301982013006  0.9166538490576176  1.0000
  O   O2        1.0  0.082320872644793  0.011974059934893002  0.4141083938540221  1.0000
  O   O3        1.0  0.07656894844171092  0.052619550108282495  0.6595003300438693  1.0000
  O   O4        1.0  0.08489812511775334  0.9591542308906967  0.5524771986963304  1.0000
  O   O5        1.0  0.9026492677228009  0.9299907070413411  0.5143177509431285  1.0000
  O   O6        1.0  0.9031555491084262  0.8289231977268301  0.40644922345499895  1.0000
  O   O7        1.0  0.9137208329952671  0.07750962487983773  0.4943982414222036  1.0000
  O   O8        1.0  0.9088483380044038  0.9744273883297578  0.38346482207390425  1.0000
  O   O9        1.0  0.5046606976632972  0.587008428109932  0.4154162602936324  1.0000
  O   O10       1.0  0.6122910065673324  0.5841812378398501  0.5143063834352405  1.0000
  O   O11       1.0  0.477805366558016  0.5977785913478543  0.5664390628869358  1.0000
  O   O12       1.0  0.5946441250052814  0.9976217639409056  0.9244198878476981  1.0000
  O   O13       1.0  0.590151124107102  0.6019060531884364  0.6674678169561262  1.0000
  O   O14       1.0  0.33852190473413657  0.41207239447319916  0.4262282981788205  1.0000
  O   O15       1.0  0.4437465777747178  0.4175966502404619  0.5368479750455748  1.0000
  O   O16       1.0  0.4732860379914642  0.4111810547711697  0.3851619975382691  1.0000
  O   O17       1.0  0.5836148236887908  0.4181536926253528  0.491738986248784  1.0000
  O   O18       1.0  0.34148743399352816  0.9257951250665145  0.9127503205395656  1.0000
  O   O19       1.0  0.4419350547072938  0.029893766306273103  0.9067136539997025  1.0000
  O   O20       1.0  0.47241721911065343  0.06446094324566329  0.08775350988101857  1.0000
  O   O21       1.0  0.5801489803671984  0.1695919027432495  0.09031812452848  1.0000
  O   O22       1.0  0.5113568696103596  0.9266920944456839  0.09570152849537546  1.0000
  O   O23       1.0  0.6169641370929284  0.03811488991979669  0.10300116440959785  1.0000
  O   O24       1.0  0.0949632325614118  0.11367415721138488  0.5330102997107675  1.0000
  F   F1        1.0  0.3597689157629915  0.13084934720669847  0.9046228451832834  1.0000
  F   F2        1.0  0.6613174505503991  0.4350824290093341  0.36118846594429493  1.0000
  F   F3        1.0  0.3161325867575755  0.183258795150131  0.24876998285174792  1.0000
  F   F4        1.0  0.3153390381523025  0.0652718131363272  0.11760185683315436  1.0000
  F   F5        1.0  0.2114408417689688  0.23348806030379168  0.3185765000379918  1.0000
  F   F6        1.0  0.32962541736457496  0.23158652777475192  0.6822571218409977  1.0000
  F   F7        1.0  0.25629402017217723  0.30069554000439064  0.6917801728438705  1.0000
  F   F8        1.0  0.0008825710200212991  0.6705309972611744  0.5318027631495357  1.0000
  F   F9        1.0  0.003291383194650008  0.8199115265718218  0.5631821702335387  1.0000
