data_image0
_chemical_formula_structural       Cd2H48C44N8O10F8
_chemical_formula_sum              "Cd2 H48 C44 N8 O10 F8"
_cell_length_a       8.898928083247338
_cell_length_b       10.92437621447265
_cell_length_c       12.49
_cell_angle_alpha    96.44248398338983
_cell_angle_beta     91.33784943627336
_cell_angle_gamma    97.75899192353945

_space_group_name_H-M_alt    "P 1"
_space_group_IT_number       1

loop_
  _space_group_symop_operation_xyz
  'x, y, z'

loop_
  _atom_site_type_symbol
  _atom_site_label
  _atom_site_symmetry_multiplicity
  _atom_site_fract_x
  _atom_site_fract_y
  _atom_site_fract_z
  _atom_site_occupancy
  Cd  Cd1       1.0  0.5175200086344134  0.2469780929391661  0.21343998759013516  1.0000
  Cd  Cd2       1.0  0.4824795913400095  0.7530209217306165  0.7865605495668434  1.0000
  H   H1        1.0  0.40782629721342534  0.9776163081576498  0.1290756311251329  1.0000
  H   H2        1.0  0.5921721787237432  0.0223827065121327  0.8709232860525589  1.0000
  H   H3        1.0  0.3841406652531987  0.1691069612815852  0.9530048437794605  1.0000
  H   H4        1.0  0.6158626213105549  0.8308939137303426  0.04699433599793681  1.0000
  H   H5        1.0  0.22095498033923627  0.3209452966064035  0.8420853082504962  1.0000
  H   H6        1.0  0.7790470249484756  0.679054648234448  0.1579145595658176  1.0000
  H   H7        1.0  0.2822508589564876  0.5368380024812396  0.2209925919912621  1.0000
  H   H8        1.0  0.7177511463312313  0.46316194235961916  0.7790072758250517  1.0000
  H   H9        1.0  0.4098714977219018  0.6293695604089251  0.1454032315532885  1.0000
  H   H10       1.0  0.5901293835285557  0.3706303844319265  0.8545966175647663  1.0000
  H   H11       1.0  0.4784503486499645  0.521783183676483  0.225100718675705  1.0000
  H   H12       1.0  0.5215506898392732  0.4782176913354448  0.7748992243456883  1.0000
  H   H13       1.0  0.196149482672908  0.5450160665486692  0.8731323204192805  1.0000
  H   H14       1.0  0.8038499600627347  0.4549820179500372  0.1268673221938315  1.0000
  H   H15       1.0  0.2881929183388223  0.6372732240100376  0.9869218046936651  1.0000
  H   H16       1.0  0.7118066816356006  0.362725790659745  0.01307793182279939  1.0000
  H   H17       1.0  0.07473448174904719  0.5784501355704919  0.1021328289473473  1.0000
  H   H18       1.0  0.9252660850238499  0.42154794892821457  0.8978684336450584  1.0000
  H   H19       1.0  0.01132161711092289  0.6393902933705391  0.9872083945087482  1.0000
  H   H20       1.0  0.9886779828635  0.3606087212992435  0.012793743929243793  1.0000
  H   H21       1.0  0.15938921765646089  0.0352795284292142  0.5539592608127606  1.0000
  H   H22       1.0  0.8406103823179618  0.9647194862405684  0.4460388744226762  1.0000
  H   H23       1.0  0.9886052752012446  0.03962993853424019  0.6217069675600655  1.0000
  H   H24       1.0  0.0113943247731783  0.9603690761355423  0.3782927689563991  1.0000
  H   H25       1.0  0.9126992013585989  0.19588565628129118  0.5048513883948331  1.0000
  H   H26       1.0  0.08729943181734255  0.8041142885595675  0.4951492239672248  1.0000
  H   H27       1.0  0.08077210179308028  0.24957885125724028  0.5854972205545224  1.0000
  H   H28       1.0  0.9192274981813494  0.7504201634125423  0.41450331660245615  1.0000
  H   H29       1.0  0.15714913113556148  0.2292239176826669  0.1647516821733603  1.0000
  H   H30       1.0  0.842851750114896  0.7707760271581918  0.8352489675852084  1.0000
  H   H31       1.0  0.9234547512526419  0.1758953497670461  0.3023358561821041  1.0000
  H   H32       1.0  0.07654403916208709  0.8241055252448817  0.6976640494427784  1.0000
  H   H33       1.0  0.4882377057918035  0.280943289643254  0.4822886510668312  1.0000
  H   H34       1.0  0.5117609273841452  0.7190566551975976  0.5177119612952268  1.0000
  H   H35       1.0  0.358228204238813  0.19314444213129886  0.559756707924862  1.0000
  H   H36       1.0  0.6417713957356098  0.8068545725384837  0.4402438292321094  1.0000
  H   H37       1.0  0.3541936760143328  0.3550490888002642  0.5612155470005504  1.0000
  H   H38       1.0  0.6458052716391689  0.6449527163827327  0.43878685444921217  1.0000
  H   H39       1.0  0.5676099986684021  0.023780753633758398  0.3341851284268245  1.0000
  H   H40       1.0  0.4323907253432751  0.976218261036024  0.6658130255068713  1.0000
  H   H41       1.0  0.5357947381845917  0.8832420813357871  0.24551167211595273  1.0000
  H   H42       1.0  0.4642059858270926  0.1167569333339955  0.754486481817743  1.0000
  H   H43       1.0  0.2899661060901479  0.9965183145173312  0.3776314238906977  1.0000
  H   H44       1.0  0.7100354274812304  0.0034788398103061  0.6223681622155937  1.0000
  H   H45       1.0  0.38151571559140507  0.8712307822795111  0.414782469661283  1.0000
  H   H46       1.0  0.618487256494788  0.1287682323902715  0.5852165223094303  1.0000
  H   H47       1.0  0.2627542824068954  0.8506898144904795  0.29562204296895084  1.0000
  H   H48       1.0  0.7372461271272284  0.14930733983715777  0.7043775244390815  1.0000
  C   C1        1.0  0.35584194178711925  0.2612748223200185  0.9766972145235329  1.0000
  C   C2        1.0  0.6441602207393726  0.7387260526919093  0.023302747196126475  1.0000
  C   C3        1.0  0.2766934837968904  0.3350671538256691  0.9213816293683409  1.0000
  C   C4        1.0  0.723307397453567  0.6649327910151825  0.0786182197497141  1.0000
  C   C5        1.0  0.3600733709992952  0.43813941034436976  0.0801844751341605  1.0000
  C   C6        1.0  0.6399273530123819  0.5618596043254129  0.9198160807210698  1.0000
  C   C7        1.0  0.3838663748786714  0.5371124029475567  0.1728107673153545  1.0000
  C   C8        1.0  0.6161343491330127  0.46288661172222584  0.8271889878993618  1.0000
  C   C9        1.0  0.20903929603851876  0.5525792875373341  0.9612010911494693  1.0000
  C   C10       1.0  0.7909603039359041  0.4474197271324485  0.038799446007502104  1.0000
  C   C11       1.0  0.05691251092723348  0.5587723665365374  0.014082112594380199  1.0000
  C   C12       1.0  0.9430858077711546  0.441225717962176  0.9859199132420214  1.0000
  C   C13       1.0  0.0398707155221985  0.049358597779154  0.5432711466639404  1.0000
  C   C14       1.0  0.9601291989297778  0.9506422772327738  0.45672877765920816  1.0000
  C   C15       1.0  0.0314338038202564  0.1820019228565215  0.5179283390244152  1.0000
  C   C16       1.0  0.9685664251092874  0.8180008124975515  0.4820701718243825  1.0000
  C   C17       1.0  0.1614314607071989  0.2277728508099202  0.2513554494884858  1.0000
  C   C18       1.0  0.8385682965060041  0.7722270940309386  0.7486451815718239  1.0000
  C   C19       1.0  0.044820257626057  0.1996844749404545  0.3180249112290241  1.0000
  C   C20       1.0  0.9551796568259262  0.8003164000714733  0.6819750130941173  1.0000
  C   C21       1.0  0.2638753307675543  0.2452023963621883  0.4143329928327972  1.0000
  C   C22       1.0  0.7361244264456488  0.7547975484786633  0.5856676382275198  1.0000
  C   C23       1.0  0.3716192084073739  0.2699672709904206  0.5094196368639601  1.0000
  C   C24       1.0  0.6283803915670488  0.730031743679362  0.4905809002930113  1.0000
  C   C25       1.0  0.7331812028565707  0.1251675401694996  0.05225305649090469  1.0000
  C   C26       1.0  0.26681774479693127  0.8748342650134971  0.9477469430373233  1.0000
  C   C27       1.0  0.8702797835357643  0.0603076414708923  0.024884852743966197  1.0000
  C   C28       1.0  0.12971947859529104  0.9396960240542497  0.9751153345909458  1.0000
  C   C29       1.0  0.922036556473948  0.9793203815620544  0.09168622209839579  1.0000
  C   C30       1.0  0.07796382969436878  0.0206832839630877  0.9083147845752819  1.0000
  C   C31       1.0  0.04845471243931597  0.9206572825469407  0.0674466675812155  1.0000
  C   C32       1.0  0.9515456737290008  0.0793463829782013  0.9325543390924692  1.0000
  C   C33       1.0  0.7364631529396988  0.3759956111768048  0.364517381710435  1.0000
  C   C34       1.0  0.2635345134377758  0.6240052638351229  0.6354817045756818  1.0000
  C   C35       1.0  0.870545406488894  0.4427511985207033  0.4341839790013253  1.0000
  C   C36       1.0  0.12945435072430908  0.5572487463201483  0.5658166520589915  1.0000
  C   C37       1.0  0.00023426218056949523  0.5003650645662958  0.3896209095890484  1.0000
  C   C38       1.0  0.9997656522714139  0.499635810445632  0.610379815374607  1.0000
  C   C39       1.0  0.8734833826019112  0.44447852620191947  0.5461317567088813  1.0000
  C   C40       1.0  0.12651540781281767  0.5555223488100083  0.4538689495565151  1.0000
  C   C41       1.0  0.48122997071710216  0.9619475764451906  0.28184382124705815  1.0000
  C   C42       1.0  0.5187696292573206  0.038051438224592  0.7181551146288925  1.0000
  C   C43       1.0  0.3459659516200304  0.9170063610882621  0.34628323210969814  1.0000
  C   C44       1.0  0.6540346151528738  0.0829917234104443  0.6537164292016726  1.0000
  N   N1        1.0  0.40763669600681846  0.3263142440355722  0.0749682544239221  1.0000
  N   N2        1.0  0.5923653092808933  0.6736857008052866  0.9250316133923917  1.0000
  N   N3        1.0  0.2808989942952707  0.4462616641474709  0.9871032917694222  1.0000
  N   N4        1.0  0.7191018869551867  0.5537382806933877  0.012897357989146499  1.0000
  N   N5        1.0  0.29688739276403453  0.2558826206140452  0.3114355148539332  1.0000
  N   N6        1.0  0.7031122072103883  0.7441163940557374  0.6885658229435521  1.0000
  N   N7        1.0  0.11086317287531237  0.21097582158679268  0.4207624949608757  1.0000
  N   N8        1.0  0.8891377083751449  0.789024123254066  0.5792373541571862  1.0000
  O   O1        1.0  0.6257380360302349  0.11357202758252778  0.9828169483244267  1.0000
  O   O2        1.0  0.37426156394418797  0.8864269870872546  0.01718358883254468  1.0000
  O   O3        1.0  0.7407586589010293  0.1871420482019133  0.1449425165829226  1.0000
  O   O4        1.0  0.25923916471521835  0.8128597569810907  0.8550566636065398  1.0000
  O   O5        1.0  0.6920610555251654  0.2638309324266288  0.3780934890467975  1.0000
  O   O6        1.0  0.30794110700132643  0.736169942585299  0.6219064726728547  1.0000
  O   O7        1.0  0.6792820393541916  0.4362846492262591  0.2965278265873437  1.0000
  O   O8        1.0  0.32071690829931027  0.5637171559567449  0.7034713723003776  1.0000
  O   O9        1.0  0.43820856203310393  0.0326908623350732  0.1985483052670105  1.0000
  O   O10       1.0  0.5617899139040644  0.9673081523347093  0.8014506119106812  1.0000
  F   F1        1.0  0.846671106368575  0.9536011514136788  0.18164661072439967  1.0000
  F   F2        1.0  0.1533291225609617  0.0464015839403942  0.8183535014054256  1.0000
  F   F3        1.0  0.08980211162654676  0.8409155768630255  0.135104403419426  1.0000
  F   F4        1.0  0.9101984317805503  0.1590890188331926  0.8648974977981041  1.0000
  F   F5        1.0  0.006427551086076698  0.5030039598983365  0.2814360800837008  1.0000
  F   F6        1.0  0.993575263761329  0.4969941246003771  0.7185644192647018  1.0000
  F   F7        1.0  0.7511774627760062  0.3903090836369643  0.59467689586576  1.0000
  F   F8        1.0  0.2488237329520118  0.6096927215460397  0.4053239416994927  1.0000
