data_image0
_chemical_formula_structural       Al2H13C24NO10F2
_chemical_formula_sum              "Al2 H13 C24 N1 O10 F2"
_cell_length_a       6.667064943929627
_cell_length_b       11.117034582963143
_cell_length_c       17.962356070568454
_cell_angle_alpha    83.00166257000387
_cell_angle_beta     77.61535666519352
_cell_angle_gamma    73.04669067273066

_space_group_name_H-M_alt    "P 1"
_space_group_IT_number       1

loop_
  _space_group_symop_operation_xyz
  'x, y, z'

loop_
  _atom_site_type_symbol
  _atom_site_label
  _atom_site_symmetry_multiplicity
  _atom_site_fract_x
  _atom_site_fract_y
  _atom_site_fract_z
  _atom_site_occupancy
  Al  Al1       1.0  0.4936903851597592  0.5021452033556386  0.5022251022323585  1.0000
  Al  Al2       1.0  0.9951843972726095  0.49710379270835864  0.5031651407092781  1.0000
  H   H1        1.0  0.26386101515132054  0.5641007177285644  0.40996461130900025  1.0000
  H   H2        1.0  0.7773829575470543  0.35669091899826816  0.55800299367408  1.0000
  H   H3        1.0  0.11239555225090209  0.10780722174131803  0.5406615356992858  1.0000
  H   H4        1.0  0.7608099504083228  0.12688381590498923  0.46781422313105026  1.0000
  H   H5        1.0  0.2432844144845063  0.8714931929648131  0.5428592141645581  1.0000
  H   H6        1.0  0.5989045196218825  0.4416364683622264  0.27476333619871696  1.0000
  H   H7        1.0  0.6675295957330574  0.4388188960220489  0.13293741584850946  1.0000
  H   H8        1.0  0.24032679332048437  0.5544172966908649  0.12155266964595055  1.0000
  H   H9        1.0  0.7673329192054936  0.45205766220009025  0.8857946498746753  1.0000
  H   H10       1.0  0.4065858313215004  0.5554260435869623  0.723780700683015  1.0000
  H   H11       1.0  0.3537780700812192  0.5573802266441846  0.8654300428843553  1.0000
  H   H12       1.0  0.9971631680172737  0.7882911377502209  0.4706987050783126  1.0000
  H   H13       1.0  0.03970529982147737  0.9382294670114392  0.45176449139520963  1.0000
  C   C1        1.0  0.8316222256536107  0.49484006097603844  0.36361485165551233  1.0000
  C   C2        1.0  0.6326393077047785  0.7273296785411035  0.5045783632204246  1.0000
  C   C3        1.0  0.15956239589932847  0.5073789867980738  0.6396937136721943  1.0000
  C   C4        1.0  0.3599539433470865  0.27036628934051526  0.5028073576158858  1.0000
  C   C5        1.0  0.572003534304038  0.8659047673089761  0.5049058981505253  1.0000
  C   C6        1.0  0.4315962421805751  0.1299814918395583  0.5029610356086136  1.0000
  C   C7        1.0  0.7254546030225838  0.9369225570415056  0.4837968420175611  1.0000
  C   C8        1.0  0.2811315758137312  0.05946878020204593  0.524238547933237  1.0000
  C   C9        1.0  0.6480305495978413  0.0698485790419241  0.48368151248290997  1.0000
  C   C10       1.0  0.3540082108013109  0.929414468646833  0.525299301252744  1.0000
  C   C11       1.0  0.880387211258068  0.4948282652818677  0.2785587342848145  1.0000
  C   C12       1.0  0.740044765287493  0.4645839893623035  0.2402228456700755  1.0000
  C   C13       1.0  0.7775133399786753  0.4637364448517972  0.16129852754094998  1.0000
  C   C14       1.0  0.9587073600155307  0.49605704796898925  0.11675494337529806  1.0000
  C   C15       1.0  0.10065925133321936  0.527337501174678  0.15404154804681974  1.0000
  C   C16       1.0  0.06034438254897618  0.5255571027950128  0.23305363093544418  1.0000
  C   C17       1.0  0.9963217682706972  0.4986963523006764  0.03612323238782269  1.0000
  C   C18       1.0  0.025712316806362896  0.5021655016832156  0.9665284924135302  1.0000
  C   C19       1.0  0.05682405581757174  0.5052510968938577  0.8859821808124121  1.0000
  C   C20       1.0  0.9067403623487708  0.4770304773154734  0.8513277815311396  1.0000
  C   C21       1.0  0.9382203316225034  0.4793952409716837  0.7723813052524731  1.0000
  C   C22       1.0  0.11702958135652608  0.5079207771874863  0.7246469940286956  1.0000
  C   C23       1.0  0.26573610750947546  0.5351692481238572  0.7603714102744303  1.0000
  C   C24       1.0  0.23730157422244255  0.5350843859080071  0.8391221075759175  1.0000
  N   N1        1.0  0.938437247362238  0.8832192603421093  0.4624575111016893  1.0000
  O   O1        1.0  0.6383149153930249  0.502799065419815  0.3957486510426163  1.0000
  O   O2        1.0  0.8308689069971464  0.6684706996354565  0.4999674986898411  1.0000
  O   O3        1.0  0.0070966585615082  0.5102583308348372  0.6069676685826124  1.0000
  O   O4        1.0  0.5031602320254509  0.3270427566663159  0.4991314065490753  1.0000
  O   O5        1.0  0.3497101582837986  0.5035308036963072  0.6061593697913422  1.0000
  O   O6        1.0  0.16046034026227565  0.323208551606868  0.5072265304307917  1.0000
  O   O7        1.0  0.9848909782833031  0.4871882147537008  0.39718214641607114  1.0000
  O   O8        1.0  0.48600321086806986  0.6734752652298114  0.5074187310625787  1.0000
  O   O9        1.0  0.23822481743529528  0.5542379242066956  0.46542580896788616  1.0000
  O   O10       1.0  0.7521731170754506  0.44227414317740005  0.5355870651997703  1.0000
  F   F1        1.0  0.20219607006702486  0.5590946063246633  0.2650790221365824  1.0000
  F   F2        1.0  0.7894295261428399  0.4491470983011184  0.7428092725653241  1.0000
