data_image0
_chemical_formula_structural       Ni2H32C28N8O8
_chemical_formula_sum              "Ni2 H32 C28 N8 O8"
_cell_length_a       8.382323139925703
_cell_length_b       8.421590180358866
_cell_length_c       11.791066299315167
_cell_angle_alpha    90.00024737843793
_cell_angle_beta     89.99738075171189
_cell_angle_gamma    113.19988201203256

_space_group_name_H-M_alt    "P 1"
_space_group_IT_number       1

loop_
  _space_group_symop_operation_xyz
  'x, y, z'

loop_
  _atom_site_type_symbol
  _atom_site_label
  _atom_site_symmetry_multiplicity
  _atom_site_fract_x
  _atom_site_fract_y
  _atom_site_fract_z
  _atom_site_occupancy
  Ni  Ni1       1.0  7.5186282941999996e-06  6.063346766900002e-06  0.4999997329019763  1.0000
  Ni  Ni2       1.0  0.4999973753649345  0.4999943091008988  2.551290307899997e-06  1.0000
  H   H1        1.0  0.8565518228368704  0.3816173344432272  0.7760273516127754  1.0000
  H   H2        1.0  0.6434284823404114  0.1183762449761687  0.276021486236445  1.0000
  H   H3        1.0  0.14345238157947904  0.6183844713332861  0.22397043206634487  1.0000
  H   H4        1.0  0.356565921930482  0.8816150019263631  0.7239813861896424  1.0000
  H   H5        1.0  0.923916836673655  0.6817725067593018  0.647352036728222  1.0000
  H   H6        1.0  0.5760630111426793  0.8182309576932172  0.1473572808762214  1.0000
  H   H7        1.0  0.07609306769533218  0.3182384285620047  0.35265083546594406  1.0000
  H   H8        1.0  0.42391620409557623  0.18175461830711734  0.8526506803900417  1.0000
  H   H9        1.0  0.8324795127168231  0.9238669294648574  0.7291301084220051  1.0000
  H   H10       1.0  0.6675152932260033  0.576133115565966  0.2291208218465712  1.0000
  H   H11       1.0  0.16751957631520753  0.07613722818555152  0.2708685234428643  1.0000
  H   H12       1.0  0.332476221735007  0.4238567481800146  0.7708803544257635  1.0000
  H   H13       1.0  0.7901622097714808  0.056649922517422596  0.8331679570311651  1.0000
  H   H14       1.0  0.7098335397824372  0.4433470566241553  0.3331555327659572  1.0000
  H   H15       1.0  0.20983399004234826  0.9433528520023629  0.1668264343807948  1.0000
  H   H16       1.0  0.2901617228346823  0.5566531356769318  0.6668464915559937  1.0000
  H   H17       1.0  0.004074732633405591  0.06444175651064649  0.8157481087596351  1.0000
  H   H18       1.0  0.4959179478180007  0.4355614959139942  0.3157458332238932  1.0000
  H   H19       1.0  0.9959168986795816  0.9355582976526833  0.1842522194220209  1.0000
  H   H20       1.0  0.5040800091815782  0.5644362523839134  0.6842578872508865  1.0000
  H   H21       1.0  0.4493874184071913  0.6977528986837811  0.3682756265013012  1.0000
  H   H22       1.0  0.0505885451611547  0.8022411457939499  0.868278589761374  1.0000
  H   H23       1.0  0.550636505827228  0.30224074469371237  0.6317111315507943  1.0000
  H   H24       1.0  0.9493951980235382  0.19777006756454807  0.1317141056635691  1.0000
  H   H25       1.0  0.4113923474578129  0.8864386962538122  0.3961899553238126  1.0000
  H   H26       1.0  0.08858152571330889  0.6135611426646365  0.8961938173123087  1.0000
  H   H27       1.0  0.58861443526407  0.11355047517994882  0.6038027397013437  1.0000
  H   H28       1.0  0.9114197485025671  0.38646219686199157  0.1038022702383188  1.0000
  H   H29       1.0  0.43034233281776585  0.7551979489437176  0.5109407893307036  1.0000
  H   H30       1.0  0.06960311785059052  0.7447897769573047  0.010942693796899102  1.0000
  H   H31       1.0  0.5696664810511365  0.24478366029988052  0.4890493613540201  1.0000
  H   H32       1.0  0.9304007723251149  0.25523748186696343  0.9890500013163646  1.0000
  C   C1        1.0  0.9527469579777516  0.440922037868731  0.6074838360099619  1.0000
  C   C2        1.0  0.5472558409500367  0.0590804625246335  0.1074792875841055  1.0000
  C   C3        1.0  0.04727907228441805  0.5590971504784292  0.3925156435309347  1.0000
  C   C4        1.0  0.45271814264361154  0.9408972749581751  0.8925278256594424  1.0000
  C   C5        1.0  0.9951081449555094  0.33851512453789206  0.5259060188639566  1.0000
  C   C6        1.0  0.5048880388964464  0.16148092332462485  0.0258988329917003  1.0000
  C   C7        1.0  0.004901369589205613  0.6614881564726077  0.47409600522863826  1.0000
  C   C8        1.0  0.4950991023688829  0.8385100471900557  0.9741116724501139  1.0000
  C   C9        1.0  0.9553889933155804  0.6041512777760901  0.5845818832974246  1.0000
  C   C10       1.0  0.5445994784351171  0.8958548950357541  0.0845781443222862  1.0000
  C   C11       1.0  0.044617084944100285  0.3958556922822965  0.415415900356642  1.0000
  C   C12       1.0  0.45539660499618156  0.10413768905804942  0.9154179432800761  1.0000
  C   C13       1.0  0.9210862385228682  0.18890226922020054  0.6845983973267381  1.0000
  C   C14       1.0  0.578905887557781  0.3111010117454498  0.18459166015211537  1.0000
  C   C15       1.0  0.07891890272346552  0.8111021186713286  0.3154019306390126  1.0000
  C   C16       1.0  0.42108636930579724  0.6888876069558239  0.8154120604059187  1.0000
  C   C17       1.0  0.8844068642326023  0.0505504087655098  0.7705953109263959  1.0000
  C   C18       1.0  0.6155873424238294  0.44944761508666903  0.2705876731142354  1.0000
  C   C19       1.0  0.11558886693703115  0.9494510746319661  0.2294041690901381  1.0000
  C   C20       1.0  0.38440557782799806  0.5505461218447963  0.7294160474384626  1.0000
  C   C21       1.0  0.4790705486002765  0.8070288040715425  0.4270256709706217  1.0000
  C   C22       1.0  0.020898954899649824  0.6929677783289278  0.9270293689237193  1.0000
  C   C23       1.0  0.5209449023568665  0.1929645169182663  0.5729636315186042  1.0000
  C   C24       1.0  0.9790937299620238  0.3070450484704424  0.0729624782572671  1.0000
  C   C25       1.0  0.6727310983158077  0.9107751016839529  0.4275883032839404  1.0000
  C   C26       1.0  0.8272474516230234  0.5892220981666512  0.9276029787389817  1.0000
  C   C27       1.0  0.3272811107947363  0.0892257353752157  0.5724103283631763  1.0000
  C   C28       1.0  0.17274921628490597  0.41078196731991307  0.0724015898633397  1.0000
  N   N1        1.0  0.909450872891796  0.3427223152435702  0.7054704864392178  1.0000
  N   N2        1.0  0.590542638170696  0.15728192354909257  0.2054681277339938  1.0000
  N   N3        1.0  0.09054727915744816  0.6572792602486218  0.2945298416376119  1.0000
  N   N4        1.0  0.4094436828305561  0.8427166553284026  0.7945330486324808  1.0000
  N   N5        1.0  0.9726383791932491  0.18258330556384547  0.5776377568140703  1.0000
  N   N6        1.0  0.5273680548106725  0.3174173129844888  0.0776301718710926  1.0000
  N   N7        1.0  0.027369651332406823  0.8174224654755946  0.4223651154051494  1.0000
  N   N8        1.0  0.47261963373541954  0.6825685854121701  0.9223743968583236  1.0000
  O   O1        1.0  0.7430409037963274  0.025847919008775505  0.3541831750295827  1.0000
  O   O2        1.0  0.7569184628648246  0.4741282063951147  0.8541975803523911  1.0000
  O   O3        1.0  0.2569663846128306  0.9741590970148835  0.6458230896019543  1.0000
  O   O4        1.0  0.2430839459169006  0.5258620717382242  0.1458112286399995  1.0000
  O   O5        1.0  0.7584857757705804  0.8704396614851647  0.5057706287228214  1.0000
  O   O6        1.0  0.7415021658933582  0.6295806133442097  0.0057793954360577  1.0000
  O   O7        1.0  0.2415269016785544  0.12956246660990442  0.494231395316909  1.0000
  O   O8        1.0  0.2584943070871546  0.3704196249826381  0.99422517316534  1.0000
