data_image0
_chemical_formula_structural       Er2H18C18N2O22
_chemical_formula_sum              "Er2 H18 C18 N2 O22"
_cell_length_a       7.346522654271336
_cell_length_b       9.258139409808877
_cell_length_c       11.486247028214223
_cell_angle_alpha    73.39018015021054
_cell_angle_beta     70.58335339854868
_cell_angle_gamma    80.04360272351042

_space_group_name_H-M_alt    "P 1"
_space_group_IT_number       1

loop_
  _space_group_symop_operation_xyz
  'x, y, z'

loop_
  _atom_site_type_symbol
  _atom_site_label
  _atom_site_symmetry_multiplicity
  _atom_site_fract_x
  _atom_site_fract_y
  _atom_site_fract_z
  _atom_site_occupancy
  Er  Er1       1.0  0.10697902289591352  0.05282192326315989  0.21954432003203553  1.0000
  Er  Er2       1.0  0.8930345570522819  0.9471784844657022  0.7804585761142349  1.0000
  H   H1        1.0  0.8201745683201835  0.09771676499634911  0.459740753595014  1.0000
  H   H2        1.0  0.17987262978441268  0.9022827985324255  0.5402362369873899  1.0000
  H   H3        1.0  0.6854571674557164  0.10098654775901393  0.3725942566682151  1.0000
  H   H4        1.0  0.3145513080796718  0.8990093889414651  0.6274019907218006  1.0000
  H   H5        1.0  0.4800798871715202  0.056276411863969075  0.22775795902057183  1.0000
  H   H6        1.0  0.519919024513058  0.9437161693238919  0.7722323097174099  1.0000
  H   H7        1.0  0.547109152468977  0.014483666835360502  0.09222409160368983  1.0000
  H   H8        1.0  0.4529071663786936  0.9855066244828876  0.9077735458079275  1.0000
  H   H9        1.0  0.21187834707768619  0.5156977413404251  0.279048026266544  1.0000
  H   H10       1.0  0.7881308237600564  0.48431626199874955  0.7209492439655635  1.0000
  H   H11       1.0  0.369854697640598  0.19662971170691892  0.5945231968339969  1.0000
  H   H12       1.0  0.6301376800657293  0.8033672455539714  0.4054822394066804  1.0000
  H   H13       1.0  0.20886796751913286  0.6652877904751548  0.6013657322499455  1.0000
  H   H14       1.0  0.7911399791140283  0.33469901489383597  0.39864138187815  1.0000
  H   H15       1.0  0.10420828910881137  0.3572137841940304  0.15958458203819254  1.0000
  H   H16       1.0  0.8957635128545932  0.6427889067061442  0.840406400857752  1.0000
  H   H17       1.0  0.921613170437972  0.359541581775339  0.12043735371351262  1.0000
  H   H18       1.0  0.07838310701101392  0.640451124576735  0.8795377586616411  1.0000
  C   C1        1.0  0.1572359008062989  0.7651223642710789  0.36335373443309754  1.0000
  C   C2        1.0  0.8427351631190518  0.2348710822066806  0.6366612438460705  1.0000
  C   C3        1.0  0.20884509925585354  0.6076413767086635  0.43096363340021077  1.0000
  C   C4        1.0  0.7911480628491746  0.3923612424903594  0.5690403692708516  1.0000
  C   C5        1.0  0.2346364149663032  0.4897843274741262  0.37201676533602784  1.0000
  C   C6        1.0  0.7653559572980059  0.5102250797237103  0.6279858758583003  1.0000
  C   C7        1.0  0.2927839777806582  0.3418486854161458  0.4293487433411372  1.0000
  C   C8        1.0  0.7072072848765385  0.6581584915399503  0.5706502744694008  1.0000
  C   C9        1.0  0.32298573817936926  0.3103865845994278  0.5482811684028093  1.0000
  C   C10       1.0  0.6770001962701997  0.6896047499486926  0.4517198954860931  1.0000
  C   C11       1.0  0.2876103758493826  0.4286661733490007  0.6081540043131853  1.0000
  C   C12       1.0  0.7123991272639286  0.5713343542716204  0.39183403447592724  1.0000
  C   C13       1.0  0.23245151167731856  0.5765523907257659  0.5518373063855508  1.0000
  C   C14       1.0  0.76757225012026  0.4234480991466257  0.44815824526296666  1.0000
  C   C15       1.0  0.31727688548722455  0.21848768942356864  0.36252981760136993  1.0000
  C   C16       1.0  0.6827186988092323  0.7815207025375627  0.6374601990922742  1.0000
  C   C17       1.0  0.10766933187527883  0.9901963849140999  0.9622799887579063  1.0000
  C   C18       1.0  0.8923462248245285  0.009820805065494697  0.03774223824077441  1.0000
  N   N1        1.0  0.31695633228456893  0.39761826382290616  0.7339186572931666  1.0000
  N   N2        1.0  0.6830362746585977  0.6023776148806164  0.2660808791592332  1.0000
  O   O1        1.0  0.16355631007794358  0.8779478459535993  0.4056514442346071  1.0000
  O   O2        1.0  0.8364622279839509  0.12204690584814412  0.5943534399446122  1.0000
  O   O3        1.0  0.11041824510747487  0.7873428641730484  0.2619868935780403  1.0000
  O   O4        1.0  0.8895331078776962  0.21265721128894197  0.73804111321423  1.0000
  O   O5        1.0  0.18601024209282  0.2231831494176646  0.310474005093063  1.0000
  O   O6        1.0  0.813966947664639  0.7768205581963343  0.6895313092415805  1.0000
  O   O7        1.0  0.4602964318561221  0.12035412490547508  0.36063531247721414  1.0000
  O   O8        1.0  0.5397164040454215  0.8796691560191975  0.6393347386313053  1.0000
  O   O9        1.0  0.3782733994583651  0.2685484784052647  0.7799832306634187  1.0000
  O   O10       1.0  0.6216457363344644  0.731432328327344  0.22004530686626114  1.0000
  O   O11       1.0  0.2830381702961802  0.50481853581816  0.7859375428097977  1.0000
  O   O12       1.0  0.7170147091092431  0.49519345350098837  0.2140407081616331  1.0000
  O   O13       1.0  0.8218185624928225  0.0864266830421059  0.3755472775123039  1.0000
  O   O14       1.0  0.1781982008861291  0.9135614436220078  0.6244394355657691  1.0000
  O   O15       1.0  0.43256529958642187  0.04196337052229641  0.16046590526697463  1.0000
  O   O16       1.0  0.5674344243816308  0.9580348876824872  0.8395211794153781  1.0000
  O   O17       1.0  0.05410303548774922  0.3124310346886716  0.10990278124659618  1.0000
  O   O18       1.0  0.9458857137318544  0.6875490219581265  0.8900967517924843  1.0000
  O   O19       1.0  0.2278369665679065  0.0115431364295944  0.012475156298123104  1.0000
  O   O20       1.0  0.772188769639527  0.9884604790294844  0.9875515005920336  1.0000
  O   O21       1.0  0.14743012695430485  0.9548942622991489  0.857794642819144  1.0000
  O   O22       1.0  0.8525793542409233  0.0451251466387319  0.14223095210567746  1.0000
