data_image0
_chemical_formula_structural       Mg6H39C72Br3O18
_chemical_formula_sum              "Mg6 H39 C72 Br3 O18"
_cell_length_a       6.8414123802435505
_cell_length_b       34.406816750839695
_cell_length_c       34.40075877679681
_cell_angle_alpha    119.56381788994449
_cell_angle_beta     93.79631515232802
_cell_angle_gamma    93.8011187312641

_space_group_name_H-M_alt    "P 1"
_space_group_IT_number       1

loop_
  _space_group_symop_operation_xyz
  'x, y, z'

loop_
  _atom_site_type_symbol
  _atom_site_label
  _atom_site_symmetry_multiplicity
  _atom_site_fract_x
  _atom_site_fract_y
  _atom_site_fract_z
  _atom_site_occupancy
  Mg  Mg1       1.0  0.17734503305420193  0.6700536117309069  0.3045894667086272  1.0000
  Mg  Mg2       1.0  0.8729273914670587  0.6954314819783534  0.3654932669749227  1.0000
  Mg  Mg3       1.0  0.5072931752454651  0.6345525131172992  0.3300166829497114  1.0000
  Mg  Mg4       1.0  0.696554996647109  0.3302067166730964  0.6957016510627481  1.0000
  Mg  Mg5       1.0  0.0008830535009068756  0.30423352815699195  0.6344726884716748  1.0000
  Mg  Mg6       1.0  0.36629491795337543  0.3654582358149979  0.6697372923743856  1.0000
  H   H1        1.0  0.0473959008313686  0.9371407537304253  0.49976430932362337  1.0000
  H   H2        1.0  0.5480345931886746  0.5001817942280554  0.4372873936495765  1.0000
  H   H3        1.0  0.11014481778607182  0.5626381998662993  0.06296151272453436  1.0000
  H   H4        1.0  0.26152180202710446  0.008509972681295603  0.5358655744972936  1.0000
  H   H5        1.0  0.725887797090458  0.46407395225365633  0.4725743481318004  1.0000
  H   H6        1.0  0.25314910496497595  0.5273791475265313  0.9916105275254808  1.0000
  H   H7        1.0  0.8097682770553974  0.0677100060374727  0.49598358494875333  1.0000
  H   H8        1.0  0.31392104809926036  0.504017387274523  0.5716792715794909  1.0000
  H   H9        1.0  0.7417904626947305  0.42838602874955006  0.9323096163287159  1.0000
  H   H10       1.0  0.08590772395767494  0.11487020640629451  0.54112675155622  1.0000
  H   H11       1.0  0.5450081440876533  0.4588424360858384  0.5737043385231927  1.0000
  H   H12       1.0  0.9707354973925035  0.4263661166730587  0.8851379942106873  1.0000
  H   H13       1.0  0.4452971975861999  0.07140112285743781  0.5540684362373085  1.0000
  H   H14       1.0  0.8915790009938578  0.4459487985093703  0.5173384703579842  1.0000
  H   H15       1.0  0.37385126537773067  0.4826231595371837  0.9285990712317513  1.0000
  H   H16       1.0  0.2196662319437266  0.179418565966408  0.580451726326224  1.0000
  H   H17       1.0  0.6393139588874704  0.4194555780012621  0.5988665378687087  1.0000
  H   H18       1.0  0.04020965500463803  0.4010229344927794  0.820581009210656  1.0000
  H   H19       1.0  0.9376307061925362  0.19591717505223025  0.6246923538915894  1.0000
  H   H20       1.0  0.31325254416145043  0.37532369477337824  0.5713177351398286  1.0000
  H   H21       1.0  0.7415729978119502  0.4287620984026432  0.8040015372885916  1.0000
  H   H22       1.0  0.7503961681385148  0.1198422638016226  0.5842935627631929  1.0000
  H   H23       1.0  0.1667545385678722  0.41575526104750804  0.535627920485588  1.0000
  H   H24       1.0  0.6306948890847439  0.4644387252831237  0.8801233110356248  1.0000
  H   H25       1.0  0.7888092289929178  0.8897810250741074  0.45419539906938405  1.0000
  H   H26       1.0  0.33492711107378176  0.5458591661397918  0.4355097941308513  1.0000
  H   H27       1.0  0.8985120004481361  0.5644515031225978  0.1103333833226684  1.0000
  H   H28       1.0  0.4013858400939868  0.928258093147548  0.449480077217629  1.0000
  H   H29       1.0  0.9524294745616616  0.5504940650699411  0.478780960915877  1.0000
  H   H30       1.0  0.47264656386069254  0.5212598852774946  0.07174755643320904  1.0000
  H   H31       1.0  0.6521051349037921  0.8218723711540862  0.42177269974796866  1.0000
  H   H32       1.0  0.22987794200697215  0.5781207904074606  0.3999848866186112  1.0000
  H   H33       1.0  0.8295865308648943  0.599962466436267  0.17811345863086805  1.0000
  H   H34       1.0  0.9320145537436704  0.8028589800261089  0.37744520525572506  1.0000
  H   H35       1.0  0.5544618702630546  0.6226457607883094  0.4255352292414826  1.0000
  H   H36       1.0  0.12865180906001691  0.5745363554936278  0.1972427942681989  1.0000
  H   H37       1.0  0.11470594219596117  0.8795124694882118  0.41846240882954777  1.0000
  H   H38       1.0  0.6962671418303686  0.58163908567046  0.46118018607384664  1.0000
  H   H39       1.0  0.23459609325986722  0.5388704838327882  0.12053620911140672  1.0000
  C   C1        1.0  0.7430601845493644  0.9984100733731297  0.47654559531112983  1.0000
  C   C2        1.0  0.2670134495250808  0.5234646567281517  0.5218069298281308  1.0000
  C   C3        1.0  0.7445159216505033  0.478203502274468  0.0016326770316652671  1.0000
  C   C4        1.0  0.8026274995413731  0.9600073690142636  0.4770868299005854  1.0000
  C   C5        1.0  0.32609559019636697  0.5229373681782122  0.48286359177325977  1.0000
  C   C6        1.0  0.8423614694254271  0.5171350398353598  0.04006383911253411  1.0000
  C   C7        1.0  0.995240449886808  0.9660602074804246  0.49891284081577664  1.0000
  C   C8        1.0  0.4967682556619836  0.5010722222770667  0.467080739436163  1.0000
  C   C9        1.0  0.029006853756477862  0.5328955571301607  0.034031675847820866  1.0000
  C   C10       1.0  0.1162699619917191  0.006343152118148499  0.5194188062373399  1.0000
  C   C11       1.0  0.5971494496016875  0.48054884958111904  0.48687167862499325  1.0000
  C   C12       1.0  0.10994587679626029  0.5131156832941458  0.9937501947291593  1.0000
  C   C13       1.0  0.05189258814974101  0.0444173012976563  0.5193597897874298  1.0000
  C   C14       1.0  0.5328991597927769  0.4806446116547108  0.5250373647392194  1.0000
  C   C15       1.0  0.007420769344150784  0.47501491247552247  0.9556340455642667  1.0000
  C   C16       1.0  0.8626953591463719  0.039204888738773  0.4974425266411728  1.0000
  C   C17       1.0  0.3655954388456167  0.5025632615177571  0.5417282808012016  1.0000
  C   C18       1.0  0.8233388410902408  0.4583304495410232  0.9608214807045028  1.0000
  C   C19       1.0  0.16732782289619055  0.08809764225829042  0.5400333677117004  1.0000
  C   C20       1.0  0.6276185050175233  0.45994819196599235  0.548039323626817  1.0000
  C   C21       1.0  0.07904992449291376  0.45199495545135454  0.9119149127406984  1.0000
  C   C22       1.0  0.36007333844239053  0.09829788285320262  0.5568783754018013  1.0000
  C   C23       1.0  0.803543657381589  0.4431122382307039  0.5414156462945314  1.0000
  C   C24       1.0  0.2616572272261807  0.4585727730404018  0.9016982427991349  1.0000
  C   C25       1.0  0.4685362542808278  0.14307710710533433  0.5790646123340152  1.0000
  C   C26       1.0  0.8898798955418459  0.42091445440574665  0.5640088471125748  1.0000
  C   C27       1.0  0.32544333848670715  0.43598161893111625  0.8569075353510485  1.0000
  C   C28       1.0  0.37716846658788233  0.18174444080111132  0.589644960320733  1.0000
  C   C29       1.0  0.7877095743786525  0.4102823267020881  0.5920401891194655  1.0000
  C   C30       1.0  0.19537254092016104  0.40789380980410783  0.8182395021216706  1.0000
  C   C31       1.0  0.47919323574316053  0.22507382130612538  0.6129889092945574  1.0000
  C   C32       1.0  0.86619704049744  0.3869066288293439  0.6120177912245451  1.0000
  C   C33       1.0  0.25400574904127643  0.3879150145977804  0.7748947838664362  1.0000
  C   C34       1.0  0.6868507073193442  0.2309251172410924  0.6266444861204334  1.0000
  C   C35       1.0  0.060178671426825855  0.3732613658718479  0.6042341282464675  1.0000
  C   C36       1.0  0.4557638904633949  0.39572392093564457  0.7690348089621749  1.0000
  C   C37       1.0  0.7795969199622734  0.19169907335110284  0.6146880699785839  1.0000
  C   C38       1.0  0.16513187209151442  0.38527583643514884  0.5770326555975629  1.0000
  C   C39       1.0  0.5878104095483041  0.422989083699477  0.8082558330326108  1.0000
  C   C40       1.0  0.6738330997185715  0.1492919554594465  0.592057967639441  1.0000
  C   C41       1.0  0.08228618103167668  0.4079519936587347  0.5572723920579533  1.0000
  C   C42       1.0  0.5245807403963739  0.44275058662796607  0.8506887773270719  1.0000
  C   C43       1.0  0.363024600876031  0.2629972685839378  0.6231803294773924  1.0000
  C   C44       1.0  0.739791794492888  0.3767232425527921  0.6397393051999598  1.0000
  C   C45       1.0  0.09997277995071846  0.3601670211336554  0.7369632633659862  1.0000
  C   C46       1.0  0.6944829089406356  0.9155175049520282  0.45756176282890226  1.0000
  C   C47       1.0  0.23732077484955738  0.5424679585177613  0.45789104501366734  1.0000
  C   C48       1.0  0.7784684661630196  0.5420942813852605  0.08455857158713077  1.0000
  C   C49       1.0  0.49861875316930354  0.9027771480716569  0.4446378002167535  1.0000
  C   C50       1.0  0.05425186327742889  0.5553507684289086  0.4581030560428941  1.0000
  C   C51       1.0  0.5952168733307773  0.5419152554464831  0.09725317632552324  1.0000
  C   C52       1.0  0.3990681747236381  0.8571907318124162  0.4232118850922502  1.0000
  C   C53       1.0  0.9757094415337522  0.5767869583285761  0.4339862184920875  1.0000
  C   C54       1.0  0.5411471545809051  0.5660498267855872  0.14283371740074097  1.0000
  C   C55       1.0  0.4942751203519366  0.8188997222867301  0.41229611655855775  1.0000
  C   C56       1.0  0.08158876558009351  0.5876468397509031  0.40654370806169726  1.0000
  C   C57       1.0  0.6747394709581586  0.5934252581846736  0.18110719573455467  1.0000
  C   C58       1.0  0.39474507284473503  0.7752121151782706  0.3883696868029105  1.0000
  C   C59       1.0  0.005948634411126457  0.6115606645212353  0.3867796877738597  1.0000
  C   C60       1.0  0.6190870546246077  0.6132049507133035  0.22481190541798668  1.0000
  C   C61       1.0  0.18682257576305977  0.7688721322855586  0.374706392066102  1.0000
  C   C62       1.0  0.8118418884536496  0.6252889844350095  0.3941774006110207  1.0000
  C   C63       1.0  0.4175433235114454  0.6058605377663966  0.23117802749431587  1.0000
  C   C64       1.0  0.09028788090022746  0.8076862188723911  0.3874068872699965  1.0000
  C   C65       1.0  0.7027040953898762  0.6126388203004893  0.42035096638146996  1.0000
  C   C66       1.0  0.2820649300975192  0.5797036143652222  0.19238470317620937  1.0000
  C   C67       1.0  0.19318954513790496  0.850293821590853  0.4105210881585392  1.0000
  C   C68       1.0  0.7825935430822003  0.5895405687329288  0.43985840832728923  1.0000
  C   C69       1.0  0.34222677094373927  0.5602017611054891  0.1497559563386588  1.0000
  C   C70       1.0  0.5120307229638571  0.7372980577463438  0.3776525991071721  1.0000
  C   C71       1.0  0.13400778594811408  0.6222983408771653  0.35960844606282877  1.0000
  C   C72       1.0  0.7744593265999529  0.6403593153609534  0.2627161510766668  1.0000
  Br  Br1       1.0  0.5003235589857484  0.9982902052793038  0.44529062168432887  1.0000
  Br  Br2       1.0  0.05573712994367239  0.554773101767168  0.5529887248717457  1.0000
  Br  Br3       1.0  0.5022883441194139  0.446958341835746  0.001765649070215087  1.0000
  O   O1        1.0  0.6924515188583346  0.7439765825564779  0.3933730469071077  1.0000
  O   O2        1.0  0.29871423122705926  0.606575910751758  0.3505544962102363  1.0000
  O   O3        1.0  0.9482503411328767  0.6493693248903085  0.2560343250363032  1.0000
  O   O4        1.0  0.4267951598683198  0.6968962222040745  0.3510132991434317  1.0000
  O   O5        1.0  0.07561286446112801  0.6489894452710416  0.345884811416873  1.0000
  O   O6        1.0  0.7297683548041436  0.6541218769547116  0.3031439206806538  1.0000
  O   O7        1.0  0.08104673058678466  0.728385048667214  0.3503956843156715  1.0000
  O   O8        1.0  0.7304895316429098  0.6496617460404509  0.3780640602875991  1.0000
  O   O9        1.0  0.35237091907936263  0.622008432217463  0.27167813857529666  1.0000
  O   O10       1.0  0.1829682074139073  0.25623565878295557  0.6072312578041377  1.0000
  O   O11       1.0  0.575534231080056  0.3926256106178698  0.648861805157722  1.0000
  O   O12       1.0  0.92659333970834  0.35102949936932504  0.74374818290714  1.0000
  O   O13       1.0  0.44841243535098857  0.3034219634977121  0.6495817617732482  1.0000
  O   O14       1.0  0.7987579033925343  0.3503486375192254  0.6538001928623203  1.0000
  O   O15       1.0  0.14491786053874733  0.3460983979438197  0.6965293948703318  1.0000
  O   O16       1.0  0.7943866800668858  0.27129545745683004  0.6502696756572418  1.0000
  O   O17       1.0  0.14413305289535577  0.34964570208677515  0.6209940493674466  1.0000
  O   O18       1.0  0.5229134784148358  0.3789692847557547  0.7286512305440238  1.0000
