data_image0
_chemical_formula_structural       U2CdH30C32N4O22
_chemical_formula_sum              "U2 Cd1 H30 C32 N4 O22"
_cell_length_a       7.687525034415253
_cell_length_b       10.853442909719929
_cell_length_c       13.82256840845789
_cell_angle_alpha    78.79959856306904
_cell_angle_beta     81.6339535610543
_cell_angle_gamma    86.25851812827855

_space_group_name_H-M_alt    "P 1"
_space_group_IT_number       1

loop_
  _space_group_symop_operation_xyz
  'x, y, z'

loop_
  _atom_site_type_symbol
  _atom_site_label
  _atom_site_symmetry_multiplicity
  _atom_site_fract_x
  _atom_site_fract_y
  _atom_site_fract_z
  _atom_site_occupancy
  U   U1        1.0  0.20905123452541832  0.3999311754856406  0.6400706328920549  1.0000
  U   U2        1.0  0.7909449690442684  0.6000572314866375  0.35992867186839556  1.0000
  Cd  Cd1       1.0  0.4999968086658201  4.306528026599285e-06  0.500002043042926  1.0000
  H   H1        1.0  0.8484856702319308  0.9897705703340876  0.5085943961281245  1.0000
  H   H2        1.0  0.15149969470104452  0.0102199256492739  0.4914133089579665  1.0000
  H   H3        1.0  0.8460053389670676  0.8616513559173027  0.4692328759740221  1.0000
  H   H4        1.0  0.15398002596590743  0.1383391400660585  0.5307748291120689  1.0000
  H   H5        1.0  0.1438352773533681  0.7681360632718748  0.5820265195974345  1.0000
  H   H6        1.0  0.856156894492827  0.23185332603922154  0.4179743621238714  1.0000
  H   H7        1.0  0.9348860628846086  0.8092086572274154  0.6396377845158198  1.0000
  H   H8        1.0  0.06511155522314743  0.19077605545921025  0.3603649252274436  1.0000
  H   H9        1.0  0.7210098856759617  0.3608099906246878  0.6332603443553849  1.0000
  H   H10       1.0  0.2789961836893299  0.6391987804958035  0.3667225627979605  1.0000
  H   H11       1.0  0.7897002148933369  0.21035987598060046  0.6953723163055585  1.0000
  H   H12       1.0  0.21031832870032474  0.7896557325404389  0.3046208528444155  1.0000
  H   H13       1.0  0.14051342521234744  0.6500030088279869  0.8936683332492521  1.0000
  H   H14       1.0  0.8594856999146999  0.35000517568047934  0.10632964843170359  1.0000
  H   H15       1.0  0.5168584070341637  0.2925978580750197  0.41450425027807114  1.0000
  H   H16       1.0  0.4831346929295537  0.7073990635300618  0.5854960377853047  1.0000
  H   H17       1.0  0.4324652552970606  0.45503982399181103  0.2766033702040502  1.0000
  H   H18       1.0  0.5675340818409611  0.5449627726285938  0.7233976943290868  1.0000
  H   H19       1.0  0.32005620779531085  0.15564668964658776  0.13095688144196063  1.0000
  H   H20       1.0  0.6799365637521788  0.8443586222578501  0.8690391435204177  1.0000
  H   H21       1.0  0.4174519946012795  0.0048617208121371  0.2732167563743673  1.0000
  H   H22       1.0  0.5825264097904611  0.9951408374710482  0.7267822157630732  1.0000
  H   H23       1.0  0.18251300966545614  0.5454105253485508  0.2022743544716619  1.0000
  H   H24       1.0  0.8174808437477953  0.4545958758524123  0.7977279240891163  1.0000
  H   H25       1.0  0.08603753527714283  0.6976183446896869  0.059725309353744586  1.0000
  H   H26       1.0  0.9139564969399675  0.302385203296474  0.9402759823922225  1.0000
  H   H27       1.0  0.29613227637141654  0.46792981385701193  0.85908173552626  1.0000
  H   H28       1.0  0.7038744547330822  0.5320812911630455  0.1409202749758478  1.0000
  H   H29       1.0  0.4087416218672929  0.3090699459125474  0.9908439851873467  1.0000
  H   H30       1.0  0.5912627956528597  0.6909354923388236  0.009157686316349596  1.0000
  C   C1        1.0  0.9494982497763119  0.6439862933316434  0.5727091428283727  1.0000
  C   C2        1.0  0.05049391367792574  0.3560003951752008  0.4272972532690105  1.0000
  C   C3        1.0  0.02558540627618561  0.7287284362065095  0.6305927804913054  1.0000
  C   C4        1.0  0.9744120288918554  0.2712600356078383  0.3694093187262553  1.0000
  C   C5        1.0  0.08240099550748432  0.6683191600837406  0.7302751349179246  1.0000
  C   C6        1.0  0.9176040997648869  0.33167399326451624  0.2697256313761258  1.0000
  C   C7        1.0  0.5518261490306386  0.2920271332832343  0.7678166108111456  1.0000
  C   C8        1.0  0.4481934598853386  0.707993188186002  0.2321764225751721  1.0000
  C   C9        1.0  0.6744930205969484  0.2690395042187959  0.6753664936112997  1.0000
  C   C10       1.0  0.32552475713960405  0.7309693424451211  0.3246198930197367  1.0000
  C   C11       1.0  0.5821967924511356  0.21326972528932234  0.6055982762716141  1.0000
  C   C12       1.0  0.4178149309306037  0.7867251746014644  0.3943966534724693  1.0000
  C   C13       1.0  0.4743892454763667  0.2652829263223779  0.3501342894620336  1.0000
  C   C14       1.0  0.5256051027493883  0.7347149491031856  0.649866473363403  1.0000
  C   C15       1.0  0.42301861625168163  0.356498688964983  0.27303825563054573  1.0000
  C   C16       1.0  0.5769741510397141  0.6435030162222829  0.7269648810484242  1.0000
  C   C17       1.0  0.36504328774766753  0.31957551449367116  0.1918865506293344  1.0000
  C   C18       1.0  0.6349468458148807  0.6804271023984257  0.8081151786312546  1.0000
  C   C19       1.0  0.36621570240743756  0.1904632877050076  0.1911105269256979  1.0000
  C   C20       1.0  0.6337784546068693  0.8095401586741177  0.8088864306930076  1.0000
  C   C21       1.0  0.41931317107365373  0.10547264448592841  0.2711455203347057  1.0000
  C   C22       1.0  0.5806718779709001  0.8945280366881151  0.72885400461481  1.0000
  C   C23       1.0  0.3036933564689335  0.4127010964888242  0.1099645230365098  1.0000
  C   C24       1.0  0.6962979796207095  0.5873034140056886  0.8900375283547035  1.0000
  C   C25       1.0  0.2135076819800689  0.5246852424888857  0.1276868812447418  1.0000
  C   C26       1.0  0.7864887635629644  0.4753202808762608  0.8723182494435164  1.0000
  C   C27       1.0  0.1568820100803734  0.6100511947061165  0.04921994186393164  1.0000
  C   C28       1.0  0.8431182385115009  0.3899580452298678  0.9507828487063392  1.0000
  C   C29       1.0  0.27589821224906075  0.479938709059354  0.9363607591542831  1.0000
  C   C30       1.0  0.7241059765964482  0.5200714281016801  0.06364014919228823  1.0000
  C   C31       1.0  0.3349055526707688  0.39142489213955395  0.011826797377707993  1.0000
  C   C32       1.0  0.6651038288262614  0.6085861901540852  0.9881743008477244  1.0000
  N   N1        1.0  0.4705477131762521  0.14150592571553489  0.350284190294488  1.0000
  N   N2        1.0  0.5294334829486688  0.8584928845825172  0.6497159248010719  1.0000
  N   N3        1.0  0.1884039368569718  0.5860567570725407  0.9560957476224629  1.0000
  N   N4        1.0  0.811595109207801  0.41395058926102735  0.04390672081718348  1.0000
  O   O1        1.0  0.9507526753881167  0.5253289124628892  0.6023688356169218  1.0000
  O   O2        1.0  0.04924862510713982  0.4746587124886971  0.39763746547613726  1.0000
  O   O3        1.0  0.8871586094817021  0.6981269940971089  0.4940399850624786  1.0000
  O   O4        1.0  0.11283367037779614  0.3018568919984475  0.5059675912837207  1.0000
  O   O5        1.0  0.14704461707024313  0.5551153743972463  0.7402252126014872  1.0000
  O   O6        1.0  0.8529593671448908  0.4448740057847401  0.2597755368247904  1.0000
  O   O7        1.0  0.0685078389292144  0.7312810944869101  0.7989048140130562  1.0000
  O   O8        1.0  0.93149448127366  0.26871669582488517  0.2010924896278254  1.0000
  O   O9        1.0  0.41526131400826216  0.3670281162155292  0.748825849999932  1.0000
  O   O10       1.0  0.5847496734787471  0.6329827260990656  0.25116504030083314  1.0000
  O   O11       1.0  0.5844159066740461  0.24557381824892843  0.8526487104858518  1.0000
  O   O12       1.0  0.4156146207118141  0.754465272795308  0.14734041562238784  1.0000
  O   O13       1.0  0.4209156762411582  0.24367479580052986  0.5968695038392297  1.0000
  O   O14       1.0  0.5791017303485191  0.7563089167302977  0.40313121176495775  1.0000
  O   O15       1.0  0.6682660879275064  0.1346630493910155  0.558088833634713  1.0000
  O   O16       1.0  0.3317519973055171  0.8653329112779674  0.441911247508969  1.0000
  O   O17       1.0  0.32944183495838797  0.520559624884342  0.5511542381892127  1.0000
  O   O18       1.0  0.6705451443565096  0.479433331924227  0.44883774459612624  1.0000
  O   O19       1.0  0.07071513077828231  0.2882950958420949  0.7277720488280436  1.0000
  O   O20       1.0  0.9293166885818352  0.7116859178979807  0.2722345812896165  1.0000
  O   O21       1.0  0.8130480264988622  0.9530686653368434  0.4556981475662382  1.0000
  O   O22       1.0  0.18694386668166632  0.046922755948664005  0.5443089300831048  1.0000
