data_image0
_chemical_formula_structural       Sc4H16C32O20
_chemical_formula_sum              "Sc4 H16 C32 O20"
_cell_length_a       12.51453735828043
_cell_length_b       12.601735556462886
_cell_length_c       12.587059604573813
_cell_angle_alpha    75.6960553541225
_cell_angle_beta     60.17689048798709
_cell_angle_gamma    60.208906937983556

_space_group_name_H-M_alt    "P 1"
_space_group_IT_number       1

loop_
  _space_group_symop_operation_xyz
  'x, y, z'

loop_
  _atom_site_type_symbol
  _atom_site_label
  _atom_site_symmetry_multiplicity
  _atom_site_fract_x
  _atom_site_fract_y
  _atom_site_fract_z
  _atom_site_occupancy
  Sc  Sc1       1.0  0.1850141365384061  0.9999802902094999  0.6312729654626139  1.0000
  Sc  Sc2       1.0  0.8186484242418572  2.1089524239000068e-05  0.3637590233931006  1.0000
  Sc  Sc3       1.0  0.06826371132776633  0.8675060683862625  0.4975974415914025  1.0000
  Sc  Sc4       1.0  0.43514154542696554  0.13292936856212384  0.4977987160854055  1.0000
  H   H1        1.0  0.8885974352800331  0.3121425083223174  0.5630697567801447  1.0000
  H   H2        1.0  0.761047183830712  0.687842808298953  0.4397234563622093  1.0000
  H   H3        1.0  0.7017670982836464  0.9368709758888941  0.8101416353512291  1.0000
  H   H4        1.0  0.4505241421482183  0.06436584483011389  0.18518033773732157  1.0000
  H   H5        1.0  0.48740528937204886  0.0649151168293614  0.8107220880511223  1.0000
  H   H6        1.0  0.36592547595527947  0.9341583107607861  0.18459526586535446  1.0000
  H   H7        1.0  0.8011186519034581  0.3126643588264741  0.4377027995055799  1.0000
  H   H8        1.0  0.5489716171839943  0.6872432452464922  0.5643646072631086  1.0000
  H   H9        1.0  0.12136804814570455  0.5011293188358366  0.5007064319765177  1.0000
  H   H10       1.0  0.8727667286825634  0.0010948130595949  0.997295322313974  1.0000
  H   H11       1.0  0.13072068703024778  0.9982725536219164  0.9974079794390178  1.0000
  H   H12       1.0  0.37954166847818976  0.49926052966801393  0.4991471182312779  1.0000
  H   H13       1.0  0.1338670598484768  0.05435465385436802  0.4362319239535281  1.0000
  H   H14       1.0  0.8309850687928562  0.07125287973951089  0.537365113526576  1.0000
  H   H15       1.0  0.4341538683574906  0.9420869117040882  0.4401032939794972  1.0000
  H   H16       1.0  0.631533272813826  0.9327782906824139  0.5426201435169348  1.0000
  C   C1        1.0  0.11997455619415122  0.2785947850128069  0.5576332504637022  1.0000
  C   C2        1.0  0.9027338985601289  0.39512804804454776  0.5342086741027074  1.0000
  C   C3        1.0  0.01624486432849902  0.3945259496300438  0.5314478991922017  1.0000
  C   C4        1.0  0.9536918136753061  0.7227209381395027  0.44315054218903815  1.0000
  C   C5        1.0  0.8296221608984949  0.6053659142381917  0.46880969303516196  1.0000
  C   C6        1.0  0.9396656071624181  0.6067760529937515  0.47093042932072393  1.0000
  C   C7        1.0  0.9290641529217113  0.9408906720301501  0.7760813812562336  1.0000
  C   C8        1.0  0.6872502111377585  0.9664070720845856  0.8927589243719752  1.0000
  C   C9        1.0  0.7983628701672879  0.9688833253458711  0.8917225902650046  1.0000
  C   C10       1.0  0.6473338680485556  0.06197315689468751  0.21871769874023525  1.0000
  C   C11       1.0  0.5483180136195855  0.034412114326777  0.10265254006687026  1.0000
  C   C12       1.0  0.6607139415174712  0.0325642678738518  0.10346252335382644  1.0000
  C   C13       1.0  0.2945850596956418  0.06017648924757418  0.776594213209094  1.0000
  C   C14       1.0  0.41983633008771887  0.0345643100332893  0.8930751889955816  1.0000
  C   C15       1.0  0.3099165801428894  0.0317734714921372  0.8920736939930195  1.0000
  C   C16       1.0  0.13560789266958992  0.9361095721288708  0.2183671458634677  1.0000
  C   C17       1.0  0.35010776819011374  0.9647365808184462  0.10238922543679502  1.0000
  C   C18       1.0  0.23697199377605926  0.9663485454185692  0.10328686344750793  1.0000
  C   C19       1.0  0.6050029690576153  0.27783484451580154  0.4406948859144676  1.0000
  C   C20       1.0  0.7031532199504936  0.39484782754723824  0.46741183338983205  1.0000
  C   C21       1.0  0.5911415384483548  0.3935785674732699  0.4690824207556475  1.0000
  C   C22       1.0  0.3232386315792225  0.7212849458098417  0.5580331690697876  1.0000
  C   C23       1.0  0.5639843554074632  0.6046234010421117  0.5345068896574006  1.0000
  C   C24       1.0  0.4534063381776503  0.6054461659074661  0.5312552181093864  1.0000
  C   C25       1.0  0.8086950152953916  0.5000872135880671  0.5016619286383489  1.0000
  C   C26       1.0  0.03430172293265331  0.5008463923161558  0.501064913146898  1.0000
  C   C27       1.0  0.5603661056170848  0.00023778515205920004  0.9978092351548682  1.0000
  C   C28       1.0  0.7857972118271446  0.0008173640992624002  0.9975217906985921  1.0000
  C   C29       1.0  0.4422065476871639  0.9999481544096369  0.9978217570356093  1.0000
  C   C30       1.0  0.21735305518711104  0.9988032933512514  0.9976099505831543  1.0000
  C   C31       1.0  0.6907677448757851  0.49981767605097344  0.5013772360958625  1.0000
  C   C32       1.0  0.46614997112130424  0.49938985831225563  0.49984815034567737  1.0000
  O   O1        1.0  0.08594225980204584  0.19232070931374784  0.6096253257701321  1.0000
  O   O2        1.0  0.23743164645383527  0.2721910276481978  0.5233973300607886  1.0000
  O   O3        1.0  0.8838528639238207  0.8086814945887468  0.3920524836268271  1.0000
  O   O4        1.0  0.0321023551954411  0.7296301786253139  0.4748066184031359  1.0000
  O   O5        1.0  0.947198783035219  0.8884995246982258  0.6899953249661406  1.0000
  O   O6        1.0  0.013216072675461961  0.9740110510184505  0.7696076741187382  1.0000
  O   O7        1.0  0.5265612683799433  0.1131719681284409  0.30494298228087047  1.0000
  O   O8        1.0  0.7578549589595768  0.03141641158102  0.2245894182940587  1.0000
  O   O9        1.0  0.3622633907863531  0.11289670352488204  0.6906143343412268  1.0000
  O   O10       1.0  0.2170345813692902  0.026838668883414095  0.7701939567248317  1.0000
  O   O11       1.0  0.1703945446191355  0.8850169117611131  0.30445800012924445  1.0000
  O   O12       1.0  0.01936839361810168  0.9660310459816942  0.22426636503196565  1.0000
  O   O13       1.0  0.7259545962339616  0.191924724066773  0.3892796410247995  1.0000
  O   O14       1.0  0.494857337739198  0.27101301991530147  0.47240837748949366  1.0000
  O   O15       1.0  0.3053863519379758  0.8073595685374998  0.6102542897974461  1.0000
  O   O16       1.0  0.2398357511677742  0.7277643812393678  0.5240204793159648  1.0000
  O   O17       1.0  0.37223787239619816  0.004164592355188299  0.503547118662496  1.0000
  O   O18       1.0  0.8850931608409456  0.9976737224713972  0.48840873585072575  1.0000
  O   O19       1.0  0.12724626641869458  0.995151668677707  0.5022827934150058  1.0000
  O   O20       1.0  0.6269980274337782  0.0042329781591945  0.4902876151964294  1.0000
