data_image0
_chemical_formula_structural       Zn4H10C14O16
_chemical_formula_sum              "Zn4 H10 C14 O16"
_cell_length_a       10.918426274513658
_cell_length_b       11.018115828840276
_cell_length_c       11.023416747352917
_cell_angle_alpha    79.47446808435525
_cell_angle_beta     83.16412835736216
_cell_angle_gamma    90.23127962750706

_space_group_name_H-M_alt    "P 1"
_space_group_IT_number       1

loop_
  _space_group_symop_operation_xyz
  'x, y, z'

loop_
  _atom_site_type_symbol
  _atom_site_label
  _atom_site_symmetry_multiplicity
  _atom_site_fract_x
  _atom_site_fract_y
  _atom_site_fract_z
  _atom_site_occupancy
  Zn  Zn1       1.0  0.3967315316129215  0.6064449806179512  0.393769583158587  1.0000
  Zn  Zn2       1.0  0.6131264208012154  0.41141814940461785  0.3923441747754098  1.0000
  Zn  Zn3       1.0  0.3991769727539137  0.3755481242218224  0.625844816704948  1.0000
  Zn  Zn4       1.0  0.5930679604102663  0.6017568878685253  0.5834386805873278  1.0000
  H   H1        1.0  0.5811152951609985  0.9796304930512607  0.603236397124725  1.0000
  H   H2        1.0  0.7427002957308986  0.7967967041148611  0.8087186028547321  1.0000
  H   H3        1.0  0.9918376300413599  0.39155438152148764  0.6153106362919444  1.0000
  H   H4        1.0  0.015319806637649001  0.6036949854995015  0.3867307303952998  1.0000
  H   H5        1.0  0.3641680739991315  0.9562457770006746  0.3430385223849797  1.0000
  H   H6        1.0  0.389857851543823  0.313684875611294  0.9809044132963934  1.0000
  H   H7        1.0  0.7428394640784077  0.6506780110317579  0.011512540118630458  1.0000
  H   H8        1.0  0.6416656380229212  0.7490314368544733  0.08742740962259883  1.0000
  H   H9        1.0  0.6391143210451488  0.8937885113660046  0.8817476203809207  1.0000
  H   H10       1.0  0.7920676645847493  0.8762290691696465  0.9223153806545595  1.0000
  C   C1        1.0  0.8309951924765854  0.5256037525673777  0.470273617488985  1.0000
  C   C2        1.0  0.4686995235063164  0.9685915532972089  0.46418291327881894  1.0000
  C   C3        1.0  0.5262664019214327  0.031074288411979012  0.5359561826924732  1.0000
  C   C4        1.0  0.034385107594168594  0.4624800096459438  0.5397180787051354  1.0000
  C   C5        1.0  0.6703767820120206  0.7194621287171971  0.9981587903483061  1.0000
  C   C6        1.0  0.7136061957651804  0.8280493477959254  0.896497110234158  1.0000
  C   C7        1.0  0.9682788032395138  0.5341709482098126  0.4615383758307487  1.0000
  C   C8        1.0  0.47738253885422927  0.4636566319536116  0.9690129289118231  1.0000
  C   C9        1.0  0.5234662967337869  0.5515678124871571  0.024823123677570873  1.0000
  C   C10       1.0  0.1706900108762284  0.4752059760811917  0.5277290769367653  1.0000
  C   C11       1.0  0.5162256727233654  0.5338994647170808  0.16463496665804908  1.0000
  C   C12       1.0  0.4845587137467574  0.4720766981448322  0.8331308980150425  1.0000
  C   C13       1.0  0.5192684060407301  0.1671800103234347  0.52762762693488  1.0000
  C   C14       1.0  0.48132172569550136  0.8323344547596604  0.47387775459358755  1.0000
  O   O1        1.0  0.49985333408456967  0.4978561478788706  0.49861573091579453  1.0000
  O   O2        1.0  0.5940801190193881  0.23226963051009622  0.4429454132995616  1.0000
  O   O3        1.0  0.5550625761754375  0.7775765119916047  0.5450352907339422  1.0000
  O   O4        1.0  0.44185334498876466  0.20586719348288096  0.6068342884035047  1.0000
  O   O5        1.0  0.41501500018591736  0.7836313012128643  0.40581810651519123  1.0000
  O   O6        1.0  0.39558221951303096  0.023280562091876796  0.37962849355862016  1.0000
  O   O7        1.0  0.4166894303009342  0.3613457164851326  0.04051730418180451  1.0000
  O   O8        1.0  0.5653573106112403  0.6629187762422218  0.9587330247284741  1.0000
  O   O9        1.0  0.4446581685850148  0.6058293233913901  0.21595177086620512  1.0000
  O   O10       1.0  0.5502594417434992  0.5577975904045334  0.7619240502409069  1.0000
  O   O11       1.0  0.7864781029936054  0.4586140760493862  0.4029195411129294  1.0000
  O   O12       1.0  0.22361038191137783  0.40033213907905457  0.6067247792471804  1.0000
  O   O13       1.0  0.7722461031670987  0.5883877262777517  0.5431991805033289  1.0000
  O   O14       1.0  0.22296394936891767  0.559085111334717  0.44104841610153034  1.0000
  O   O15       1.0  0.5851523276126898  0.45294070040880297  0.21676048995308858  1.0000
  O   O16       1.0  0.4235842866017663  0.38616201529525546  0.7987964192415334  1.0000
