data_image0
_chemical_formula_structural       CdAg2H12C8N16
_chemical_formula_sum              "Cd1 Ag2 H12 C8 N16"
_cell_length_a       6.6551226603253415
_cell_length_b       6.957559445800955
_cell_length_c       9.438424383458273
_cell_angle_alpha    73.10161322585117
_cell_angle_beta     73.69156187703219
_cell_angle_gamma    97.48896804042141

_space_group_name_H-M_alt    "P 1"
_space_group_IT_number       1

loop_
  _space_group_symop_operation_xyz
  'x, y, z'

loop_
  _atom_site_type_symbol
  _atom_site_label
  _atom_site_symmetry_multiplicity
  _atom_site_fract_x
  _atom_site_fract_y
  _atom_site_fract_z
  _atom_site_occupancy
  Cd  Cd1       1.0  0.5000033595879999  0.5000030093615848  0.4999991590123258  1.0000
  Ag  Ag1       1.0  0.5978015252413513  0.9269806633341773  0.763226141007756  1.0000
  Ag  Ag2       1.0  0.4022012641057985  0.07302042125736821  0.23677196998237798  1.0000
  H   H1        1.0  0.8149827524401374  0.7290630768982568  0.5811604384250658  1.0000
  H   H2        1.0  0.1850176859723192  0.2709425163541681  0.41884349848957214  1.0000
  H   H3        1.0  0.9683940431870682  0.7660231107913092  0.39836613357388023  1.0000
  H   H4        1.0  0.031603801151824505  0.23397611687232  0.6016365850812946  1.0000
  H   H5        1.0  0.9049096929545615  0.7779571323244312  0.13036325037847257  1.0000
  H   H6        1.0  0.09509665632225514  0.22203660922625806  0.8696336631749447  1.0000
  H   H7        1.0  0.9195615344184207  0.8243304210933574  0.9395483824063858  1.0000
  H   H8        1.0  0.08044830360427822  0.1756757833847615  0.060446076930233496  1.0000
  H   H9        1.0  0.8444625739319636  0.4212743856579665  0.17611520228633984  1.0000
  H   H10       1.0  0.15553017465322944  0.578722796214855  0.8238847793326087  1.0000
  H   H11       1.0  0.12609262179708486  0.5561058475757862  0.3333533073825237  1.0000
  H   H12       1.0  0.8739163861584914  0.4438943405049331  0.6666479721594741  1.0000
  C   C1        1.0  0.8068421598173786  0.9838350074506368  0.41826669712093417  1.0000
  C   C2        1.0  0.19315267090004085  0.016165410400425604  0.581733191266494  1.0000
  C   C3        1.0  0.8151362190292986  0.2836339889057484  0.2777816778804408  1.0000
  C   C4        1.0  0.18485493782994675  0.7163630596189705  0.7222186592179584  1.0000
  C   C5        1.0  0.6123586148298658  0.7199278686872506  0.10134601178328495  1.0000
  C   C6        1.0  0.38763969838024803  0.2800744346261085  0.8986559198767949  1.0000
  C   C7        1.0  0.2765419096001054  0.6216129539123686  0.23541994255869275  1.0000
  C   C8        1.0  0.7234659539656789  0.37839014948957583  0.7645798562246284  1.0000
  N   N1        1.0  0.719305586949304  0.27183443650077516  0.4262349082768467  1.0000
  N   N2        1.0  0.2806874176065648  0.7281643101773269  0.5737657290875902  1.0000
  N   N3        1.0  0.7141525262135672  0.0742875878668272  0.5188341831831806  1.0000
  N   N4        1.0  0.2858423475739756  0.9257128839450603  0.4811678036903261  1.0000
  N   N5        1.0  0.874688152220763  0.10752817600313591  0.26703880419918136  1.0000
  N   N6        1.0  0.1253062096254354  0.8924691661981966  0.7329618711833349  1.0000
  N   N7        1.0  0.8237145787304884  0.7781838805439205  0.46571696751185954  1.0000
  N   N8        1.0  0.17628190831806734  0.221816751596478  0.5342857131252288  1.0000
  N   N9        1.0  0.2829668746785501  0.6964889231074237  0.08831658332622536  1.0000
  N   N10       1.0  0.7170348779541201  0.3035152117074063  0.9116852931204277  1.0000
  N   N11       1.0  0.4997628143209099  0.7618774842812925  0.0013039804500110084  1.0000
  N   N12       1.0  0.5002413969217656  0.23812227677472467  0.9986973162873272  1.0000
  N   N13       1.0  0.4755804151564718  0.6297914340788466  0.25261158181662324  1.0000
  N   N14       1.0  0.5244310083389792  0.3702043262822343  0.7473870195299881  1.0000
  N   N15       1.0  0.8293608046269513  0.7511306090959238  0.05635623588447198  1.0000
  N   N16       1.0  0.17065019932059763  0.24887270704139305  0.9436407534538632  1.0000
