data_image0
_chemical_formula_structural       Hg4H48C24N16
_chemical_formula_sum              "Hg4 H48 C24 N16"
_cell_length_a       8.860592052003357
_cell_length_b       10.050595955003066
_cell_length_c       10.81815762400092
_cell_angle_alpha    89.9999894305804
_cell_angle_beta     90.000046224764
_cell_angle_gamma    90.00008860246786

_space_group_name_H-M_alt    "P 1"
_space_group_IT_number       1

loop_
  _space_group_symop_operation_xyz
  'x, y, z'

loop_
  _atom_site_type_symbol
  _atom_site_label
  _atom_site_symmetry_multiplicity
  _atom_site_fract_x
  _atom_site_fract_y
  _atom_site_fract_z
  _atom_site_occupancy
  Hg  Hg1       1.0  0.06757609574138708  0.20495698736245768  0.6018363085687497  1.0000
  Hg  Hg2       1.0  0.5675769633281647  0.7950437486235274  0.3981612616633469  1.0000
  Hg  Hg3       1.0  0.06757668115371732  0.7049551695922246  0.898163062386054  1.0000
  Hg  Hg4       1.0  0.567576377919856  0.2950475563250593  0.10183912970494899  1.0000
  H   H1        1.0  0.9625253676995481  0.11553302270950641  0.8553095326318356  1.0000
  H   H2        1.0  0.4625275038126516  0.8844672550960554  0.144690148033682  1.0000
  H   H3        1.0  0.9625257041234647  0.6155352345355567  0.6446932199293727  1.0000
  H   H4        1.0  0.46252716738569444  0.3844610634064125  0.3553073851083042  1.0000
  H   H5        1.0  0.06176175897607549  0.2537819228384635  0.8668361387619825  1.0000
  H   H6        1.0  0.561760023155898  0.7462178102770239  0.1331660494758964  1.0000
  H   H7        1.0  0.0617632126664347  0.7537821469954624  0.6331632198735733  1.0000
  H   H8        1.0  0.5617642124271143  0.24621559619220074  0.3668380439945338  1.0000
  H   H9        1.0  0.32848433260343063  0.38595240109874146  0.6107935422021811  1.0000
  H   H10       1.0  0.8284860015277713  0.6140486894941688  0.3892051252770869  1.0000
  H   H11       1.0  0.3284849092155682  0.8859495901201767  0.889205045869204  1.0000
  H   H12       1.0  0.8284809105429218  0.11404752060580138  0.11079731909617149  1.0000
  H   H13       1.0  0.2718606239453932  0.359258409062285  0.7544492251857449  1.0000
  H   H14       1.0  0.7718610701257091  0.6407406146394408  0.2455494047750051  1.0000
  H   H15       1.0  0.271861059442422  0.8592576162016672  0.7455493299961944  1.0000
  H   H16       1.0  0.7718583774419441  0.1407374276345763  0.2544539218232345  1.0000
  H   H17       1.0  0.8544707092780612  0.38160374596066055  0.7814096446260734  1.0000
  H   H18       1.0  0.35446793547012584  0.6183963849816863  0.2185927375573655  1.0000
  H   H19       1.0  0.8544699896986003  0.8816019634229875  0.7185911414556969  1.0000
  H   H20       1.0  0.35446865504821545  0.1183981675196293  0.28140846761230165  1.0000
  H   H21       1.0  0.8092344578686479  0.3059484860293935  0.9238802909604046  1.0000
  H   H22       1.0  0.30923280581423995  0.6940515834320705  0.076122061250345  1.0000
  H   H23       1.0  0.8092358555245623  0.805949716344564  0.5761204782682725  1.0000
  H   H24       1.0  0.30923479393477743  0.1940503531195574  0.4238781764563271  1.0000
  H   H25       1.0  0.742570501013759  0.1721981874587968  0.6748730008937756  1.0000
  H   H26       1.0  0.24257158608224927  0.8278027863659504  0.3251283827751266  1.0000
  H   H27       1.0  0.7425732718663342  0.6721973789862973  0.825125898614978  1.0000
  H   H28       1.0  0.2425688152256882  0.32780060994109317  0.1748727119387397  1.0000
  H   H29       1.0  0.6744633448015946  0.125062613371  0.8220246560504236  1.0000
  H   H30       1.0  0.17446662543964916  0.8749402578210524  0.1779757581201267  1.0000
  H   H31       1.0  0.6744648425116891  0.6250628287356506  0.6779751308764119  1.0000
  H   H32       1.0  0.1744639991323922  0.3749360625923189  0.3220234345504807  1.0000
  H   H33       1.0  0.5992585932453167  0.38128618843227713  0.679291432562728  1.0000
  H   H34       1.0  0.09925817749557098  0.6187155855788617  0.3207089317767995  1.0000
  H   H35       1.0  0.5992591025733347  0.8812853808249131  0.8207101088453257  1.0000
  H   H36       1.0  0.09925653957220251  0.11871241332178073  0.1792921042378026  1.0000
  H   H37       1.0  0.5381261587214681  0.35185106142623823  0.8323211688681766  1.0000
  H   H38       1.0  0.038125644438523  0.6481526194300713  0.167679154965434  1.0000
  H   H39       1.0  0.5381265177238105  0.8518492888783556  0.6676812615104097  1.0000
  H   H40       1.0  0.038125285430957896  0.14814742721664942  0.33232091106742706  1.0000
  H   H41       1.0  0.461177310633154  0.1740426692915022  0.6104081414896072  1.0000
  H   H42       1.0  0.961174838418458  0.825961586542249  0.38959153828083265  1.0000
  H   H43       1.0  0.46117675903121846  0.6740388632704821  0.8895924199938463  1.0000
  H   H44       1.0  0.9611731328283284  0.32595743283464174  0.11040818414834772  1.0000
  H   H45       1.0  0.3986194677031846  0.1492450772279881  0.7637724995178274  1.0000
  H   H46       1.0  0.8986168884616602  0.8507561086844222  0.236225290059032  1.0000
  H   H47       1.0  0.3986187654485888  0.649243291229915  0.7362271004436067  1.0000
  H   H48       1.0  0.8986164621204864  0.35075291985208423  0.2637734622487499  1.0000
  C   C1        1.0  0.14487210065095715  0.0115028427135471  0.573051412624892  1.0000
  C   C2        1.0  0.6448699511105004  0.9884989932918844  0.4269378894753117  1.0000
  C   C3        1.0  0.1448783573041936  0.5115010192991677  0.9269498918382624  1.0000
  C   C4        1.0  0.6448749803938654  0.4885018116781766  0.0730560489582714  1.0000
  C   C5        1.0  0.9488863949198458  0.37219543654089904  0.5394793877602595  1.0000
  C   C6        1.0  0.44889290406241855  0.6278058176963696  0.4605212082413956  1.0000
  C   C7        1.0  0.9488847843991692  0.8721916166026629  0.9605186893963237  1.0000
  C   C8        1.0  0.44889112880479587  0.1278106325983615  0.0394800578604944  1.0000
  C   C9        1.0  0.8367596399631978  0.28465027477558646  0.8263886553206844  1.0000
  C   C10       1.0  0.3367569925588398  0.7153518220273439  0.17361094201201152  1.0000
  C   C11       1.0  0.8367600047967797  0.7846534758932364  0.6736121358387521  1.0000
  C   C12       1.0  0.33676001349914486  0.21534364608261572  0.3263874614955  1.0000
  C   C13       1.0  0.7058935727369331  0.2117331227320207  0.7650944475937962  1.0000
  C   C14       1.0  0.20589337102531857  0.7882678012432934  0.2349078361447496  1.0000
  C   C15       1.0  0.7058939977775082  0.7117313369938857  0.7349071938721181  1.0000
  C   C16       1.0  0.2058918173897482  0.28826859201505783  0.265092316750696  1.0000
  C   C17       1.0  0.5693203757079458  0.301865995539103  0.7451732575433853  1.0000
  C   C18       1.0  0.06931890638711738  0.6981377277134371  0.2548261625870509  1.0000
  C   C19       1.0  0.5693196917221428  0.8018632109260296  0.7548245803128494  1.0000
  C   C20       1.0  0.0693184617727098  0.1981325525988282  0.24517391544608808  1.0000
  C   C21       1.0  0.43223125178731436  0.2260863211898396  0.6966612614635963  1.0000
  C   C22       1.0  0.9322297318629963  0.7739149104059421  0.3033356260126112  1.0000
  C   C23       1.0  0.43223287264428467  0.7260855169915034  0.8033383474441393  1.0000
  C   C24       1.0  0.9322292395971274  0.27391073977512553  0.19666408626376608  1.0000
  N   N1        1.0  0.194045667353997  0.9038221027229911  0.5635543555169918  1.0000
  N   N2        1.0  0.6940498572822804  0.09617880515272502  0.4364460716290779  1.0000
  N   N3        1.0  0.1940510535980238  0.4038198749809397  0.9364469134948833  1.0000
  N   N4        1.0  0.6940546283725907  0.596181032901768  0.063552589282736  1.0000
  N   N5        1.0  0.8870328124994841  0.4702771433718597  0.5106814792335115  1.0000
  N   N6        1.0  0.38703240580064596  0.5297230318282756  0.4893181514105791  1.0000
  N   N7        1.0  0.8870301016750161  0.9702723228164698  0.9893183886743132  1.0000
  N   N8        1.0  0.3870317308473332  0.029726857415219906  0.0106840150841876  1.0000
  N   N9        1.0  0.9779623217049932  0.20778726787632715  0.8169009564537006  1.0000
  N   N10       1.0  0.4779665904103538  0.7922080560819396  0.1830996588131342  1.0000
  N   N11       1.0  0.9779615672588875  0.7077825074046517  0.6830999415944774  1.0000
  N   N12       1.0  0.47795831612316414  0.2922227662062299  0.3169006736685063  1.0000
  N   N13       1.0  0.30110463874876814  0.31273283758749676  0.6735214108593794  1.0000
  N   N14       1.0  0.8011052462904615  0.6872682157920379  0.3264800115934818  1.0000
  N   N15       1.0  0.301106282337983  0.8127310338826491  0.8264827179988216  1.0000
  N   N16       1.0  0.8011047312882623  0.18726504466854985  0.17351593133939502  1.0000
