data_image0
_chemical_formula_structural       Zn8H36C36N12O32
_chemical_formula_sum              "Zn8 H36 C36 N12 O32"
_cell_length_a       13.31638727815794
_cell_length_b       14.852594854353766
_cell_length_c       16.530620231132264
_cell_angle_alpha    72.21882565912344
_cell_angle_beta     71.77896115037876
_cell_angle_gamma    73.38177160941324

_space_group_name_H-M_alt    "P 1"
_space_group_IT_number       1

loop_
  _space_group_symop_operation_xyz
  'x, y, z'

loop_
  _atom_site_type_symbol
  _atom_site_label
  _atom_site_symmetry_multiplicity
  _atom_site_fract_x
  _atom_site_fract_y
  _atom_site_fract_z
  _atom_site_occupancy
  Zn  Zn1       1.0  0.9712362978648273  0.0643850863462703  0.9859734688826055  1.0000
  Zn  Zn2       1.0  0.7301046755545856  0.022987810991054392  0.019742098500273548  1.0000
  Zn  Zn3       1.0  0.9354351696017676  0.8490067201763691  0.03798042624056553  1.0000
  Zn  Zn4       1.0  0.9163725570630207  0.9862050705114528  0.8492333005213272  1.0000
  Zn  Zn5       1.0  0.3177575483609587  0.4299288054630636  0.40753204176564856  1.0000
  Zn  Zn6       1.0  0.5393882991422815  0.4325161775851499  0.44501790883444414  1.0000
  Zn  Zn7       1.0  0.3191170209739127  0.42456534192654516  0.6030910629009015  1.0000
  Zn  Zn8       1.0  0.33503839119419604  0.6156646291545087  0.4556455205476767  1.0000
  H   H1        1.0  0.43424077689057583  0.010110095741630703  0.41320194366953455  1.0000
  H   H2        1.0  0.6577641756411553  0.19207765250476433  0.36308354147266203  1.0000
  H   H3        1.0  0.6535703660218815  0.2976580388116973  0.2014364001339715  1.0000
  H   H4        1.0  0.5802726777568735  0.21483579834736583  0.20072471144573006  1.0000
  H   H5        1.0  0.7377001916839917  0.07915382454235237  0.2566168313929822  1.0000
  H   H6        1.0  0.8121480270933717  0.17134703181428518  0.22170419755254048  1.0000
  H   H7        1.0  0.18483805384219926  0.573624497042175  0.07287422619136663  1.0000
  H   H8        1.0  0.34103571003043937  0.7100805623238102  0.179784821671646  1.0000
  H   H9        1.0  0.18029122860449584  0.8080739996854618  0.2745835332457601  1.0000
  H   H10       1.0  0.09404081285874351  0.7690469200462643  0.23555349685069166  1.0000
  H   H11       1.0  0.2596924873776488  0.843023690121889  0.08440379282294695  1.0000
  H   H12       1.0  0.2044313781126021  0.9299976948833688  0.1465330539913623  1.0000
  H   H13       1.0  0.9182426643845503  0.3262498393819938  0.430557916222064  1.0000
  H   H14       1.0  0.9974961442258704  0.34246640001175876  0.6584187400378952  1.0000
  H   H15       1.0  0.18445572833835663  0.1886326284581799  0.5839733491841841  1.0000
  H   H16       1.0  0.055732705897838714  0.16164628692798994  0.6367982306124063  1.0000
  H   H17       1.0  0.14000721744616848  0.24769461543988308  0.740155207125497  1.0000
  H   H18       1.0  0.21009660947940031  0.1320879808890538  0.7257548981419648  1.0000
  H   H19       1.0  0.7460137924789763  0.505150920350097  0.6106123428054175  1.0000
  H   H20       1.0  0.5920363911980218  0.7679582865944781  0.39921052036994803  1.0000
  H   H21       1.0  0.7603547022529255  0.6446180972058498  0.2789086087757371  1.0000
  H   H22       1.0  0.7744724490272505  0.7519062647155791  0.2953872292914995  1.0000
  H   H23       1.0  0.5818386738658745  0.827812696684816  0.2542183069099765  1.0000
  H   H24       1.0  0.6162896542794202  0.7293956409035758  0.20564480189227663  1.0000
  H   H25       1.0  0.7027137703433228  0.9429558340535705  0.5126492846400056  1.0000
  H   H26       1.0  0.49382764114378835  0.1287965714221784  0.6801041316389487  1.0000
  H   H27       1.0  0.5701499052355175  0.23271760381706488  0.7486669636671409  1.0000
  H   H28       1.0  0.6966350490080019  0.17342693972913284  0.6920395102323341  1.0000
  H   H29       1.0  0.6203923437841965  0.014054241439083594  0.7672571380457854  1.0000
  H   H30       1.0  0.5213007383113678  0.0825109372005599  0.8394286592460248  1.0000
  H   H31       1.0  0.5484315543580961  0.8062911532705995  0.6275451490796727  1.0000
  H   H32       1.0  0.32268473082019256  0.6204352467469079  0.7519475593993405  1.0000
  H   H33       1.0  0.11074206597945839  0.6724315365245844  0.7489366906556472  1.0000
  H   H34       1.0  0.14277833039588467  0.7873536807652853  0.6965178137203554  1.0000
  H   H35       1.0  0.22960205096028832  0.7653400607406978  0.8237990286790763  1.0000
  H   H36       1.0  0.17699122577194262  0.6609497127958832  0.8767128147916452  1.0000
  C   C1        1.0  0.5181908915838775  0.9826909562906253  0.42173533205468056  1.0000
  C   C2        1.0  0.5918214767299689  0.21142156568453874  0.3298210061248739  1.0000
  C   C3        1.0  0.6398860769727224  0.2236763722857802  0.22952430622366649  1.0000
  C   C4        1.0  0.7459255090130984  0.15004851671873348  0.21089023491258976  1.0000
  C   C5        1.0  0.7801427521216413  0.13023406461915238  0.12021647036326753  1.0000
  C   C6        1.0  0.5189430899084828  0.3055058058916486  0.35140412305877805  1.0000
  C   C7        1.0  0.2612497042293356  0.5992000748672904  0.036360049876044846  1.0000
  C   C8        1.0  0.2602069281635764  0.6924340605243985  0.21146691126299544  1.0000
  C   C9        1.0  0.1741955184059379  0.7859597918995715  0.2190651018324132  1.0000
  C   C10       1.0  0.18868124338868603  0.8668004324302245  0.13522081249858792  1.0000
  C   C11       1.0  0.09558689441242052  0.9022101403429942  0.09123346916788211  1.0000
  C   C12       1.0  0.2690858996300279  0.6242131358643305  0.3004416569525219  1.0000
  C   C13       1.0  0.8593746213025996  0.3613098796690721  0.48243132185643856  1.0000
  C   C14       1.0  0.05587323223439711  0.31438662491734687  0.6032410014639498  1.0000
  C   C15       1.0  0.11008364659646472  0.20653665543407126  0.633879105177954  1.0000
  C   C16       1.0  0.13218987167665125  0.18388352622920215  0.7243298675589713  1.0000
  C   C17       1.0  0.04995225583122223  0.13502510782680588  0.7987708496345577  1.0000
  C   C18       1.0  0.14664209935494202  0.3709081632745494  0.5639196116757931  1.0000
  C   C19       1.0  0.7056336336177795  0.5828686797243278  0.5970641096622415  1.0000
  C   C20       1.0  0.6404486526854568  0.6974018302589045  0.3869466578253339  1.0000
  C   C21       1.0  0.7150195759803709  0.7139715937266117  0.29484226637184463  1.0000
  C   C22       1.0  0.6507301503455309  0.7751259585212084  0.22669675571516734  1.0000
  C   C23       1.0  0.7182785839875481  0.8310012425869786  0.14514820013651075  1.0000
  C   C24       1.0  0.5620088966743141  0.6335484739294371  0.4010439111320849  1.0000
  C   C25       1.0  0.7319483779613236  0.9714519684064554  0.5539070849530036  1.0000
  C   C26       1.0  0.5604378129176696  0.16782084567501698  0.6502244232794538  1.0000
  C   C27       1.0  0.6115991891248812  0.1683464938318693  0.7225161640888375  1.0000
  C   C28       1.0  0.6032267180137723  0.07601649088083919  0.7963518833776322  1.0000
  C   C29       1.0  0.6852843358430718  0.0531446481538467  0.8496766666912309  1.0000
  C   C30       1.0  0.5135413095921848  0.2705470858271539  0.6050393616879006  1.0000
  C   C31       1.0  0.4600073035238098  0.8339187410935619  0.6494792400822292  1.0000
  C   C32       1.0  0.2833821534941663  0.6690942773476108  0.7003486057327778  1.0000
  C   C33       1.0  0.16675071556118576  0.7180188888034067  0.7414073042840813  1.0000
  C   C34       1.0  0.16296672266113885  0.7311217763054856  0.8302679168763377  1.0000
  C   C35       1.0  0.06165937453017281  0.7946915516557879  0.8723734482969548  1.0000
  C   C36       1.0  0.28372551826270614  0.6105022367377871  0.6392679693120016  1.0000
  N   N1        1.0  0.5804456716355376  0.05663502748043211  0.39861716834182914  1.0000
  N   N2        1.0  0.5311913178100696  0.1351147542214406  0.35908212864436  1.0000
  N   N3        1.0  0.29662037273590164  0.6472189997821687  0.08435357775034186  1.0000
  N   N4        1.0  0.23333708264321731  0.6434991511533282  0.15916157077015924  1.0000
  N   N5        1.0  0.9049088402679503  0.36044804911585254  0.5522429066587975  1.0000
  N   N6        1.0  0.0034780171090388746  0.3207942695732697  0.5357490812494562  1.0000
  N   N7        1.0  0.6612739471528711  0.6112588265481949  0.5232050651187664  1.0000
  N   N8        1.0  0.7045107451827023  0.6627435123577639  0.4535980825248204  1.0000
  N   N9        1.0  0.6457201844791458  0.031126137874693403  0.6032667491738125  1.0000
  N   N10       1.0  0.6467850817249996  0.1183842449122494  0.5874906511059949  1.0000
  N   N11       1.0  0.40366258192229043  0.7568163209179843  0.6879583374568271  1.0000
  N   N12       1.0  0.3426200648261145  0.7470040609162679  0.6490473294218903  1.0000
  O   O1        1.0  0.8864808634355869  0.981919677652364  0.9740963156966276  1.0000
  O   O2        1.0  0.5587346568332523  0.8985274865329272  0.4477473288375862  1.0000
  O   O3        1.0  0.7087115082499125  0.11293462881778989  0.0937931435901547  1.0000
  O   O4        1.0  0.8789723266623143  0.1290975995146724  0.07973417849398604  1.0000
  O   O5        1.0  0.5690680836258226  0.36883700810246717  0.3464167517181452  1.0000
  O   O6        1.0  0.41704974971161596  0.312949617857754  0.3731369433523852  1.0000
  O   O7        1.0  0.3130673326979903  0.5896369890259123  0.963882783971748  1.0000
  O   O8        1.0  0.027201435083632933  0.848860278177625  0.11205929463285  1.0000
  O   O9        1.0  0.0949930126899332  0.9828525579559295  0.03467576842500366  1.0000
  O   O10       1.0  0.2601548412547459  0.6643042301545989  0.3609194037978298  1.0000
  O   O11       1.0  0.2901893096475447  0.5340901029245586  0.30468350285377704  1.0000
  O   O12       1.0  0.7653585972831962  0.3979860169351068  0.48387979187779717  1.0000
  O   O13       1.0  0.9990632385427319  0.08711009131255308  0.7794407237017255  1.0000
  O   O14       1.0  0.0413705301262937  0.14333339435187747  0.8754469470716659  1.0000
  O   O15       1.0  0.17932372990456003  0.390643342226049  0.6198044212212039  1.0000
  O   O16       1.0  0.18355380258519466  0.38828423231964837  0.48140580527424254  1.0000
  O   O17       1.0  0.6877006437989693  0.6368939820017515  0.6449081319893609  1.0000
  O   O18       1.0  0.8171440774440344  0.790128370245469  0.12005078156006019  1.0000
  O   O19       1.0  0.6709284953691398  0.9142333623716608  0.1089407978779064  1.0000
  O   O20       1.0  0.4624583245914736  0.6744480919917635  0.4142209617940651  1.0000
  O   O21       1.0  0.603805628212541  0.5456635856167649  0.3981644967705123  1.0000
  O   O22       1.0  0.8228145995537943  0.9469926867474213  0.5651028345470126  1.0000
  O   O23       1.0  0.7827956041160746  0.022219297797541095  0.811060719834451  1.0000
  O   O24       1.0  0.651154280522306  0.0660198156437772  0.9275005211920021  1.0000
  O   O25       1.0  0.41654535973380297  0.3029298161172065  0.6439776323338934  1.0000
  O   O26       1.0  0.5725614767891045  0.3139002435698899  0.5362659421844995  1.0000
  O   O27       1.0  0.4161947181244018  0.9176830812942498  0.6511285690300498  1.0000
  O   O28       1.0  0.013923228049968378  0.866361119606303  0.8224232739661801  1.0000
  O   O29       1.0  0.0347393152231561  0.772234322238617  0.9561611395842249  1.0000
  O   O30       1.0  0.30491687415900515  0.5189272176675955  0.6689057409057995  1.0000
  O   O31       1.0  0.26228370597119266  0.6558134434861245  0.5658427366439442  1.0000
  O   O32       1.0  0.3798731989764904  0.47469286747088535  0.4779148505354697  1.0000
