data_image0
_chemical_formula_structural       Ag4H52C40N12Cl4O16
_chemical_formula_sum              "Ag4 H52 C40 N12 Cl4 O16"
_cell_length_a       7.5763946470060075
_cell_length_b       9.939671464813204
_cell_length_c       17.653759107695226
_cell_angle_alpha    102.98553460066545
_cell_angle_beta     89.99998061913448
_cell_angle_gamma    90.00014286601852

_space_group_name_H-M_alt    "P 1"
_space_group_IT_number       1

loop_
  _space_group_symop_operation_xyz
  'x, y, z'

loop_
  _atom_site_type_symbol
  _atom_site_label
  _atom_site_symmetry_multiplicity
  _atom_site_fract_x
  _atom_site_fract_y
  _atom_site_fract_z
  _atom_site_occupancy
  Ag  Ag1       1.0  0.4156188674507534  0.3770544426174994  0.6911551675174505  1.0000
  Ag  Ag2       1.0  0.0843823611810777  0.37705492383481953  0.1911546637473336  1.0000
  Ag  Ag3       1.0  0.5843817476167317  0.6229451853455571  0.3088452908304404  1.0000
  Ag  Ag4       1.0  0.9156169340008731  0.6229467603493364  0.8088454788223273  1.0000
  H   H1        1.0  0.9703347462777857  0.07483032100652312  0.6451517138908328  1.0000
  H   H2        1.0  0.529664922631369  0.07483276024917271  0.1451514562188265  1.0000
  H   H3        1.0  0.029663229013529198  0.9251703307395119  0.35484830280471863  1.0000
  H   H4        1.0  0.4703370123322799  0.925170971508649  0.85484780304656  1.0000
  H   H5        1.0  0.07443108908864819  0.914343533951879  0.6505259024944151  1.0000
  H   H6        1.0  0.42556663983281606  0.914345705208106  0.15052499230250754  1.0000
  H   H7        1.0  0.9255655663113983  0.08565611130989481  0.3494756909057556  1.0000
  H   H8        1.0  0.5744379349049494  0.0856559876324923  0.8494757177936663  1.0000
  H   H9        1.0  0.0766459925226783  0.9721421809998744  0.5608165149808639  1.0000
  H   H10       1.0  0.42335199576072574  0.9721433241456411  0.06081604621246578  1.0000
  H   H11       1.0  0.9233519827667962  0.027857446960609898  0.439183943366892  1.0000
  H   H12       1.0  0.5766499392010757  0.027859383826637402  0.9391836547051255  1.0000
  H   H13       1.0  0.40065628610553006  0.9594393295790911  0.5573706566444583  1.0000
  H   H14       1.0  0.09934034371362091  0.959439848661489  0.057370721945360914  1.0000
  H   H15       1.0  0.5993390494082006  0.04056130486178231  0.4426282249984794  1.0000
  H   H16       1.0  0.9006615912467665  0.040561818222663214  0.9426282855719489  1.0000
  H   H17       1.0  0.3972996731614415  0.8980208399795943  0.6461577810634295  1.0000
  H   H18       1.0  0.10269800614632632  0.8980234391426336  0.14615866598530394  1.0000
  H   H19       1.0  0.6026983021272514  0.1019777209388906  0.353840281305331  1.0000
  H   H20       1.0  0.8973039288142743  0.10197821909022761  0.8538397740057702  1.0000
  H   H21       1.0  0.5248814055774318  0.048788617683065603  0.6402116310042061  1.0000
  H   H22       1.0  0.9751168626728699  0.0487909030008851  0.1402118609812462  1.0000
  H   H23       1.0  0.4751165697075805  0.9512078956643322  0.35978731466895647  1.0000
  H   H24       1.0  0.024883752395254498  0.951208699008305  0.8597868947879305  1.0000
  H   H25       1.0  0.3772598933401667  0.17116441118135134  0.7539769274589287  1.0000
  H   H26       1.0  0.12273929577033729  0.17116599973925872  0.25397655352363546  1.0000
  H   H27       1.0  0.6227407217240639  0.8288331519080361  0.24602327914089267  1.0000
  H   H28       1.0  0.8772599994085654  0.8288336109199295  0.7460227697717058  1.0000
  H   H29       1.0  0.2453446626347358  0.0218621601139191  0.7567046563539179  1.0000
  H   H30       1.0  0.2546540387068106  0.021865021403989705  0.2567032868615512  1.0000
  H   H31       1.0  0.7546546325421204  0.9781364354110099  0.24329567611987096  1.0000
  H   H32       1.0  0.7453452564757724  0.9781366368262926  0.7432951531293879  1.0000
  H   H33       1.0  0.13995443146324496  0.18531921432685292  0.7557916240058515  1.0000
  H   H34       1.0  0.36004480224225693  0.18532126628468856  0.2557912745744132  1.0000
  H   H35       1.0  0.8600461836042398  0.8146804136362036  0.24420883434203935  1.0000
  H   H36       1.0  0.6399531730506851  0.8146804178981811  0.7442088679951836  1.0000
  H   H37       1.0  0.36762232984206383  0.2512785533877634  0.41276376139134635  1.0000
  H   H38       1.0  0.1323835929513208  0.2512826466552481  0.9127625951799486  1.0000
  H   H39       1.0  0.6323796051072819  0.7487169707831143  0.5872378960391911  1.0000
  H   H40       1.0  0.8676183420070132  0.7487180050946449  0.08723742151580885  1.0000
  H   H41       1.0  0.36833940874452514  0.4741924285102145  0.3708804739556654  1.0000
  H   H42       1.0  0.13166595250520882  0.47419757876757984  0.8708811361229534  1.0000
  H   H43       1.0  0.6316678057612677  0.5258030783632321  0.6291200484226563  1.0000
  H   H44       1.0  0.8683307028968912  0.5258030816284531  0.12911944809876985  1.0000
  H   H45       1.0  0.1137779313034599  0.6715472847482218  0.5854213031282781  1.0000
  H   H46       1.0  0.3862230193955228  0.671549413777946  0.08542265897860087  1.0000
  H   H47       1.0  0.8862226837662917  0.3284533496978028  0.41457757851492966  1.0000
  H   H48       1.0  0.6137762757866411  0.32845226175491854  0.914576916064817  1.0000
  H   H49       1.0  0.1085864276659407  0.4475677615376272  0.6254735538752242  1.0000
  H   H50       1.0  0.3914137626764927  0.4475678271793839  0.12547409098725373  1.0000
  H   H51       1.0  0.8914141874033845  0.5524328902109803  0.3745264628204694  1.0000
  H   H52       1.0  0.6085855325036249  0.5524328332192214  0.8745264932346116  1.0000
  C   C1        1.0  0.0789871957111288  0.0038557488659592  0.6240011058083468  1.0000
  C   C2        1.0  0.4210102327575811  0.003857911224926601  0.12400019514596751  1.0000
  C   C3        1.0  0.9210094596891308  0.9961438877445233  0.37599992006558114  1.0000
  C   C4        1.0  0.5789890624245899  0.9961437643079379  0.8759993798974505  1.0000
  C   C5        1.0  0.4057959564142167  0.9887713375927023  0.620670450664086  1.0000
  C   C6        1.0  0.09420071844488125  0.9887728790754551  0.1206706413083083  1.0000
  C   C7        1.0  0.5942006989850483  0.011227240627071903  0.37932874675708916  1.0000
  C   C8        1.0  0.9057998966246643  0.0112277640218608  0.8793288078611352  1.0000
  C   C9        1.0  0.25249202547721683  0.11754407354519714  0.7359073522537186  1.0000
  C   C10       1.0  0.2475083235008029  0.11754590574555834  0.23590699120185118  1.0000
  C   C11       1.0  0.747508589588641  0.8824545219810245  0.2640929802201412  1.0000
  C   C12       1.0  0.7524922915671083  0.8824537049149228  0.7640923320935612  1.0000
  C   C13       1.0  0.24610528870440623  0.19751997301999324  0.5446931415452028  1.0000
  C   C14       1.0  0.2538875531934437  0.1975207592940578  0.04469095269967479  1.0000
  C   C15       1.0  0.7538874070288344  0.8024796635866237  0.4553078843285262  1.0000
  C   C16       1.0  0.7461130618746808  0.8024788427151323  0.9553078030695017  1.0000
  C   C17       1.0  0.24482918906421963  0.33550972822025227  0.5230125646174668  1.0000
  C   C18       1.0  0.2551733581149804  0.33551157538641263  0.02301220435697359  1.0000
  C   C19       1.0  0.7551714260028461  0.6644899170453868  0.4769890287829098  1.0000
  C   C20       1.0  0.7448285768413072  0.6644880612292283  0.9769888215172314  1.0000
  C   C21       1.0  0.3141313237763654  0.344007736235028  0.45076478256823543  1.0000
  C   C22       1.0  0.18587223059645197  0.3440078215103668  0.9507642534364534  1.0000
  C   C23       1.0  0.6858692912913397  0.6559918830767374  0.5492351082534199  1.0000
  C   C24       1.0  0.8141297043602548  0.6559917978026916  0.04923563738526577  1.0000
  C   C25       1.0  0.31512277242007514  0.4686379312248406  0.42733135921462656  1.0000
  C   C26       1.0  0.184883845729253  0.46863699078156884  0.9273312716328375  1.0000
  C   C27       1.0  0.6848844420938675  0.5313627378327938  0.5726697925338868  1.0000
  C   C28       1.0  0.8151154494522714  0.5313647107051693  0.07267000598930196  1.0000
  C   C29       1.0  0.24654547098275967  0.5863524739436132  0.47705805650765126  1.0000
  C   C30       1.0  0.2534614904676999  0.5863526912010216  0.9770575343548699  1.0000
  C   C31       1.0  0.7534630634171435  0.4136461215903395  0.5229422759666134  1.0000
  C   C32       1.0  0.7465351649346134  0.41364796054372027  0.0229424823406106  1.0000
  C   C33       1.0  0.1737377149997741  0.5801457691896913  0.5487955317732724  1.0000
  C   C34       1.0  0.3262642874462003  0.5801467486967199  0.04879675555824289  1.0000
  C   C35       1.0  0.8262642199585601  0.41985488256020187  0.45120448492248494  1.0000
  C   C36       1.0  0.6737350077339102  0.4198539117018856  0.9512038286636224  1.0000
  C   C37       1.0  0.1720784009868197  0.4543033434392072  0.5711249569139979  1.0000
  C   C38       1.0  0.3279244942857105  0.4543053326703158  0.07112460416566786  1.0000
  C   C39       1.0  0.8279208941920827  0.5456962672199809  0.4288743663813434  1.0000
  C   C40       1.0  0.6720774406730499  0.5456953017770019  0.9288742774776038  1.0000
  N   N1        1.0  0.2563238578869189  0.20955703870932751  0.6228133471583205  1.0000
  N   N2        1.0  0.2436782002271727  0.20955679855504175  0.12281273396279598  1.0000
  N   N3        1.0  0.7436793969583703  0.7904425979075997  0.37718767871595554  1.0000
  N   N4        1.0  0.7563197750627283  0.7904428121028602  0.8771865893324815  1.0000
  N   N5        1.0  0.24905104718481402  0.07925730341134601  0.6489079224411467  1.0000
  N   N6        1.0  0.2509479265952733  0.07925810989291902  0.14890743587048408  1.0000
  N   N7        1.0  0.7509456082156589  0.9207423245478522  0.35109253590653816  1.0000
  N   N8        1.0  0.7490540083630677  0.9207425418569816  0.8510925808252735  1.0000
  N   N9        1.0  0.7724005944922611  0.3256904283150562  0.7575915597906898  1.0000
  N   N10       1.0  0.7275998008668835  0.3256901740677733  0.25759207998750355  1.0000
  N   N11       1.0  0.2276013404626056  0.6743081672124518  0.24240877268323394  1.0000
  N   N12       1.0  0.27239817442259817  0.674309453892711  0.7424083783602597  1.0000
  Cl  Cl1       1.0  0.2462698786911517  0.7419398719467765  0.44817789281702136  1.0000
  Cl  Cl2       1.0  0.2537296924520405  0.7419442627389329  0.9481807118196739  1.0000
  Cl  Cl3       1.0  0.7537346960393164  0.25805662410447633  0.5518199178040033  1.0000
  Cl  Cl4       1.0  0.7462616833970799  0.2580584711769021  0.05182069167609878  1.0000
  O   O1        1.0  0.23875995052345902  0.08888527746970003  0.49239932448965357  1.0000
  O   O2        1.0  0.2612321818354602  0.08888653370139821  0.9923983614878295  1.0000
  O   O3        1.0  0.7612208662105643  0.9111153829108716  0.5076012597312597  1.0000
  O   O4        1.0  0.7387789923493883  0.9111161742798969  0.007601339430244982  1.0000
  O   O5        1.0  0.6842928995485664  0.43085317977685383  0.7456609696118548  1.0000
  O   O6        1.0  0.8157078473421393  0.430853088931535  0.24566093138032127  1.0000
  O   O7        1.0  0.31570771551587734  0.5691443746612422  0.2543386694617239  1.0000
  O   O8        1.0  0.18429276772372558  0.569145506594687  0.7543394010935316  1.0000
  O   O9        1.0  0.9287282716371551  0.3458042662169873  0.7813221837317385  1.0000
  O   O10       1.0  0.5712721702603929  0.3458037066997974  0.28132268778636416  1.0000
  O   O11       1.0  0.07127498321040092  0.6541963768829078  0.21867726543784727  1.0000
  O   O12       1.0  0.42872316525539134  0.6541979428753282  0.7186751846781263  1.0000
  O   O13       1.0  0.7003199507259339  0.20898792076028636  0.7462086559748825  1.0000
  O   O14       1.0  0.7996800741171269  0.20898676618048737  0.24620849021434305  1.0000
  O   O15       1.0  0.29968330411850985  0.7910117504618059  0.2537946400043579  1.0000
  O   O16       1.0  0.20031790117129586  0.7910129050364462  0.7537948057646203  1.0000
