data_image0
_chemical_formula_structural       Hg4H48C52N8Cl8O4
_chemical_formula_sum              "Hg4 H48 C52 N8 Cl8 O4"
_cell_length_a       7.079529043
_cell_length_b       9.263299906800672
_cell_length_c       20.6719
_cell_angle_alpha    95.0661229700606
_cell_angle_beta     90.0
_cell_angle_gamma    90.0

_space_group_name_H-M_alt    "P 1"
_space_group_IT_number       1

loop_
  _space_group_symop_operation_xyz
  'x, y, z'

loop_
  _atom_site_type_symbol
  _atom_site_label
  _atom_site_symmetry_multiplicity
  _atom_site_fract_x
  _atom_site_fract_y
  _atom_site_fract_z
  _atom_site_occupancy
  Hg  Hg1       1.0  0.2237041461911815  0.32710233462101  0.23720022748840816  1.0000
  Hg  Hg2       1.0  0.7237035075187563  0.672898491639657  0.2628007243292956  1.0000
  Hg  Hg3       1.0  0.7762959889873003  0.6728963241143049  0.7627996710621261  1.0000
  Hg  Hg4       1.0  0.2762980401830646  0.327101250858334  0.7372001846032958  1.0000
  H   H1        1.0  0.40987754727401443  0.9796347580540185  0.4189818184324352  1.0000
  H   H2        1.0  0.9098783211249284  0.0203660682066484  0.0810191333852686  1.0000
  H   H3        1.0  0.5901240004278067  0.0203660682066484  0.5810186496368033  1.0000
  H   H4        1.0  0.09012181405355342  0.9796347580540185  0.9189823021809075  1.0000
  H   H5        1.0  0.4148538669961326  0.1720841727396802  0.5146326501781076  1.0000
  H   H6        1.0  0.9148546408470466  0.8279155697583107  0.9853682587544766  1.0000
  H   H7        1.0  0.5851434431356708  0.8279166535209868  0.48536781789112377  1.0000
  H   H8        1.0  0.08514408180809599  0.17208634026503228  0.014632735948339397  1.0000
  H   H9        1.0  0.3481771153177533  0.4289413457556463  0.4935527741468775  1.0000
  H   H10       1.0  0.8481750641219891  0.5710594805050206  0.006448661419298704  1.0000
  H   H11       1.0  0.6518201948140501  0.5710594805050206  0.5064467264254162  1.0000
  H   H12       1.0  0.15182365853315363  0.4289413457556463  0.9935513229014675  1.0000
  H   H13       1.0  0.2762457768195361  0.4847432021781657  0.3791615407697648  1.0000
  H   H14       1.0  0.7762465506704501  0.5152597916078534  0.12083901306969841  1.0000
  H   H15       1.0  0.7237501207889352  0.5152587078451774  0.6208370351907035  1.0000
  H   H16       1.0  0.2237535845080387  0.48474103465281354  0.8791604875025953  1.0000
  H   H17       1.0  0.3694426541813698  0.9119212660600198  0.307924316764101  1.0000
  H   H18       1.0  0.8694391904622663  0.08807956020064718  0.1920756675566651  1.0000
  H   H19       1.0  0.6305560684737799  0.0880784764379712  0.6920751409230803  1.0000
  H   H20       1.0  0.130563769762901  0.9119190985346676  0.8079247147423417  1.0000
  H   H21       1.0  0.2464966227838943  0.7628724689978768  0.2348448336518558  1.0000
  H   H22       1.0  0.7464945715881299  0.23712944102545916  0.2651551935540226  1.0000
  H   H23       1.0  0.7535049249179268  0.2371272735001071  0.7651555915322631  1.0000
  H   H24       1.0  0.2535027385436806  0.7628703014725247  0.7348447478816311  1.0000
  H   H25       1.0  0.2758220198179373  0.5908446519173508  0.137923477494752  1.0000
  H   H26       1.0  0.775819968622173  0.4091561743433161  0.3620769905744865  1.0000
  H   H27       1.0  0.7241809404072228  0.40915509058064  0.862076947689367  1.0000
  H   H28       1.0  0.2241773415096375  0.5908435681546749  0.6379229508611672  1.0000
  H   H29       1.0  0.3982581302901522  0.9429363863206532  0.021085677710992498  1.0000
  H   H30       1.0  0.8982617291877375  0.0570633561773377  0.4789147474731266  1.0000
  H   H31       1.0  0.6017420048883295  0.0570633561773377  0.9789147474731265  1.0000
  H   H32       1.0  0.10173840599074421  0.9429363863206532  0.5210851939625272  1.0000
  H   H33       1.0  0.3730982645818345  0.1171471589325748  0.11945086125899002  1.0000
  H   H34       1.0  0.8730990384327484  0.8828536673280921  0.3805486393133037  1.0000
  H   H35       1.0  0.6269018705966474  0.8828514998027401  0.8805490372915443  1.0000
  H   H36       1.0  0.1269010967457405  0.1171471589325748  0.6194513450074625  1.0000
  H   H37       1.0  0.54908737239289  0.7628876416753414  0.9671375794195427  1.0000
  H   H38       1.0  0.0490894235886543  0.23711318458532557  0.532863372398161  1.0000
  H   H39       1.0  0.4509113502622597  0.2371121008226496  0.0328628457645834  1.0000
  H   H40       1.0  0.9509107115898274  0.7628876416753414  0.4671366119225979  1.0000
  H   H41       1.0  0.308442833801081  0.7489092706808052  0.9385023647805752  1.0000
  H   H42       1.0  0.8084421951286558  0.2510904718171787  0.5614980604035438  1.0000
  H   H43       1.0  0.69155871390074  0.2510904718171787  0.0614975766550714  1.0000
  H   H44       1.0  0.191557940049826  0.748908186918129  0.4385023218954629  1.0000
  H   H45       1.0  0.4604204573781558  0.5935768176234432  0.9325158908101869  1.0000
  H   H46       1.0  0.9604198187057307  0.4064229248745406  0.5674840506254597  1.0000
  H   H47       1.0  0.5395796778003259  0.4064229248745406  0.0674835668769873  1.0000
  H   H48       1.0  0.0395774914260798  0.5935779013861193  0.432515449946834  1.0000
  C   C1        1.0  0.3342326849184474  0.1326232899452862  0.351331310549682  1.0000
  C   C2        1.0  0.8342292211993367  0.8673764525526977  0.1486681471374993  1.0000
  C   C3        1.0  0.6657688627833807  0.8673775363153736  0.6486691575195493  1.0000
  C   C4        1.0  0.16576950145580582  0.1326232899452862  0.8513322780466196  1.0000
  C   C5        1.0  0.3780533964538719  0.0930399419685131  0.4134311108069539  1.0000
  C   C6        1.0  0.8780527577814468  0.9069598005294707  0.08656979812563749  1.0000
  C   C7        1.0  0.621948151247949  0.9069608842921468  0.5865693572622774  1.0000
  C   C8        1.0  0.12194737739703501  0.0930410257311891  0.913430669943601  1.0000
  C   C9        1.0  0.3829322520656291  0.1990579419816498  0.46548886156971747  1.0000
  C   C10       1.0  0.8829316133931968  0.8009439680416861  0.0345106818876886  1.0000
  C   C11       1.0  0.6170678831128596  0.80094288427901  0.5345106390025762  1.0000
  C   C12       1.0  0.1170685217852849  0.1990568582189738  0.9654897861815427  1.0000
  C   C13       1.0  0.34676600450242745  0.34262073237808716  0.4542177263079097  1.0000
  C   C14       1.0  0.8467639533066631  0.6573811776452558  0.045782784646434  1.0000
  C   C15       1.0  0.6532298931060438  0.6573800938825798  0.545781774264384  1.0000
  C   C16       1.0  0.1532347693484866  0.34262073237808716  0.9542172425594444  1.0000
  C   C17       1.0  0.3040470611711541  0.3746600083674991  0.39115376487814757  1.0000
  C   C18       1.0  0.8040464224987289  0.6253408178931679  0.10884621944261141  1.0000
  C   C19       1.0  0.6959530740073276  0.6253397341304918  0.6088456928090338  1.0000
  C   C20       1.0  0.1959523001564136  0.3746589246048231  0.8911537219930352  1.0000
  C   C21       1.0  0.3366862379577071  0.0226636450796818  0.2962034858436624  1.0000
  C   C22       1.0  0.8366813617152644  0.9773360974183091  0.2037969393404637  1.0000
  C   C23       1.0  0.663316722267453  0.9773350136556331  0.7037968964553443  1.0000
  C   C24       1.0  0.1633173609398781  0.022662561317005697  0.796203442958543  1.0000
  C   C25       1.0  0.3182655210981693  0.9529579397852571  0.1842103842310792  1.0000
  C   C26       1.0  0.8182648824257371  0.0470418027127337  0.3157895572045746  1.0000
  C   C27       1.0  0.6817346140803195  0.0470396351873816  0.8157904389312877  1.0000
  C   C28       1.0  0.1817352527527447  0.9529579397852571  0.6842103842310792  1.0000
  C   C29       1.0  0.2871222065272647  0.8035796788696246  0.1888992968104404  1.0000
  C   C30       1.0  0.7871201553314933  0.1964211473910424  0.3111011712587981  1.0000
  C   C31       1.0  0.7128779286512241  0.19641897986569026  0.811100601740101  1.0000
  C   C32       1.0  0.2128799798469885  0.8035785951069485  0.6888987701768556  1.0000
  C   C33       1.0  0.3007050309518746  0.7060247815930578  0.13449792062260002  1.0000
  C   C34       1.0  0.8007043922794423  0.2939749609049329  0.3655020208130466  1.0000
  C   C35       1.0  0.6992951042266071  0.2939738771422569  0.8655019779279342  1.0000
  C   C36       1.0  0.1992957428990394  0.7060247815930578  0.6344979206226  1.0000
  C   C37       1.0  0.3473366639312445  0.7546467102873393  0.07395015718769571  1.0000
  C   C38       1.0  0.8473402628288369  0.2453541159733277  0.4260498271330704  1.0000
  C   C39       1.0  0.6526606462005589  0.24535628349867977  0.9260479779094126  1.0000
  C   C40       1.0  0.1526584598263057  0.7546456265246632  0.5739505980510557  1.0000
  C   C41       1.0  0.3708438773333214  0.903446241934013  0.0681784510594454  1.0000
  C   C42       1.0  0.8708460637075746  0.0965535005639779  0.4318219741246736  1.0000
  C   C43       1.0  0.6291562578451605  0.0965524168013019  0.9318219312395613  1.0000
  C   C44       1.0  0.1291568965175856  0.903446241934013  0.5681779673109801  1.0000
  C   C45       1.0  0.3555971004157641  0.0013286930407261  0.1230586868927688  1.0000
  C   C46       1.0  0.8555992867900173  0.9986743007452858  0.3769408994497496  1.0000
  C   C47       1.0  0.6444030347627177  0.9986721332199338  0.8769412974279972  1.0000
  C   C48       1.0  0.1444036734351428  0.0013276092780501  0.6230586440076564  1.0000
  C   C49       1.0  0.4235267602955446  0.6931702724934894  0.9620360290892193  1.0000
  C   C50       1.0  0.9235261216231195  0.30682947000449445  0.5379643960948997  1.0000
  C   C51       1.0  0.5764733748829372  0.30682947000449445  0.0379643960948997  1.0000
  C   C52       1.0  0.0764726010320302  0.6931713562561653  0.4620355882258593  1.0000
  N   N1        1.0  0.2951580518009322  0.2718022603174575  0.3416252970040219  1.0000
  N   N2        1.0  0.7951560006051679  0.7281996497058785  0.1583756976987942  1.0000
  N   N3        1.0  0.7048420833775495  0.7281985659432024  0.6583746873167442  1.0000
  N   N4        1.0  0.2048441345733139  0.2718000927921054  0.8416247274853248  1.0000
  N   N5        1.0  0.3122891348522714  0.05640117718232321  0.23762044642892022  1.0000
  N   N6        1.0  0.8122856711331679  0.9435985653156606  0.2623790112582611  1.0000
  N   N7        1.0  0.6877124128495495  0.9435974815529846  0.7623794521216141  1.0000
  N   N8        1.0  0.1877116389986426  0.05640009341964709  0.737620887292273  1.0000
  Cl  Cl1       1.0  0.0465073309255715  0.3050791932828218  0.1346056470390309  1.0000
  Cl  Cl2       1.0  0.5465081047764855  0.6949216329778451  0.3653953047786729  1.0000
  Cl  Cl3       1.0  0.9534913917295712  0.6949205492151689  0.8653947781450881  1.0000
  Cl  Cl4       1.0  0.4534920304020034  0.3050791932828218  0.6346051632905585  1.0000
  Cl  Cl5       1.0  0.5593776049150705  0.4219998458161172  0.2070663776371688  1.0000
  Cl  Cl6       1.0  0.0593782435874957  0.5780009804445427  0.2929345741805349  1.0000
  Cl  Cl7       1.0  0.4406225302634184  0.5780009804445427  0.7929345741805349  1.0000
  Cl  Cl8       1.0  0.9406218915909861  0.4219998458161172  0.7070663776371688  1.0000
  O   O1        1.0  0.3654240252828629  0.6498641997247958  0.0239459491150171  1.0000
  O   O2        1.0  0.8654247991337769  0.3501366265358712  0.476054035205749  1.0000
  O   O3        1.0  0.6345761098956189  0.3501366265358712  0.976054035205749  1.0000
  O   O4        1.0  0.1345739235213728  0.6498641997247958  0.5239454653665447  1.0000
