data_image0
_chemical_formula_structural       Ba2H24C28N4O20
_chemical_formula_sum              "Ba2 H24 C28 N4 O20"
_cell_length_a       7.163116561735931
_cell_length_b       10.467887750765591
_cell_length_c       11.140752513337576
_cell_angle_alpha    89.92767436040485
_cell_angle_beta     85.02722829674472
_cell_angle_gamma    82.55082226509083

_space_group_name_H-M_alt    "P 1"
_space_group_IT_number       1

loop_
  _space_group_symop_operation_xyz
  'x, y, z'

loop_
  _atom_site_type_symbol
  _atom_site_label
  _atom_site_symmetry_multiplicity
  _atom_site_fract_x
  _atom_site_fract_y
  _atom_site_fract_z
  _atom_site_occupancy
  Ba  Ba1       1.0  0.26522134651219903  0.9541761947835422  0.7528723508433401  1.0000
  Ba  Ba2       1.0  0.7347740706799967  0.04582327660193639  0.2471314242138263  1.0000
  H   H1        1.0  0.30920938879223303  0.02573247548203029  0.444335090755736  1.0000
  H   H2        1.0  0.690785901272875  0.9742669642984085  0.5556624088340668  1.0000
  H   H3        1.0  0.16676539166849114  0.0595225788704781  0.052034857363416606  1.0000
  H   H4        1.0  0.8332387774949622  0.9404750033962798  0.9479665720329891  1.0000
  H   H5        1.0  0.008507084169721723  0.7256555439181439  0.6904783459084811  1.0000
  H   H6        1.0  0.9914958593613505  0.27434780544774634  0.3095204277752686  1.0000
  H   H7        1.0  0.9798529752048213  0.7226376366319727  0.8316931270296379  1.0000
  H   H8        1.0  0.02015434431188372  0.2773647681745572  0.1683044738237314  1.0000
  H   H9        1.0  0.6459771100859512  0.7467513444721375  0.8252281651178777  1.0000
  H   H10       1.0  0.3540160722052761  0.2532519593323102  0.17477303320422521  1.0000
  H   H11       1.0  0.6780842967543278  0.7582362267265522  0.6841444609524386  1.0000
  H   H12       1.0  0.3219074677241949  0.24176706476411167  0.3158559311097093  1.0000
  H   H13       1.0  0.9747419199724374  0.4689688782403321  0.5825168084040797  1.0000
  H   H14       1.0  0.025245787827863405  0.5310411688276346  0.41748918250311107  1.0000
  H   H15       1.0  0.7916254799802189  0.5469784267860259  0.7754608694633375  1.0000
  H   H16       1.0  0.2083764618730868  0.4530172581518455  0.2245496940994443  1.0000
  H   H17       1.0  0.7145678623890463  0.3849057383862585  0.9326526899636887  1.0000
  H   H18       1.0  0.28544158764213284  0.615093820017023  0.0673519757303325  1.0000
  H   H19       1.0  0.23754154166334734  0.5055848587588371  0.8916914748656098  1.0000
  H   H20       1.0  0.7624633326110557  0.49441559453874356  0.10830450221006771  1.0000
  H   H21       1.0  0.3753394945406471  0.5842015258506094  0.6954640706439932  1.0000
  H   H22       1.0  0.6246627756219213  0.4157979484087235  0.3045320812735568  1.0000
  H   H23       1.0  0.5461313236024881  0.4170628637450163  0.5440246315531139  1.0000
  H   H24       1.0  0.4538647426492587  0.5829317091669141  0.45596297844350175  1.0000
  C   C1        1.0  0.12120468589125724  0.2155105130376143  0.5261782938462715  1.0000
  C   C2        1.0  0.8787946624204183  0.7844899271248733  0.47382163015228673  1.0000
  C   C3        1.0  0.0026069863692015026  0.2695808918322413  0.6379889894408419  1.0000
  C   C4        1.0  0.997383024396541  0.7304243277710326  0.3620132971051504  1.0000
  C   C5        1.0  0.9411427075949915  0.4013767048007609  0.652678576958607  1.0000
  C   C6        1.0  0.05883821373105043  0.5986245883882758  0.3473207327381402  1.0000
  C   C7        1.0  0.8392559559641057  0.4450628692045341  0.760222542648016  1.0000
  C   C8        1.0  0.1607356526561219  0.5549346519032241  0.2397814918575207  1.0000
  C   C9        1.0  0.796448123710121  0.35611003087898746  0.8479958034936743  1.0000
  C   C10       1.0  0.2035440493125265  0.6438913382452968  0.15200547380603519  1.0000
  C   C11       1.0  0.8589845453269831  0.22589231065521884  0.824131055719846  1.0000
  C   C12       1.0  0.141015211528817  0.7741062071408891  0.1758697535162668  1.0000
  C   C13       1.0  0.8115531511806963  0.12616595033382785  0.9144334752449622  1.0000
  C   C14       1.0  0.1884490539286432  0.8738277761176292  0.0855708015926595  1.0000
  C   C15       1.0  0.24237440074924166  0.24986922025038896  0.9591734105454109  1.0000
  C   C16       1.0  0.7576279420573827  0.7501302720689579  0.04082632735349281  1.0000
  C   C17       1.0  0.323603733139258  0.30529535339075403  0.8437337382140555  1.0000
  C   C18       1.0  0.6763943925512593  0.6947041110172593  0.15626537389565698  1.0000
  C   C19       1.0  0.3098453843903712  0.4381130822076216  0.8234067958138951  1.0000
  C   C20       1.0  0.690159153983963  0.5618893115163601  0.1765918820055745  1.0000
  C   C21       1.0  0.3859352100406425  0.48123697947986704  0.7134921787270443  1.0000
  C   C22       1.0  0.6140696642337603  0.5187634738177138  0.2865037983486332  1.0000
  C   C23       1.0  0.4783065286447084  0.39029933265563677  0.6298058806268543  1.0000
  C   C24       1.0  0.5216968551729408  0.6097010902681389  0.3701857042075147  1.0000
  C   C25       1.0  0.48801021948302287  0.25979910931435757  0.6584512480684381  1.0000
  C   C26       1.0  0.5119943869557703  0.7402022893638928  0.34154114865477675  1.0000
  C   C27       1.0  0.5927055086356817  0.15902297142253016  0.5731576316907834  1.0000
  C   C28       1.0  0.40729977418285296  0.8409755595086778  0.4268392306224413  1.0000
  N   N1        1.0  0.9639266778469492  0.18357217564007297  0.722974872021446  1.0000
  N   N2        1.0  0.03607027970546281  0.8164263265584779  0.2770261176854375  1.0000
  N   N3        1.0  0.4084452235870372  0.2178219184847378  0.7619026274523931  1.0000
  N   N4        1.0  0.591552579784839  0.7821784777589258  0.23809021481884676  1.0000
  O   O1        1.0  0.20158838306321059  0.09977705314685888  0.5357489512608282  1.0000
  O   O2        1.0  0.7984196279830158  0.900229231281237  0.46425216785407747  1.0000
  O   O3        1.0  0.1361642124199207  0.28566686647667433  0.43447465752534936  1.0000
  O   O4        1.0  0.8638340918694991  0.7143393859349912  0.5655315757139262  1.0000
  O   O5        1.0  0.8752013201996433  0.006756748123862598  0.8795498316913141  1.0000
  O   O6        1.0  0.12480284896381735  0.9932408341428951  0.12045159770509879  1.0000
  O   O7        1.0  0.7210691108663738  0.1569134196664166  0.012357622623959208  1.0000
  O   O8        1.0  0.27893633540127644  0.8430851518998353  0.9876473081473164  1.0000
  O   O9        1.0  0.2206874607078362  0.1304397735383347  0.9527358830131972  1.0000
  O   O10       1.0  0.7793141043437901  0.8695568296901753  0.04726572122508801  1.0000
  O   O11       1.0  0.20250497713785623  0.3208408286265866  0.0515921335908942  1.0000
  O   O12       1.0  0.797491080112053  0.6791557659818324  0.9484143140656157  1.0000
  O   O13       1.0  0.6040186944865127  0.041209785098629895  0.6169719166460794  1.0000
  O   O14       1.0  0.39598830729113377  0.9587945646493026  0.38302928144643283  1.0000
  O   O15       1.0  0.6620415080281605  0.18750504870904192  0.472361246290248  1.0000
  O   O16       1.0  0.3379684866760755  0.8124905972364118  0.5276317424488041  1.0000
  O   O17       1.0  0.07147179593191308  0.7395702304352056  0.7637449708742068  1.0000
  O   O18       1.0  0.9285275887017902  0.26043021875729266  0.236256746115032  1.0000
  O   O19       1.0  0.5802446725876963  0.7720130171760928  0.7532514933865356  1.0000
  O   O20       1.0  0.4197471100518372  0.22799027882957287  0.24674979517094897  1.0000
