data_image0
_chemical_formula_structural       Zn2H40C52N4O12
_chemical_formula_sum              "Zn2 H40 C52 N4 O12"
_cell_length_a       9.392936334
_cell_length_b       11.7079812542464
_cell_length_c       12.897
_cell_angle_alpha    115.85663276562065
_cell_angle_beta     90.0
_cell_angle_gamma    113.64904068096507

_space_group_name_H-M_alt    "P 1"
_space_group_IT_number       1

loop_
  _space_group_symop_operation_xyz
  'x, y, z'

loop_
  _atom_site_type_symbol
  _atom_site_label
  _atom_site_symmetry_multiplicity
  _atom_site_fract_x
  _atom_site_fract_y
  _atom_site_fract_z
  _atom_site_occupancy
  Zn  Zn1       1.0  0.46610072244753553  3.07489415903e-05  0.2501812054730692  1.0000
  Zn  Zn2       1.0  0.5338976234300716  0.9999672440007643  0.749818310055737  1.0000
  H   H1        1.0  0.7658893657979321  0.370246945414749  0.5603547884392128  1.0000
  H   H2        1.0  0.3955638749373378  0.6297224192026789  0.9396194360204929  1.0000
  H   H3        1.0  0.2341089800796681  0.6297510475276127  0.4396447270895933  1.0000
  H   H4        1.0  0.6044355355700759  0.3702755737396828  0.06037930413419452  1.0000
  H   H5        1.0  0.23421285571001246  0.472789364086239  0.23537465575130057  1.0000
  H   H6        1.0  0.7616441937272711  0.5276751645216748  0.2648809018774259  1.0000
  H   H7        1.0  0.7657897443635518  0.5272107494727861  0.764627250106109  1.0000
  H   H8        1.0  0.23835362199706372  0.4723217681123586  0.7351174184870786  1.0000
  H   H9        1.0  0.14445868156600733  0.5882113480519349  0.26849053539736895  1.0000
  H   H10       1.0  0.5565944451339959  0.4119647766899988  0.23170356474126666  1.0000
  H   H11       1.0  0.8555423194012022  0.4117898258154185  0.7315117902502236  1.0000
  H   H12       1.0  0.44340336626707  0.5880342765606912  0.7682948198294851  1.0000
  H   H13       1.0  0.1495576556308649  0.47022553854236543  0.04955150818003773  1.0000
  H   H14       1.0  0.6794440685861929  0.5300534361076572  0.4506507458935189  1.0000
  H   H15       1.0  0.8504486641621228  0.5297777559416446  0.9504501062996906  1.0000
  H   H16       1.0  0.3205542772914072  0.4699445568347045  0.5493479942611756  1.0000
  H   H17       1.0  0.8273819674459588  0.268880408682115  0.06917412122891162  1.0000
  H   H18       1.0  0.5581461332201556  0.7310423023687632  0.4308266041615383  1.0000
  H   H19       1.0  0.17262275756394976  0.7311218254935737  0.9308262980865151  1.0000
  H   H20       1.0  0.4418522126574445  0.2689556905735984  0.5691721359931563  1.0000
  H   H21       1.0  0.8825234785724164  0.2868600570474555  0.9358683737403763  1.0000
  H   H22       1.0  0.5952488162260465  0.7131230915782749  0.5641810916623483  1.0000
  H   H23       1.0  0.1174807162842271  0.713141116819898  0.06413007503662271  1.0000
  H   H24       1.0  0.4047500641280948  0.2868738410557583  0.4358156779539256  1.0000
  H   H25       1.0  0.4738672724479756  0.13576930083371508  0.08075140050951289  1.0000
  H   H26       1.0  0.3376621251038116  0.8640632840090416  0.4194377258353796  1.0000
  H   H27       1.0  0.5261316035828969  0.864229752416982  0.9192485348094763  1.0000
  H   H28       1.0  0.662335151820713  0.1359368295499763  0.5805634046479183  1.0000
  H   H29       1.0  0.2907166231728624  0.21083170849590255  0.016433009363474603  1.0000
  H   H30       1.0  0.07925391122092411  0.7889637655552731  0.483508036715449  1.0000
  H   H31       1.0  0.7092827873345513  0.789166284446452  0.9835665061653386  1.0000
  H   H32       1.0  0.920740706290715  0.21103528769541666  0.5164926739776589  1.0000
  H   H33       1.0  0.03260070749140449  0.17095351217458438  0.08466501533640519  1.0000
  H   H34       1.0  0.8614077218659945  0.8293859000502906  0.4154433099117157  1.0000
  H   H35       1.0  0.967399763322547  0.8290466013844335  0.9153353397727741  1.0000
  H   H36       1.0  0.1385890205819962  0.17061527381706298  0.5845559142394093  1.0000
  H   H37       1.0  0.8400252436271245  0.0640426231802067  0.1908767662219688  1.0000
  H   H38       1.0  0.7762810002490638  0.9366944046687209  0.3094494595264408  1.0000
  H   H39       1.0  0.15997256777394137  0.9359564300704832  0.8091208429746714  1.0000
  H   H40       1.0  0.2237178714585397  0.0633067691986327  0.6905489892505656  1.0000
  C   C1        1.0  0.7307431762499874  0.23921934343636758  0.33107671971810493  1.0000
  C   C2        1.0  0.4916433403448578  0.7608868009557382  0.16899430325186424  1.0000
  C   C3        1.0  0.2692578290404981  0.7607797098143294  0.66892399097501  1.0000
  C   C4        1.0  0.5083555400092834  0.2391101316782951  0.8310047924867587  1.0000
  C   C5        1.0  0.871583563463446  0.3737003696481551  0.41516548152735305  1.0000
  C   C6        1.0  0.4978365239327474  0.6263029248358549  0.08484621281591134  1.0000
  C   C7        1.0  0.1284169116737743  0.6262976232942066  0.5848340340014602  1.0000
  C   C8        1.0  0.5021660761408171  0.3736971887231633  0.9151525915450306  1.0000
  C   C9        1.0  0.003392980024131021  0.4475349402632887  0.3784403716576534  1.0000
  C   C10       1.0  0.5558847365461544  0.5525054650123025  0.12158834146441681  1.0000
  C   C11       1.0  0.9966090855728922  0.5524662336040649  0.6215619539899464  1.0000
  C   C12       1.0  0.4441173290508686  0.44749570885505097  0.8784108826867082  1.0000
  C   C13       1.0  0.8707001967480111  0.4283974352007078  0.5358337267189057  1.0000
  C   C14       1.0  0.4422014703155455  0.57154966294177  0.9641541679963551  1.0000
  C   C15       1.0  0.12929921375939563  0.5716005577416468  0.46416501343578187  1.0000
  C   C16       1.0  0.557801129758019  0.4284504506172482  0.03584541173870559  1.0000
  C   C17       1.0  0.1202537642136221  0.4756871867543069  0.2195614088674134  1.0000
  C   C18       1.0  0.644661568967436  0.5245599786457902  0.28062359925590397  1.0000
  C   C19       1.0  0.8797445773407091  0.5243129268047113  0.7804373954935214  1.0000
  C   C20       1.0  0.3553383760165118  0.4754369539882432  0.7193731703603631  1.0000
  C   C21       1.0  0.062149507617107164  0.4200496277123378  0.09117491538840033  1.0000
  C   C22       1.0  0.6420416176017839  0.5801254367212678  0.408993177614164  1.0000
  C   C23       1.0  0.9378578724824109  0.5799557873883358  0.9088275386716944  1.0000
  C   C24       1.0  0.3579583230588952  0.4198736165294221  0.5910059823307137  1.0000
  C   C25       1.0  0.9163778800630453  0.3196426700190784  0.028889316858830224  1.0000
  C   C26       1.0  0.5964174809830141  0.6803701672399142  0.47118198253258464  1.0000
  C   C27       1.0  0.0836305646662794  0.6803627450816023  0.9711108110789083  1.0000
  C   C28       1.0  0.4035824596776649  0.3196288860107756  0.5288179527864044  1.0000
  C   C29       1.0  0.3607291409562876  0.11954234213917658  0.1081503013059475  1.0000
  C   C30       1.0  0.24091495838253243  0.8805118471447172  0.39208701710743554  1.0000
  C   C31       1.0  0.6392692049213196  0.880455650803185  0.8918484388487398  1.0000
  C   C32       1.0  0.7590817840654509  0.1194893267226362  0.6079145331660456  1.0000
  C   C33       1.0  0.2571122386848401  0.1616832364384209  0.0730425528013328  1.0000
  C   C34       1.0  0.09503699909657821  0.8383370229788908  0.4270518448484424  1.0000
  C   C35       1.0  0.7428855770394946  0.8383136961956126  0.9269557675631717  1.0000
  C   C36       1.0  0.9049602735046777  0.16166521119679797  0.5729485744669844  1.0000
  C   C37       1.0  0.1146766186496606  0.1386384951768491  0.1101101952695629  1.0000
  C   C38       1.0  0.9758667619322238  0.8616860727313947  0.3900697903277788  1.0000
  C   C39       1.0  0.8853222573812116  0.8613605580738407  0.8898889646753074  1.0000
  C   C40       1.0  0.024131045145573196  0.1383151011359587  0.6099309845715836  1.0000
  C   C41       1.0  0.0738236342235723  0.070723625972569  0.18077316292445994  1.0000
  C   C42       1.0  0.0032805280742422313  0.9298649587100484  0.31961680130880404  1.0000
  C   C43       1.0  0.9261757676372966  0.9292786082031128  0.8192280317650854  1.0000
  C   C44       1.0  0.996717813480089  0.0701351548489768  0.6803827784262566  1.0000
  C   C45       1.0  0.18638380379969988  0.033881092402325  0.2134349106481324  1.0000
  C   C46       1.0  0.15273321514955276  0.9667032510469652  0.2870751081609201  1.0000
  C   C47       1.0  0.8136171928442479  0.9661222020816921  0.7865682545798337  1.0000
  C   C48       1.0  0.847267781494395  0.0333000434370447  0.7129280570670389  1.0000
  C   C49       1.0  0.9251819131353757  0.035259493232359794  0.2175078147504692  1.0000
  C   C50       1.0  0.8902670775470299  0.9654701124582488  0.28288758225962607  1.0000
  C   C51       1.0  0.07481855335529992  0.964742740943322  0.7824926045649575  1.0000
  C   C52       1.0  0.1097312596840325  0.034532121717433  0.7171136124299194  1.0000
  N   N1        1.0  0.3268821662669766  0.0593560603580841  0.17783962345180976  1.0000
  N   N2        1.0  0.2675665811921064  0.9409844121751263  0.3226064093278254  1.0000
  N   N3        1.0  0.6731167054406271  0.9406451135092694  0.8221619268216642  1.0000
  N   N4        1.0  0.7324322905154901  0.05901676169222719  0.6773959163197745  1.0000
  O   O1        1.0  0.6948755273199653  0.2054082313838705  0.22473472418545268  1.0000
  O   O2        1.0  0.4901021638388415  0.7948919494327669  0.2754232002517583  1.0000
  O   O3        1.0  0.30512600812378565  0.7945918821751476  0.7752664062978382  1.0000
  O   O4        1.0  0.5098951174089521  0.2051060435095948  0.7245755399029291  1.0000
  O   O5        1.0  0.6485497631227304  0.1607565269573001  0.3773379807519177  1.0000
  O   O6        1.0  0.4875561113070574  0.8392753958516436  0.12275173010046812  1.0000
  O   O7        1.0  0.3514501818612175  0.8392404056767262  0.6226603396125867  1.0000
  O   O8        1.0  0.5124417000940014  0.16072365739904626  0.8772482052185281  1.0000
  O   O9        1.0  0.0015843027351322785  0.39290043290225185  0.2607681277071876  1.0000
  O   O10       1.0  0.6085050741475727  0.6071039218900935  0.2392827551321588  1.0000
  O   O11       1.0  0.998416168078812  0.6070996806567734  0.7392306766537544  1.0000
  O   O12       1.0  0.3914969957727195  0.3928951313605964  0.7607171801868303  1.0000
