data_image0
_chemical_formula_structural       Zn6H16C48O32
_chemical_formula_sum              "Zn6 H16 C48 O32"
_cell_length_a       18.082270151011983
_cell_length_b       18.082154973579673
_cell_length_c       18.082218417389953
_cell_angle_alpha    61.548063594166344
_cell_angle_beta     74.82328058841921
_cell_angle_gamma    105.17640832872797

_space_group_name_H-M_alt    "P 1"
_space_group_IT_number       1

loop_
  _space_group_symop_operation_xyz
  'x, y, z'

loop_
  _atom_site_type_symbol
  _atom_site_label
  _atom_site_symmetry_multiplicity
  _atom_site_fract_x
  _atom_site_fract_y
  _atom_site_fract_z
  _atom_site_occupancy
  Zn  Zn1       1.0  0.44118609033026257  0.44118524050472985  2.3451988799711183e-07  1.0000
  Zn  Zn2       1.0  9.487583554303603e-07  0.5696693438482542  0.43033395363954696  1.0000
  Zn  Zn3       1.0  0.9999965602640515  0.4303301211970736  0.5696731885009636  1.0000
  Zn  Zn4       1.0  0.4411887974477651  4.817795656376476e-07  0.5588104936561038  1.0000
  Zn  Zn5       1.0  0.5588155148153222  0.5588141401762458  0.9999980645432769  1.0000
  Zn  Zn6       1.0  0.5588147318541132  3.9284228128350196e-07  0.4411816084096499  1.0000
  H   H1        1.0  0.7715371368447279  0.5113447402378383  0.8754467978481204  1.0000
  H   H2        1.0  0.38678704072035003  0.7398115964889345  0.48865649431057484  1.0000
  H   H3        1.0  0.22846072039000379  0.3530240616751996  0.26018874745934534  1.0000
  H   H4        1.0  0.6132083112442998  0.12455540656920039  0.6469811430571327  1.0000
  H   H5        1.0  0.3867914099713234  0.6469848387737758  0.12455424442385504  1.0000
  H   H6        1.0  0.2284561614626243  0.8754395074299169  0.511351678494293  1.0000
  H   H7        1.0  0.6132092414016058  0.48865019351853084  0.7398167388281535  1.0000
  H   H8        1.0  0.7715368336868805  0.2601949339429622  0.3530216817293875  1.0000
  H   H9        1.0  0.8932170152142618  0.5025086513757842  0.8420199686427025  1.0000
  H   H10       1.0  0.3445255057146425  0.6092920675777194  0.49749126512575226  1.0000
  H   H11       1.0  0.10678384913371274  0.2647694649358385  0.3907052331269226  1.0000
  H   H12       1.0  0.655470877776281  0.15797662168680657  0.7352395922364181  1.0000
  H   H13       1.0  0.3445294559703102  0.7352429845568482  0.1579782026806099  1.0000
  H   H14       1.0  0.10677683769549885  0.8420148203232004  0.5025124664656601  1.0000
  H   H15       1.0  0.6554752009470305  0.4974918661180964  0.6092954439520565  1.0000
  H   H16       1.0  0.8932191269390872  0.39070709831348444  0.2647683419420304  1.0000
  C   C1        1.0  0.6168973184750044  0.5000035347640406  0.8831107452578237  1.0000
  C   C2        1.0  0.5000226274100187  0.1393343452340049  0.3606360231236465  1.0000
  C   C3        1.0  0.49998949904802714  0.3606434901870302  0.13933246835096463  1.0000
  C   C4        1.0  0.5000118944201761  0.8606668075655507  0.6393324238357676  1.0000
  C   C5        1.0  0.5000030022454711  0.6393460219474039  0.8606619461343852  1.0000
  C   C6        1.0  0.5000034520389817  0.717165145724202  0.7828509112907795  1.0000
  C   C7        1.0  0.5000155454345219  0.21714947032441503  0.28281784692051554  1.0000
  C   C8        1.0  0.5000006904783733  0.2828261161653032  0.21714108657747033  1.0000
  C   C9        1.0  0.3830963038792777  0.8831050634445605  0.5000126766901614  1.0000
  C   C10       1.0  0.5000098216718742  0.7828594846543669  0.7171544188311498  1.0000
  C   C11       1.0  0.7613599364800265  0.5062611600808679  0.8207791887626996  1.0000
  C   C12       1.0  0.3270299369824415  0.7449029727523709  0.49374359377321736  1.0000
  C   C13       1.0  0.23864107837466267  0.4178740264866719  0.2550931993680121  1.0000
  C   C14       1.0  0.6729599370418812  0.17922248555753834  0.5821368170103511  1.0000
  C   C15       1.0  0.32703627972627225  0.5821397996596006  0.17922058595503623  1.0000
  C   C16       1.0  0.38310993214134476  0.5000049657868928  0.11688936018752819  1.0000
  C   C17       1.0  0.23863566837577846  0.8207729862931005  0.50626291000178  1.0000
  C   C18       1.0  0.6729658851611973  0.49373775864800956  0.7449098410625085  1.0000
  C   C19       1.0  0.7613576638157297  0.2550964456215039  0.4178707795817261  1.0000
  C   C20       1.0  0.6168913867166665  0.11689588774351026  0.4999970975993619  1.0000
  C   C21       1.0  0.8256268937631508  0.5062523488036137  0.7575897703370414  1.0000
  C   C22       1.0  0.26383945662206554  0.6806246355272664  0.49375126982301504  1.0000
  C   C23       1.0  0.17437233064696764  0.4167900753345961  0.31937075857778285  1.0000
  C   C24       1.0  0.7361593258948104  0.24241028074898435  0.5832178459158257  1.0000
  C   C25       1.0  0.2638399795264237  0.583222102597752  0.24240461816794573  1.0000
  C   C26       1.0  0.17437049450421688  0.757587641554352  0.5062530617011446  1.0000
  C   C27       1.0  0.7361578501312636  0.4937456255723732  0.6806302665935816  1.0000
  C   C28       1.0  0.8256319774360891  0.31937413032476775  0.4167885382911152  1.0000
  C   C29       1.0  0.8139566061124984  0.5000016117491344  0.6860473794748781  1.0000
  C   C30       1.0  0.18604028888789526  0.6860412020014125  0.5000059430914873  1.0000
  C   C31       1.0  0.18604282043437356  0.5000082500573485  0.3139483003517966  1.0000
  C   C32       1.0  0.8139574538557498  0.3139486047714612  0.5000067524355671  1.0000
  C   C33       1.0  0.882881840811592  0.3828713922397852  0.5000114021819685  1.0000
  C   C34       1.0  0.8828809043559361  0.5000063443275736  0.6171170163344826  1.0000
  C   C35       1.0  0.11711583649459117  0.6171134028350099  0.5000088366271382  1.0000
  C   C36       1.0  0.11711809543315621  0.5000094498426152  0.3828753699836227  1.0000
  C   C37       1.0  0.68466672325949  0.5000000310938476  0.8153343325096924  1.0000
  C   C38       1.0  0.31532775609844804  0.8153310584476545  0.5000069035542506  1.0000
  C   C39       1.0  0.3153327897372052  0.5000042647178733  0.18466227564913848  1.0000
  C   C40       1.0  0.6846675504739607  0.18467115004548862  0.4999989745773519  1.0000
  C   C41       1.0  0.9042974091683365  0.5162997905897768  0.7716987982368049  1.0000
  C   C42       1.0  0.2879962490382226  0.6120044731261346  0.4836987007194151  1.0000
  C   C43       1.0  0.09570180346361212  0.32400962667974653  0.38799474095191744  1.0000
  C   C44       1.0  0.7119999318373615  0.2283004991162727  0.6759975510764348  1.0000
  C   C45       1.0  0.2879979182453172  0.6760003584078974  0.22829907190482143  1.0000
  C   C46       1.0  0.09569790163293138  0.7716937117145123  0.516302179272017  1.0000
  C   C47       1.0  0.712001030564224  0.4836937115293055  0.6120108264441839  1.0000
  C   C48       1.0  0.904303645754716  0.3879973044504014  0.324007281194234  1.0000
  O   O1        1.0  0.5399256513659837  0.46393981533051964  0.8953469324930547  1.0000
  O   O2        1.0  0.35926931216798175  0.9240085370693623  0.5360761437698326  1.0000
  O   O3        1.0  0.4600814990009498  0.5647341601393452  0.07598951997396582  1.0000
  O   O4        1.0  0.6407118684019721  0.10465359857582968  0.4352751476195493  1.0000
  O   O5        1.0  0.3592844180267605  0.4352771022124672  0.10464690115326641  1.0000
  O   O6        1.0  0.4600671786257141  0.8953416347781344  0.4639500472692217  1.0000
  O   O7        1.0  0.6407245045373318  0.5360682019775853  0.9240114338987835  1.0000
  O   O8        1.0  0.5399154635086347  0.07599222481302097  0.564735630759671  1.0000
  O   O9        1.0  0.43817541202189164  0.5578460619126064  0.9020400574882855  1.0000
  O   O10       1.0  0.45991756391044464  0.11967485417330447  0.4421344040897282  1.0000
  O   O11       1.0  0.5618329317115711  0.659789212074607  0.880333103289004  1.0000
  O   O12       1.0  0.5401278423208424  0.09794618316112043  0.340189934233507  1.0000
  O   O13       1.0  0.45987203521244174  0.34019621353663615  0.09795049547029318  1.0000
  O   O14       1.0  0.5618324770093325  0.9020441011115353  0.557837965821264  1.0000
  O   O15       1.0  0.5400981932898858  0.4421411061805075  0.11966816526533813  1.0000
  O   O16       1.0  0.4381738691891144  0.8803368326315921  0.6597808152310305  1.0000
  O   O17       1.0  0.9157114735644145  0.347342508576233  0.553579026154182  1.0000
  O   O18       1.0  0.9009178185538146  0.4316382352415218  0.6526524111003553  1.0000
  O   O19       1.0  0.08428300062249867  0.5307123490423679  0.5683731488071472  1.0000
  O   O20       1.0  0.09908228009066292  0.44644203155041867  0.4692762614242766  1.0000
  O   O21       1.0  0.9009162401507711  0.4692738772320909  0.4464429523002306  1.0000
  O   O22       1.0  0.08428416248597179  0.5535768954422979  0.3473447938446411  1.0000
  O   O23       1.0  0.09908056882444778  0.652645262458016  0.43164446166993986  1.0000
  O   O24       1.0  0.915712326834921  0.5683645354144957  0.5307199704979267  1.0000
  O   O25       1.0  0.9749775472178044  0.5390222824691263  0.7155549072024171  1.0000
  O   O26       1.0  0.25457722317693776  0.5640527278686136  0.4609689333237623  1.0000
  O   O27       1.0  0.025019924140480005  0.3094726306435405  0.43595031368766957  1.0000
  O   O28       1.0  0.7454199215898145  0.2844439783481364  0.6905353740805606  1.0000
  O   O29       1.0  0.25457414660376565  0.6905352207801843  0.2844431661472978  1.0000
  O   O30       1.0  0.02501748913302757  0.7155487656011276  0.5390273909102986  1.0000
  O   O31       1.0  0.7454182139360414  0.4609614907043564  0.5640597170427667  1.0000
  O   O32       1.0  0.9749859221259456  0.4359540512587115  0.3094679074683811  1.0000
