data_image0
_chemical_formula_structural       Zn2H48C60N2O8
_chemical_formula_sum              "Zn2 H48 C60 N2 O8"
_cell_length_a       17.909285702483242
_cell_length_b       18.21570373723876
_cell_length_c       19.69003239988462
_cell_angle_alpha    90.01795220766681
_cell_angle_beta     90.31768998345848
_cell_angle_gamma    90.10860337097294

_space_group_name_H-M_alt    "P 1"
_space_group_IT_number       1

loop_
  _space_group_symop_operation_xyz
  'x, y, z'

loop_
  _atom_site_type_symbol
  _atom_site_label
  _atom_site_symmetry_multiplicity
  _atom_site_fract_x
  _atom_site_fract_y
  _atom_site_fract_z
  _atom_site_occupancy
  Zn  Zn1       1.0  0.4997346079210276  0.42386913266783915  0.4994937000034198  1.0000
  Zn  Zn2       1.0  0.5000026754471278  0.5761128129730152  0.4994793137003838  1.0000
  H   H1        1.0  0.1222261368859705  0.38161331231289347  0.520787678701005  1.0000
  H   H2        1.0  0.8781710693948669  0.6183950962640807  0.5206005889241396  1.0000
  H   H3        1.0  0.8772905077720949  0.3817182563457351  0.5210944127945537  1.0000
  H   H4        1.0  0.12221917689969083  0.618275828276623  0.5214706214496515  1.0000
  H   H5        1.0  0.26165712245363437  0.3826358139933673  0.5102647593414034  1.0000
  H   H6        1.0  0.7386037755387918  0.6178602368826702  0.5100475574988009  1.0000
  H   H7        1.0  0.7377104582291807  0.3826804342829888  0.5104831428957084  1.0000
  H   H8        1.0  0.2616080825378688  0.6178138348496275  0.5108367271664065  1.0000
  H   H9        1.0  0.4984095655921268  0.6171544436914048  0.2826233848089075  1.0000
  H   H10       1.0  0.5016589563496936  0.382125266831423  0.7170981998330177  1.0000
  H   H11       1.0  0.4980796330518516  0.6172591391962499  0.7165133486983705  1.0000
  H   H12       1.0  0.5018484335122153  0.3819680867770713  0.282181069308912  1.0000
  H   H13       1.0  0.4984569689180276  0.6179482296048917  0.15565439745819984  1.0000
  H   H14       1.0  0.501630495100386  0.38189529684856177  0.8440606879036353  1.0000
  H   H15       1.0  0.4978831415631861  0.6182169993745249  0.8434792574720261  1.0000
  H   H16       1.0  0.5021668447508248  0.38165539502548274  0.15524795198369648  1.0000
  H   H17       1.0  0.5867840617246572  0.418275511287554  0.06265266146050408  1.0000
  H   H18       1.0  0.41334908395531034  0.5819039305533806  0.9365434956021446  1.0000
  H   H19       1.0  0.5865270677810771  0.41841132319812857  0.936858891121929  1.0000
  H   H20       1.0  0.41357137207314304  0.5816802497649434  0.06233668830640229  1.0000
  H   H21       1.0  0.5731430821671992  0.3076245367548154  0.41919595708816354  1.0000
  H   H22       1.0  0.41172064010504533  0.6920867819282749  0.5666923838883804  1.0000
  H   H23       1.0  0.4268053768805586  0.3077888246826532  0.5803973076677025  1.0000
  H   H24       1.0  0.5884846035479754  0.6926886312087888  0.43302367525927116  1.0000
  H   H25       1.0  0.5766702876152293  0.1694425343255617  0.4160179072230647  1.0000
  H   H26       1.0  0.4076785711536957  0.8302485388775906  0.5698639739823719  1.0000
  H   H27       1.0  0.4235566892834086  0.16961012145483784  0.584367817310209  1.0000
  H   H28       1.0  0.5923760370437565  0.8308374117357716  0.43017766738496727  1.0000
  H   H29       1.0  0.7044320244177485  0.04340434029845851  0.5404015333984873  1.0000
  H   H30       1.0  0.6714839387386675  0.12904759560669987  0.5100832230467275  1.0000
  H   H31       1.0  0.7165420303252716  0.12383960191978362  0.5904994458592582  1.0000
  H   H32       1.0  0.5775002851447155  0.1344178109291079  0.603381531689756  1.0000
  H   H33       1.0  0.6109107007878765  0.05207295956159189  0.637877292677416  1.0000
  H   H34       1.0  0.4544571043140453  0.9566690692519798  0.3144173112939511  1.0000
  H   H35       1.0  0.48784241475500784  0.8710426381760714  0.3444610950286844  1.0000
  H   H36       1.0  0.39917402854314343  0.8761732021206328  0.3039185080590343  1.0000
  H   H37       1.0  0.3856822283519961  0.8657904069713709  0.4304206866335035  1.0000
  H   H38       1.0  0.34786512834247674  0.948141828198892  0.4000515746356328  1.0000
  H   H39       1.0  0.2954100782748625  0.04329413549809399  0.459890789953441  1.0000
  H   H40       1.0  0.32867418937076565  0.12897265903125543  0.49019923110007096  1.0000
  H   H41       1.0  0.28372647986814303  0.1236733279150002  0.40975292179214756  1.0000
  H   H42       1.0  0.4227520564111344  0.1342230548736296  0.3969613337909975  1.0000
  H   H43       1.0  0.38906265965832176  0.0518333384401117  0.3624753191169106  1.0000
  H   H44       1.0  0.5455058492729209  0.956599907567913  0.6858372701956198  1.0000
  H   H45       1.0  0.5119889091818237  0.8709321591937355  0.6556919385244271  1.0000
  H   H46       1.0  0.6007078814763388  0.8762525091017326  0.6961790462517783  1.0000
  H   H47       1.0  0.6140905473842083  0.866053500963318  0.5696761206122359  1.0000
  H   H48       1.0  0.6520385617416623  0.9484771537775597  0.600139355332054  1.0000
  C   C1        1.0  0.4995210058900455  0.4993717011903486  0.6332079636587906  1.0000
  C   C2        1.0  0.5003794089427416  0.4994098437077312  0.3660714230037668  1.0000
  C   C3        1.0  0.5003470673947491  0.4998149448306676  0.1466253903587358  1.0000
  C   C4        1.0  0.4996563521078203  0.5000756183511257  0.852593873170548  1.0000
  C   C5        1.0  0.5004584828067422  0.49955206189599033  0.2899249143061552  1.0000
  C   C6        1.0  0.4995556184838605  0.49965614092148775  0.7093364348790985  1.0000
  C   C7        1.0  0.547754477976099  0.45335885696876244  0.0350307617255012  1.0000
  C   C8        1.0  0.4523630297588428  0.5468062973465208  0.9641679064669332  1.0000
  C   C9        1.0  0.5476201717369662  0.4534544812121339  0.9643243243401612  1.0000
  C   C10       1.0  0.45250903036491513  0.5467057419502622  0.0348677606348389  1.0000
  C   C11       1.0  0.4998858468428722  0.5001607291607328  0.927532190647497  1.0000
  C   C12       1.0  0.5001992235366686  0.4999571825064422  0.07166489311748589  1.0000
  C   C13       1.0  0.5411534056985232  0.27423638892558705  0.4546629797979023  1.0000
  C   C14       1.0  0.4504764076711183  0.7256268506736488  0.5374669195092493  1.0000
  C   C15       1.0  0.45879002033326804  0.27431433014637463  0.5450869086798633  1.0000
  C   C16       1.0  0.549655405654164  0.7259518844914723  0.4623102539840076  1.0000
  C   C17       1.0  0.5426997516423456  0.19795721437582614  0.4533893413758818  1.0000
  C   C18       1.0  0.44876969126165284  0.801909190312628  0.5388484644529044  1.0000
  C   C19       1.0  0.45745226946875317  0.1980352431717449  0.546817042821111  1.0000
  C   C20       1.0  0.5512839752424057  0.8022445211326569  0.46110524780653617  1.0000
  C   C21       1.0  0.5000680693306875  0.15806583628906884  0.500178390241075  1.0000
  C   C22       1.0  0.49997401363298616  0.8420258741372065  0.49999119746602355  1.0000
  C   C23       1.0  0.5488136411435249  0.0387855917510294  0.5445563207503098  1.0000
  C   C24       1.0  0.4507885066690279  0.9613211619266766  0.4560381239001998  1.0000
  C   C25       1.0  0.4511170870473081  0.038698950742514206  0.4558172668756625  1.0000
  C   C26       1.0  0.5490768997387364  0.9614126382685412  0.5442164697924736  1.0000
  C   C27       1.0  0.4999330215274895  0.9238486976071415  0.5000837163725433  1.0000
  C   C28       1.0  0.49999456686907007  0.07625116564450711  0.5002146789179704  1.0000
  C   C29       1.0  0.6467920281128272  0.5004719712852079  0.5026403015907306  1.0000
  C   C30       1.0  0.3530069768341307  0.5005056503025429  0.5036112934171726  1.0000
  C   C31       1.0  0.1530418330329866  0.43323843117755706  0.5188147939145508  1.0000
  C   C32       1.0  0.847159112584805  0.5668749217678978  0.5183476380800514  1.0000
  C   C33       1.0  0.8466520826668856  0.4333248366118312  0.5186158821801142  1.0000
  C   C34       1.0  0.1530220921253829  0.5667733260209076  0.5191830398386656  1.0000
  C   C35       1.0  0.23026975945624886  0.43371568817126166  0.512969280253557  1.0000
  C   C36       1.0  0.7698794643287387  0.5666741809751555  0.5123286396988931  1.0000
  C   C37       1.0  0.7693719850436055  0.43376640102356134  0.5126091529832948  1.0000
  C   C38       1.0  0.23023654030379961  0.5666027768058868  0.5133343744928778  1.0000
  C   C39       1.0  0.2696476550552376  0.500254433704974  0.5099726259290023  1.0000
  C   C40       1.0  0.7302223216638455  0.5002898636266552  0.5090729044969109  1.0000
  C   C41       1.0  0.11297271083059712  0.49991708483034347  0.5216239196065331  1.0000
  C   C42       1.0  0.8869855713352807  0.500039579003328  0.5211434947001266  1.0000
  C   C43       1.0  0.034101592298050314  0.49981820967410323  0.5247846164660643  1.0000
  C   C44       1.0  0.965886281508425  0.4999322688849048  0.5246451214020169  1.0000
  C   C45       1.0  0.49892875904885164  0.5659561204969705  0.2539645385878869  1.0000
  C   C46       1.0  0.501110026959573  0.4334426510146442  0.7455558924215495  1.0000
  C   C47       1.0  0.498182518731852  0.56610730825863  0.7452223078284135  1.0000
  C   C48       1.0  0.5018282819051834  0.43328803260170906  0.2537312873305311  1.0000
  C   C49       1.0  0.49850790656307714  0.5660347111482125  0.1832991753804336  1.0000
  C   C50       1.0  0.5015238530813734  0.43367202689461243  0.8162055384486351  1.0000
  C   C51       1.0  0.4978028735570846  0.5662656757346055  0.8158822843177803  1.0000
  C   C52       1.0  0.5022049179700973  0.43346069661478737  0.18307693409550294  1.0000
  C   C53       1.0  0.6022748770703288  0.0813324408634131  0.589719862065017  1.0000
  C   C54       1.0  0.678074786420389  0.09515950478158429  0.5558394440856914  1.0000
  C   C55       1.0  0.4007619058816445  0.9188136875307507  0.40771989140097287  1.0000
  C   C56       1.0  0.4375649973594023  0.9049366793333177  0.33861343471559013  1.0000
  C   C57       1.0  0.397784403035523  0.081148149085152  0.41063265929783904  1.0000
  C   C58       1.0  0.32201874666456126  0.09501096486520312  0.4444658376234046  1.0000
  C   C59       1.0  0.5991008215969416  0.9190174892406797  0.5924549261188901  1.0000
  C   C60       1.0  0.5623182614601773  0.9049427951536019  0.6615487528883648  1.0000
  N   N1        1.0  0.49987604272889297  0.3115584740641991  0.4997306741708414  1.0000
  N   N2        1.0  0.5000483706011851  0.6884671248147357  0.49980183143577506  1.0000
  O   O1        1.0  0.4990840834849308  0.4369622367971928  0.6038569018326568  1.0000
  O   O2        1.0  0.49989705141366175  0.5616389861201228  0.3956910969722854  1.0000
  O   O3        1.0  0.5007172247102217  0.4370405699230631  0.3954776932234125  1.0000
  O   O4        1.0  0.5000039629076768  0.5615676687683616  0.6035592796397323  1.0000
  O   O5        1.0  0.6142229708795528  0.4382464610623131  0.5007713847761863  1.0000
  O   O6        1.0  0.38526408778422894  0.5629052404532829  0.5016259519338533  1.0000
  O   O7        1.0  0.3853154399333008  0.43831807800124517  0.500872394588491  1.0000
  O   O8        1.0  0.6147122480658281  0.5628228329334845  0.4999052269561162  1.0000
