data_image0
_chemical_formula_structural       MnMo6H18C16N6O22
_chemical_formula_sum              "Mn1 Mo6 H18 C16 N6 O22"
_cell_length_a       7.679853824413574
_cell_length_b       10.120649678223497
_cell_length_c       10.070229354444738
_cell_angle_alpha    105.27833495980302
_cell_angle_beta     93.06090495043013
_cell_angle_gamma    99.02538201918837

_space_group_name_H-M_alt    "P 1"
_space_group_IT_number       1

loop_
  _space_group_symop_operation_xyz
  'x, y, z'

loop_
  _atom_site_type_symbol
  _atom_site_label
  _atom_site_symmetry_multiplicity
  _atom_site_fract_x
  _atom_site_fract_y
  _atom_site_fract_z
  _atom_site_occupancy
  Mn  Mn1       1.0  0.0070562411562562185  0.5027114684710199  0.5003306038660824  1.0000
  Mo  Mo1       1.0  0.6963206177462381  0.309246655086099  0.8573941137869879  1.0000
  Mo  Mo2       1.0  0.30292691978816316  0.6900586261678116  0.14280672804121514  1.0000
  Mo  Mo3       1.0  0.9962774381631757  0.5918786981438373  0.8761393019041676  1.0000
  Mo  Mo4       1.0  0.003199434372106693  0.40800439185374415  0.12353779751551734  1.0000
  Mo  Mo5       1.0  0.4897991652792013  0.5724982177405025  0.8508209880878894  1.0000
  Mo  Mo6       1.0  0.5099082673662421  0.4282983808005269  0.14896163289821368  1.0000
  H   H1        1.0  0.6637391246229141  0.0995865899284425  0.06712394401137088  1.0000
  H   H2        1.0  0.3357554822688443  0.900381062393791  0.933257888571859  1.0000
  H   H3        1.0  0.6524453390854603  0.43517845776032266  0.4487849885656772  1.0000
  H   H4        1.0  0.34447915497135984  0.5653961160279051  0.5544948959930736  1.0000
  H   H5        1.0  0.7100669857775797  0.3496771593442887  0.5577008067623834  1.0000
  H   H6        1.0  0.2857661497952648  0.6487682287541717  0.43984558169514537  1.0000
  H   H7        1.0  0.8333625053245368  0.7382791021222843  0.7148671368037964  1.0000
  H   H8        1.0  0.17052455374030726  0.26209880362912946  0.2851542095849169  1.0000
  H   H9        1.0  0.7261454675922818  0.9516416439056316  0.6366404651916255  1.0000
  H   H10       1.0  0.2716315516192438  0.046324419766449396  0.3626990937570297  1.0000
  H   H11       1.0  0.5606784167662794  0.17184763548798537  0.2855105293904003  1.0000
  H   H12       1.0  0.4386584152134745  0.8275860783644049  0.7149353798997778  1.0000
  H   H13       1.0  0.6412075082248946  0.062163198499249  0.4705047700741573  1.0000
  H   H14       1.0  0.3583484835821977  0.9370992959802182  0.5295319519198144  1.0000
  H   H15       1.0  0.910849079019968  0.7960369538029892  0.17105143622992358  1.0000
  H   H16       1.0  0.09007402829874418  0.2044501975229025  0.8290109421989909  1.0000
  H   H17       1.0  0.832949617459114  0.9271358633569093  0.002471921196025922  1.0000
  H   H18       1.0  0.16752126735924824  0.07351175722737217  0.9978486417033136  1.0000
  C   C1        1.0  0.8361727575931325  0.7594675998906695  0.615433536850233  1.0000
  C   C2        1.0  0.16690903621297784  0.24081761617955513  0.3845392747904554  1.0000
  C   C3        1.0  0.7810478352994321  0.8665156207190918  0.573622629416782  1.0000
  C   C4        1.0  0.21907087532493108  0.1326112055016466  0.4260616994368149  1.0000
  C   C5        1.0  0.8187216415346867  0.841583905631211  0.43306700405374693  1.0000
  C   C6        1.0  0.18250404734027373  0.15852905393047934  0.5669101192481207  1.0000
  C   C7        1.0  0.6395813640793192  0.0900549961066588  0.26844772512269083  1.0000
  C   C8        1.0  0.35949893053768267  0.9092624906906649  0.7316550196376566  1.0000
  C   C9        1.0  0.6834013880137987  0.026348469893321208  0.3676800157296539  1.0000
  C   C10       1.0  0.3159989379270982  0.9729031669782557  0.6323083267020876  1.0000
  C   C11       1.0  0.7807026737313975  0.9169279182180929  0.3344602929517819  1.0000
  C   C12       1.0  0.21936372746187519  0.08285142824490072  0.6654697514943065  1.0000
  C   C13       1.0  0.8361449875423472  0.8803156539454091  0.20045920545382492  1.0000
  C   C14       1.0  0.16426862222304806  0.11984570015696511  0.7995808923061601  1.0000
  C   C15       1.0  0.7930665466818637  0.9499711805965841  0.10655164047073369  1.0000
  C   C16       1.0  0.20706489181637264  0.0502517881397111  0.893657481979467  1.0000
  N   N1        1.0  0.8934415219625575  0.726211771084948  0.3946961921950204  1.0000
  N   N2        1.0  0.11106313557132809  0.2755714075180649  0.6057216355330651  1.0000
  N   N3        1.0  0.9032110242959276  0.676792005368732  0.5050227145505062  1.0000
  N   N4        1.0  0.10222196270570548  0.32489646816827644  0.4953201369037713  1.0000
  N   N5        1.0  0.6942635607269947  0.050839617091931216  0.14125416332107218  1.0000
  N   N6        1.0  0.3051466225359647  0.9488856911380025  0.8589919178583258  1.0000
  O   O1        1.0  0.750462547639735  0.5416540008682985  0.8715289414196689  1.0000
  O   O2        1.0  0.24873887649916074  0.4573573563525812  0.12474250366140177  1.0000
  O   O3        1.0  0.9501848969693467  0.37816252742851464  0.9110756998551038  1.0000
  O   O4        1.0  0.0487743588265062  0.6214438123620099  0.08804693482228027  1.0000
  O   O5        1.0  0.4861376525643876  0.38078557331886026  0.9031392224768665  1.0000
  O   O6        1.0  0.5139457075847246  0.620878180080183  0.09727209137198396  1.0000
  O   O7        1.0  0.6804505050051972  0.26694107285011626  0.6786861520364836  1.0000
  O   O8        1.0  0.3166571006483421  0.7286821916026653  0.32183465855858623  1.0000
  O   O9        1.0  0.7445287852333776  0.4187720306997136  0.1031982781153147  1.0000
  O   O10       1.0  0.2563037770300269  0.5828328225561492  0.8983499708706829  1.0000
  O   O11       1.0  0.6650999560049937  0.15293324861190166  0.8989338095953414  1.0000
  O   O12       1.0  0.33314549855903397  0.8475766248131151  0.10371412586376032  1.0000
  O   O13       1.0  0.00323137359077922  0.5375482635334095  0.6887932293612166  1.0000
  O   O14       1.0  0.001879137643982216  0.464050860959091  0.3113614914522386  1.0000
  O   O15       1.0  0.0071731825855962964  0.7664591048906644  0.9060587046072539  1.0000
  O   O16       1.0  0.9916345986974092  0.23343189311172094  0.09429246002390808  1.0000
  O   O17       1.0  0.5724820126720545  0.7461831465608739  0.8769153865196626  1.0000
  O   O18       1.0  0.428205451702837  0.2546744497705049  0.12468719847872477  1.0000
  O   O19       1.0  0.45685289485981423  0.5088420940761011  0.6727109527783879  1.0000
  O   O20       1.0  0.5387367207382424  0.4950590775060635  0.3263965814476251  1.0000
  O   O21       1.0  0.7400411081564042  0.3807250570531834  0.4734561032937846  1.0000
  O   O22       1.0  0.2527643663159722  0.6137002116332938  0.5224792795577143  1.0000
