data_image0
_chemical_formula_structural       Co4H72C72N8O24
_chemical_formula_sum              "Co4 H72 C72 N8 O24"
_cell_length_a       9.348931946464672
_cell_length_b       13.005498183632112
_cell_length_c       19.902444798735875
_cell_angle_alpha    109.08206250335876
_cell_angle_beta     102.78406964863322
_cell_angle_gamma    89.96687521423237

_space_group_name_H-M_alt    "P 1"
_space_group_IT_number       1

loop_
  _space_group_symop_operation_xyz
  'x, y, z'

loop_
  _atom_site_type_symbol
  _atom_site_label
  _atom_site_symmetry_multiplicity
  _atom_site_fract_x
  _atom_site_fract_y
  _atom_site_fract_z
  _atom_site_occupancy
  Co  Co1       1.0  0.1749554315903907  0.13604144961990286  0.7249870300297375  1.0000
  Co  Co2       1.0  0.3250774007953011  0.41144336821099603  0.2750365269020134  1.0000
  Co  Co3       1.0  0.8250111933718929  0.8639228115486047  0.2750081866897246  1.0000
  Co  Co4       1.0  0.6748790418549645  0.5886057549298584  0.7249667028730044  1.0000
  H   H1        1.0  0.8696707358785786  0.17956717834375988  0.7532322026520575  1.0000
  H   H2        1.0  0.6100221556644526  0.13454857390059513  0.6810490429989784  1.0000
  H   H3        1.0  0.7789535483535276  0.9713996867871587  0.4907405398877315  1.0000
  H   H4        1.0  0.03060549270324489  0.022499722999995822  0.5715436919936394  1.0000
  H   H5        1.0  0.1549449388717292  0.24163352606623797  0.8825414964490718  1.0000
  H   H6        1.0  0.08933745776968746  0.18540676149248017  0.980520897632374  1.0000
  H   H7        1.0  0.006786992347279906  0.8550550040884771  0.826065725408199  1.0000
  H   H8        1.0  0.07556042867502547  0.9258638742101296  0.7356192165279719  1.0000
  H   H9        1.0  0.4364906507030852  0.05185083674187035  0.5676925785638218  1.0000
  H   H10       1.0  0.968961930776402  0.8831750102517191  0.944146624544878  1.0000
  H   H11       1.0  0.4622872585629522  0.3266048191456363  0.5935295575285977  1.0000
  H   H12       1.0  0.1518034241140356  0.20941836095174435  0.5236283451189081  1.0000
  H   H13       1.0  0.0430614712673076  0.21527818563340154  0.3990230561248111  1.0000
  H   H14       1.0  0.36714757427418476  0.30850056649251906  0.45721031341376767  1.0000
  H   H15       1.0  0.4254977252197278  0.23465964293574604  0.7728753395525202  1.0000
  H   H16       1.0  0.4357528071252048  0.10795648366602961  0.7648014171935742  1.0000
  H   H17       1.0  0.052969928014256595  0.3351487053652562  0.7467691210984881  1.0000
  H   H18       1.0  0.22774581624715748  0.3410613475140919  0.7661479231383337  1.0000
  H   H19       1.0  0.6302795936722205  0.4264276481086923  0.24674372134552405  1.0000
  H   H20       1.0  0.8899560793041558  0.45346175804253613  0.31894555897559934  1.0000
  H   H21       1.0  0.7210594311711488  0.4806835202932902  0.5092197450455344  1.0000
  H   H22       1.0  0.46939123306329117  0.45128198694585814  0.4284450244863861  1.0000
  H   H23       1.0  0.34484203274845987  0.35951100474620995  0.11716453502528873  1.0000
  H   H24       1.0  0.4105166329141028  0.20500313658842373  0.01928249811825818  1.0000
  H   H25       1.0  0.4939801912839316  0.029864709134983528  0.17414689045838833  1.0000
  H   H26       1.0  0.4251607802203452  0.19131750456288907  0.2644378174351374  1.0000
  H   H27       1.0  0.06346350754664339  0.4842470588120733  0.43225918581865114  1.0000
  H   H28       1.0  0.5311058402096193  0.939277116235786  0.05605649630096095  1.0000
  H   H29       1.0  0.037792159820504885  0.7335556814029189  0.40651389135341276  1.0000
  H   H30       1.0  0.34820854342251545  0.6857183624990171  0.4762512506584357  1.0000
  H   H31       1.0  0.45743908048488885  0.8161935673210295  0.6008204397124642  1.0000
  H   H32       1.0  0.13319395297174452  0.8514940527665759  0.5429339304554758  1.0000
  H   H33       1.0  0.07425334581749608  0.4619323298573049  0.22706721418487766  1.0000
  H   H34       1.0  0.06440052847442958  0.34337422618933994  0.23527741689402146  1.0000
  H   H35       1.0  0.4470379529028746  0.5886147410569719  0.2532752127983711  1.0000
  H   H36       1.0  0.27224645633811667  0.5752084949479368  0.23385771540975497  1.0000
  H   H37       1.0  0.13026715505099412  0.8203684252370707  0.24674341659978427  1.0000
  H   H38       1.0  0.38993627437466205  0.8654105779069992  0.31890614327745925  1.0000
  H   H39       1.0  0.22107886999084062  0.02857354593598414  0.5092230474396757  1.0000
  H   H40       1.0  0.9694089513481998  0.9774696107630801  0.4284525614862175  1.0000
  H   H41       1.0  0.8450658288814878  0.7583685058303972  0.11745233504486646  1.0000
  H   H42       1.0  0.9107798668490686  0.8146426358075942  0.01951041390791617  1.0000
  H   H43       1.0  0.9933047518282478  0.1449534024985368  0.1740036044630742  1.0000
  H   H44       1.0  0.9244190829357493  0.07412056360826111  0.2644131459253742  1.0000
  H   H45       1.0  0.5635168711654117  0.9481166329671069  0.4322481851980483  1.0000
  H   H46       1.0  0.031230890984225795  0.11685973180392041  0.05591976173878518  1.0000
  H   H47       1.0  0.5377013200008917  0.6733557469790198  0.40645225849648614  1.0000
  H   H48       1.0  0.848177129454058  0.7905429338678117  0.47635093638324105  1.0000
  H   H49       1.0  0.9569062791604069  0.784725900356264  0.6009703319130323  1.0000
  H   H50       1.0  0.6328216071096546  0.6914842055546588  0.5427776798440361  1.0000
  H   H51       1.0  0.5744913289717032  0.7652999013166876  0.22709977285373367  1.0000
  H   H52       1.0  0.5642434909302451  0.8920026082442759  0.2351895044059445  1.0000
  H   H53       1.0  0.9470187185077064  0.6648344303567059  0.2532148291334833  1.0000
  H   H54       1.0  0.7722418257499725  0.658908686846253  0.233834370950646  1.0000
  H   H55       1.0  0.3696851262082887  0.5736063467506582  0.7532404085202626  1.0000
  H   H56       1.0  0.1100182293629075  0.5465398252135429  0.6810250336993063  1.0000
  H   H57       1.0  0.27895284763871325  0.519314309872435  0.4907536582519256  1.0000
  H   H58       1.0  0.5306133567282885  0.5487368909047773  0.5715484915644778  1.0000
  H   H59       1.0  0.6551551889743692  0.640491583557086  0.8828363348436951  1.0000
  H   H60       1.0  0.5895382708400021  0.7949651098536918  0.980762284990952  1.0000
  H   H61       1.0  0.506035229077625  0.9702067262654666  0.8259566022074762  1.0000
  H   H62       1.0  0.5748379856831106  0.8087938183314237  0.7356313869612662  1.0000
  H   H63       1.0  0.9365371295188254  0.5157477451083209  0.567694943491233  1.0000
  H   H64       1.0  0.46890853021699297  0.060722584801524725  0.9440390265819828  1.0000
  H   H65       1.0  0.9621912085532855  0.2664668567466252  0.5934694279031163  1.0000
  H   H66       1.0  0.651766387193959  0.31429873206096914  0.5237298950017291  1.0000
  H   H67       1.0  0.5425557500960707  0.1837886139976561  0.39916906863753343  1.0000
  H   H68       1.0  0.8667980785629937  0.1485195622803985  0.4570600247623418  1.0000
  H   H69       1.0  0.9256941752876813  0.5380849839347946  0.7729141184128068  1.0000
  H   H70       1.0  0.9355474720968219  0.6566540666480875  0.7647188987223643  1.0000
  H   H71       1.0  0.552941706192172  0.411385396082693  0.7467028856211327  1.0000
  H   H72       1.0  0.7277272002456954  0.4248082352646634  0.7661214413374324  1.0000
  C   C1        1.0  0.844203367653151  0.13411298142645464  0.6947468491781591  1.0000
  C   C2        1.0  0.7001185683307725  0.10944293236626383  0.6542660730656351  1.0000
  C   C3        1.0  0.6708277287418553  0.050233317703415936  0.5789515124802804  1.0000
  C   C4        1.0  0.7929773201370621  0.018108979618702337  0.5485498701310121  1.0000
  C   C5        1.0  0.9333065865433029  0.04599650548638575  0.5928163921396247  1.0000
  C   C6        1.0  0.12158415012815738  0.15674279051980022  0.8730650234113354  1.0000
  C   C7        1.0  0.08475960777756342  0.12429904118845768  0.9272426242891498  1.0000
  C   C8        1.0  0.04182417786910259  0.013639945758363692  0.9125461083781374  1.0000
  C   C9        1.0  0.03892108341547378  0.9417430845815887  0.84185918785397  1.0000
  C   C10       1.0  0.07658022969815895  0.9805551663149004  0.7904778496412914  1.0000
  C   C11       1.0  0.5203625923452009  0.02560224053603124  0.5365984664123573  1.0000
  C   C12       1.0  0.0008217183898437701  0.970795335134852  0.9650703631761102  1.0000
  C   C13       1.0  0.3354663980290553  0.25938406099518113  0.6528962509620939  1.0000
  C   C14       1.0  0.3596900215601408  0.28075227136547903  0.5874830447240029  1.0000
  C   C15       1.0  0.2543642291502977  0.2505113431419231  0.5243957366436474  1.0000
  C   C16       1.0  0.15647266476037197  0.2831989301153115  0.33567172360351794  1.0000
  C   C17       1.0  0.14956522218223967  0.2509441521479374  0.39993063551079894  1.0000
  C   C18       1.0  0.26371614789614733  0.2715068276666416  0.4589305179299856  1.0000
  C   C19       1.0  0.6557625060514026  0.4394899387551234  0.30523514624690756  1.0000
  C   C20       1.0  0.799844264284971  0.455201093358319  0.34570681823260674  1.0000
  C   C21       1.0  0.8291474801510078  0.47129707221841954  0.42101849941865044  1.0000
  C   C22       1.0  0.7070229918796755  0.46960695204020914  0.4514186794470446  1.0000
  C   C23       1.0  0.5666976000147201  0.4534040268712404  0.40717460499964625  1.0000
  C   C24       1.0  0.3784643692839111  0.28418378651676335  0.12675753344998236  1.0000
  C   C25       1.0  0.41534022651443087  0.1974075164892852  0.07263919603363428  1.0000
  C   C26       1.0  0.4585158612604233  0.10154629549629131  0.08746542070000629  1.0000
  C   C27       1.0  0.4617558073223904  0.10066282721315639  0.1582478023304859  1.0000
  C   C28       1.0  0.42405887687316124  0.1909716859394806  0.20955144349917276  1.0000
  C   C29       1.0  0.9796320393001777  0.4890191396771754  0.4633593600208669  1.0000
  C   C30       1.0  0.49933629916837663  0.00590888730553018  0.03503796136399019  1.0000
  C   C31       1.0  0.16451517924280518  0.6067959320010345  0.3470623728174188  1.0000
  C   C32       1.0  0.14031046292698326  0.6935731769418395  0.4125017927670099  1.0000
  C   C33       1.0  0.24575016567658986  0.7262416773559294  0.4755595621276709  1.0000
  C   C34       1.0  0.3440310540470576  0.9474286566891479  0.6643522854903948  1.0000
  C   C35       1.0  0.35091995486838107  0.8510058052966727  0.5999976409375732  1.0000
  C   C36       1.0  0.2366201402396654  0.8127113175187262  0.5410749807384433  1.0000
  C   C37       1.0  0.15574055900306394  0.8658328789815002  0.3052235400360245  1.0000
  C   C38       1.0  0.2998459473882135  0.890512362457372  0.3456909717673326  1.0000
  C   C39       1.0  0.32916558536433627  0.9497329541442882  0.4209986068285757  1.0000
  C   C40       1.0  0.20702474562566658  0.9818626197260231  0.4514153083614047  1.0000
  C   C41       1.0  0.06668916284781544  0.9539711592279334  0.40716761701959564  1.0000
  C   C42       1.0  0.8784537077141507  0.8432652291741292  0.1269518577072332  1.0000
  C   C43       1.0  0.9153445450300024  0.8757287203920681  0.07279803007153858  1.0000
  C   C44       1.0  0.9583111677705247  0.9863885744648827  0.08750996171697512  1.0000
  C   C45       1.0  0.9611693377794311  0.058265199265875436  0.15819783028593556  1.0000
  C   C46       1.0  0.9234376683682868  0.019432700371332604  0.20955796673342061  1.0000
  C   C47       1.0  0.47964231681628167  0.9743711897980062  0.46334416010311935  1.0000
  C   C48       1.0  0.9993391276313304  0.029238419793969732  0.03499337993077493  1.0000
  C   C49       1.0  0.6645134385269245  0.7405880788569162  0.347076752779756  1.0000
  C   C50       1.0  0.6402855978928271  0.7192176515287019  0.4124893743323596  1.0000
  C   C51       1.0  0.7456091366043579  0.7494521817594231  0.4755800669343769  1.0000
  C   C52       1.0  0.843488594093664  0.7168331091646892  0.6643291458162109  1.0000
  C   C53       1.0  0.8503944819418551  0.749054604494212  0.6000541926518607  1.0000
  C   C54       1.0  0.7362587487345422  0.728469039953147  0.5410510631032749  1.0000
  C   C55       1.0  0.3442044031206208  0.5605288941734939  0.6947444691157043  1.0000
  C   C56       1.0  0.20013062549142552  0.5448043899536971  0.6542627788357294  1.0000
  C   C57       1.0  0.17084756946249513  0.528703743896685  0.5789505412560912  1.0000
  C   C58       1.0  0.29298280979662633  0.5303946208674263  0.5485592515727191  1.0000
  C   C59       1.0  0.4332992119758003  0.5466106568209028  0.592813918170222  1.0000
  C   C60       1.0  0.6215389650407913  0.7158335085994024  0.8732734090779954  1.0000
  C   C61       1.0  0.5846924954535594  0.8025921590552018  0.927413257516541  1.0000
  C   C62       1.0  0.5415131514811264  0.8984702195254997  0.9126094649863813  1.0000
  C   C63       1.0  0.5382576052430961  0.8994001683005166  0.8418391683110185  1.0000
  C   C64       1.0  0.5759439638848391  0.8091090724107843  0.7905158050550724  1.0000
  C   C65       1.0  0.020378063365832595  0.5109725228303006  0.5365981559322391  1.0000
  C   C66       1.0  0.5006785539884501  0.9940918112070422  0.9650528663508878  1.0000
  C   C67       1.0  0.8354747834054946  0.393216942152705  0.6529219051809959  1.0000
  C   C68       1.0  0.8596689373141614  0.3064427262332643  0.58747898555864  1.0000
  C   C69       1.0  0.7542355664338558  0.27377931818508483  0.5244238506206358  1.0000
  C   C70       1.0  0.6559769138760956  0.05253054761256952  0.33564526148756363  1.0000
  C   C71       1.0  0.6490776362298902  0.14897646216613225  0.3999870809634416  1.0000
  C   C72       1.0  0.7633771838968143  0.1872985688353097  0.4589136468421628  1.0000
  N   N1        1.0  0.960286665447434  0.10349749933981649  0.6650134851006513  1.0000
  N   N2        1.0  0.11766253393857085  0.08652645815818251  0.8052490896959978  1.0000
  N   N3        1.0  0.5397080721039629  0.4387461915235775  0.33497951744747206  1.0000
  N   N4        1.0  0.38259458865578466  0.2820263030992081  0.19462757711283976  1.0000
  N   N5        1.0  0.03967263958482894  0.8964564974293056  0.33496501399209666  1.0000
  N   N6        1.0  0.88233031173381  0.9134614516004974  0.19476805258199886  1.0000
  N   N7        1.0  0.46026830521466167  0.5612843818691076  0.6650077230079318  1.0000
  N   N8        1.0  0.6173899932346671  0.7180262808788667  0.8054059406859151  1.0000
  O   O1        1.0  0.2393307210233928  0.18288913811969826  0.642799211018982  1.0000
  O   O2        1.0  0.41026655362356484  0.3186285725941858  0.716620924073446  1.0000
  O   O3        1.0  0.2842708309439245  0.313203788839914  0.331135444619079  1.0000
  O   O4        1.0  0.036286809044547376  0.2814056986239848  0.29051875710342046  1.0000
  O   O5        1.0  0.3950663773944924  0.17811105768175386  0.7915197861038195  1.0000
  O   O6        1.0  0.14086410848008768  0.30680982776446086  0.7727326238107536  1.0000
  O   O7        1.0  0.2605990620817238  0.540303373711474  0.35713426973114776  1.0000
  O   O8        1.0  0.08981323029679089  0.6024171170982626  0.2833303008292061  1.0000
  O   O9        1.0  0.21615515334987384  0.9818726580376164  0.6689527469404978  1.0000
  O   O10       1.0  0.46416955285738487  0.99075380394423  0.7095128727138728  1.0000
  O   O11       1.0  0.1048385321031162  0.3867576080124024  0.20848073304301803  1.0000
  O   O12       1.0  0.3591792525442584  0.5343338623513391  0.22732936915808466  1.0000
  O   O13       1.0  0.7606537223136272  0.8170848280954885  0.3571674890168523  1.0000
  O   O14       1.0  0.5897185950663655  0.6813453917705132  0.2833522752707579  1.0000
  O   O15       1.0  0.7156910239950918  0.6868505662310936  0.6688721824324729  1.0000
  O   O16       1.0  0.96367151816348  0.718641894106817  0.7094902655568162  1.0000
  O   O17       1.0  0.6049631569982239  0.8218597240479185  0.2084754870208483  1.0000
  O   O18       1.0  0.85912294967909  0.6932089143935228  0.2272810509695446  1.0000
  O   O19       1.0  0.739391130775111  0.45971390626031894  0.6428462651191962  1.0000
  O   O20       1.0  0.9101831483946936  0.3975997133071232  0.7166562942518552  1.0000
  O   O21       1.0  0.7838466733648844  0.018071367508824186  0.3310443220628656  1.0000
  O   O22       1.0  0.5358494214258869  0.009203253644095398  0.290493114701782  1.0000
  O   O23       1.0  0.895111886192531  0.6132594238754763  0.7915068228094384  1.0000
  O   O24       1.0  0.6407864761693246  0.46566873630040817  0.7726641623660483  1.0000
