data_image0
_chemical_formula_structural       ZnH20C16N4O8
_chemical_formula_sum              "Zn1 H20 C16 N4 O8"
_cell_length_a       7.215461930830333
_cell_length_b       7.495520044529928
_cell_length_c       9.347393659895442
_cell_angle_alpha    62.73652978977475
_cell_angle_beta     75.03046688562289
_cell_angle_gamma    83.72644655534839

_space_group_name_H-M_alt    "P 1"
_space_group_IT_number       1

loop_
  _space_group_symop_operation_xyz
  'x, y, z'

loop_
  _atom_site_type_symbol
  _atom_site_label
  _atom_site_symmetry_multiplicity
  _atom_site_fract_x
  _atom_site_fract_y
  _atom_site_fract_z
  _atom_site_occupancy
  Zn  Zn1       1.0  0.49999882761838416  0.4999982269275448  0.5000016926574488  1.0000
  H   H1        1.0  0.3297048133748106  0.7601135669572157  0.6806605620683542  1.0000
  H   H2        1.0  0.6702856793044205  0.2398794937951506  0.3193435841903494  1.0000
  H   H3        1.0  0.19996447971413994  0.3744520034059064  0.20747221509089545  1.0000
  H   H4        1.0  0.8000463150642717  0.6255495395152335  0.7925326632497873  1.0000
  H   H5        1.0  0.3603182620342266  0.09758293976850038  0.14586654554062764  1.0000
  H   H6        1.0  0.6396908580305122  0.9024201003143232  0.8541360819775861  1.0000
  H   H7        1.0  0.4863765557405912  0.16514381904545417  0.8468450319490728  1.0000
  H   H8        1.0  0.5136229471230322  0.8348524838462762  0.153163317169863  1.0000
  H   H9        1.0  0.7919201959699009  0.9275481029814895  0.5925564349357233  1.0000
  H   H10       1.0  0.20808036577356853  0.07245818355303159  0.40743107620502883  1.0000
  H   H11       1.0  0.9669897126337261  0.9589365135743361  0.6812123941807113  1.0000
  H   H12       1.0  0.033015228956955384  0.041071469315539795  0.3187756146353138  1.0000
  H   H13       1.0  0.9779594285445083  0.8570014857155995  0.13137588650731405  1.0000
  H   H14       1.0  0.022040860168864588  0.1430011050054034  0.8686258257739966  1.0000
  H   H15       1.0  0.026708084930255893  0.5986006360579166  0.22233973291131548  1.0000
  H   H16       1.0  0.9732910004500893  0.40139591778603284  0.7776632703581114  1.0000
  H   H17       1.0  0.18804080384503408  0.31696604843723  0.5003002081275199  1.0000
  H   H18       1.0  0.8119537583742229  0.6830346957491141  0.49970245769389987  1.0000
  H   H19       1.0  0.2806163183262385  0.14737222230944264  0.6427079652761662  1.0000
  H   H20       1.0  0.7193810982602853  0.8526272752754168  0.357293361812559  1.0000
  C   C1        1.0  0.32910074885563734  0.6140889760119419  0.7866222616771524  1.0000
  C   C2        1.0  0.6708926935272359  0.38590568110691226  0.2133827643022812  1.0000
  C   C3        1.0  0.2498761402287357  0.5903185314246995  0.9476792559277172  1.0000
  C   C4        1.0  0.7501229451516025  0.4096780224192571  0.05232374734170973  1.0000
  C   C5        1.0  0.2598520182697968  0.4011177221671076  0.07946640884987488  1.0000
  C   C6        1.0  0.7401545577348543  0.5988805774385852  0.9205395355135834  1.0000
  C   C7        1.0  0.3477995021398286  0.24551855002531645  0.04537504117838148  1.0000
  C   C8        1.0  0.6522078478748553  0.7544831442512248  0.9546231170639244  1.0000
  C   C9        1.0  0.4180202231627134  0.2813215907576776  0.8811665390106853  1.0000
  C   C10       1.0  0.5819771875039521  0.7186764602479697  0.11883421343627291  1.0000
  C   C11       1.0  0.1572971693262701  0.7670466291708065  0.9707064810863317  1.0000
  C   C12       1.0  0.842694934087497  0.23293096198052146  0.029313302152750943  1.0000
  C   C13       1.0  0.859785145192397  0.23171085211418319  0.5173702633354509  1.0000
  C   C14       1.0  0.14022038087487934  0.7682967794425719  0.48262522966987825  1.0000
  C   C15       1.0  0.9200696104466315  0.014415949849464474  0.5650114413694426  1.0000
  C   C16       1.0  0.07992810284942917  0.985593029865761  0.434977983145778  1.0000
  N   N1        1.0  0.40754127388685646  0.46242050343415997  0.7536348140932816  1.0000
  N   N2        1.0  0.5924571612798105  0.5375807916709971  0.2463613597422238  1.0000
  N   N3        1.0  0.05278884604646809  0.7365671450603982  0.12036284928534972  1.0000
  N   N4        1.0  0.9472150769640705  0.26343904030917287  0.8796303127838812  1.0000
  O   O1        1.0  0.17700084110126824  0.9397582470501005  0.8486919813004975  1.0000
  O   O2        1.0  0.8229999770520279  0.06024933549230129  0.15129931199172836  1.0000
  O   O3        1.0  0.6861293325419027  0.25686131003867263  0.581678731392607  1.0000
  O   O4        1.0  0.3138649075304443  0.7431425280678781  0.41832080703274227  1.0000
  O   O5        1.0  0.9820476846813974  0.3714195357884549  0.4204088214314723  1.0000
  O   O6        1.0  0.017949815401784988  0.6285799116059535  0.5795935748271502  1.0000
  O   O7        1.0  0.3096650973349995  0.2703451973485612  0.537569160223093  1.0000
  O   O8        1.0  0.69033073987422  0.7296586403659614  0.46243213449658777  1.0000
