data_image0
_chemical_formula_structural       Cd4H36C44I8N12O4
_chemical_formula_sum              "Cd4 H36 C44 I8 N12 O4"
_cell_length_a       8.048453431
_cell_length_b       12.409000407996006
_cell_length_c       14.4602
_cell_angle_alpha    90.0
_cell_angle_beta     90.0
_cell_angle_gamma    92.45567559406044

_space_group_name_H-M_alt    "P 1"
_space_group_IT_number       1

loop_
  _space_group_symop_operation_xyz
  'x, y, z'

loop_
  _atom_site_type_symbol
  _atom_site_label
  _atom_site_symmetry_multiplicity
  _atom_site_fract_x
  _atom_site_fract_y
  _atom_site_fract_z
  _atom_site_occupancy
  Cd  Cd1       1.0  0.7970047953702135  0.2063938993702479  0.3708074577115141  1.0000
  Cd  Cd2       1.0  0.7029953154978656  0.2936059065600105  0.8708074577115142  1.0000
  Cd  Cd3       1.0  0.2029950364773683  0.7936057124902618  0.6291918507351186  1.0000
  Cd  Cd4       1.0  0.29700451634971603  0.7063937053004992  0.12919185073511846  1.0000
  H   H1        1.0  0.4581983593129806  0.2321464543872409  0.4799553256524831  1.0000
  H   H2        1.0  0.041803420322907  0.2678533515430175  0.9799546340991158  1.0000
  H   H3        1.0  0.5418065490027857  0.7678547706881034  0.5200432912407821  1.0000
  H   H4        1.0  0.9581914416257574  0.7321462603174993  0.0200446743475169  1.0000
  H   H5        1.0  0.5043053536010405  0.4947092678791876  0.675792174382096  1.0000
  H   H6        1.0  0.995693834500095  0.0052953776955746  0.1757963237023006  1.0000
  H   H7        1.0  0.4956994481454587  0.5052903439813221  0.32420851717127164  1.0000
  H   H8        1.0  0.004303512398031698  0.994704234164935  0.824202984744332  1.0000
  H   H9        1.0  0.8073299455363667  0.5156415369694898  0.6316482482953205  1.0000
  H   H10       1.0  0.6926693408515376  0.9843603006435302  0.131648939848688  1.0000
  H   H11       1.0  0.1926724245453073  0.4843588814984372  0.368352443258047  1.0000
  H   H12       1.0  0.3073291419520531  0.0156376980021449  0.8683510601513122  1.0000
  H   H13       1.0  0.9150111891655399  0.3955086546438338  0.5078076375153842  1.0000
  H   H14       1.0  0.5849913533673644  0.10449034467900728  0.007806254408649202  1.0000
  H   H15       1.0  0.0849937191502192  0.6044925704315176  0.4921930540379834  1.0000
  H   H16       1.0  0.4150046444867712  0.8955076539666676  0.992193745591351  1.0000
  H   H17       1.0  0.0397483323625494  0.0814633161255855  0.5384545165350405  1.0000
  H   H18       1.0  0.4602510156085131  0.4185372964120901  0.03845313342830541  1.0000
  H   H19       1.0  0.9602490145355773  0.9185362957349312  0.4615454834649597  1.0000
  H   H20       1.0  0.539750165283067  0.5814639286632541  0.9615475581250623  1.0000
  H   H21       1.0  0.7684418478176127  0.0040031926128137  0.602628594348623  1.0000
  H   H22       1.0  0.7315583696197265  0.4959982265322722  0.1026279027952555  1.0000
  H   H23       1.0  0.231556794839868  0.9959972258551133  0.3973714056513772  1.0000
  H   H24       1.0  0.26844156879712233  0.5040029985430721  0.8973727887581121  1.0000
  H   H25       1.0  0.280273910682709  0.1890631323988714  0.5813204519992823  1.0000
  H   H26       1.0  0.2197254905729835  0.3109382867462216  0.08132045199928233  1.0000
  H   H27       1.0  0.7197271636396039  0.8109364794616453  0.4186788564473503  1.0000
  H   H28       1.0  0.7802719628944031  0.6890629383291227  0.9186795480007179  1.0000
  H   H29       1.0  0.6411669394573138  0.0957192956216346  0.7373286676532802  1.0000
  H   H30       1.0  0.8588320355052943  0.4042821235234584  0.23732866765328006  1.0000
  H   H31       1.0  0.3588316499155439  0.904280316238875  0.26267133234672  1.0000
  H   H32       1.0  0.1411690921016486  0.5957182949444686  0.7626720239000876  1.0000
  H   H33       1.0  0.0190539197308723  0.3351711933887387  0.7416335873639355  1.0000
  H   H34       1.0  0.4809466707149141  0.164829419148937  0.24163220425720064  1.0000
  H   H35       1.0  0.9809471013068105  0.6648276118643537  0.258367104189432  1.0000
  H   H36       1.0  0.5190519719425665  0.83517099931899  0.7583677957427997  1.0000
  C   C1        1.0  0.529462928656045  0.2966766609982514  0.5155426619272205  1.0000
  C   C2        1.0  0.9705384779713954  0.20332395153942429  0.015543353480588003  1.0000
  C   C3        1.0  0.4705406839003601  0.7033237574696756  0.484456646519412  1.0000
  C   C4        1.0  0.029458815642101403  0.7966748537136681  0.9844559549660448  1.0000
  C   C5        1.0  0.4576577037966558  0.3619957296635262  0.58211504681816  1.0000
  C   C6        1.0  0.042340561553572804  0.1380073026963942  0.08211642992489493  1.0000
  C   C7        1.0  0.5423458554751193  0.6380038821969833  0.41788495318184  1.0000
  C   C8        1.0  0.9576543536797287  0.8619931157715326  0.9178828785217379  1.0000
  C   C9        1.0  0.5584219860961497  0.4431468887185588  0.6237527835023046  1.0000
  C   C10       1.0  0.9415772020049858  0.05685775685620339  0.12375554971577431  1.0000
  C   C11       1.0  0.44158038398552424  0.5568535297493753  0.3762479080510631  1.0000
  C   C12       1.0  0.05842138736786501  0.9431418550043063  0.8762437587308585  1.0000
  C   C13       1.0  0.72508322491813  0.45498707899933777  0.5989225598539465  1.0000
  C   C14       1.0  0.7749170458038391  0.0450151467531725  0.0989239429606812  1.0000
  C   C15       1.0  0.274919145163544  0.5450133394685892  0.4010774401460538  1.0000
  C   C16       1.0  0.2250814902843814  0.9549836584999198  0.9010746739325841  1.0000
  C   C17       1.0  0.7858492920848547  0.3880539888917411  0.5306226746518021  1.0000
  C   C18       1.0  0.7141521678272157  0.1119474302533519  0.030622674651802108  1.0000
  C   C19       1.0  0.2141543737561804  0.6119472361836102  0.4693766337948305  1.0000
  C   C20       1.0  0.2858463682610051  0.8880513749997405  0.9693759422414632  1.0000
  C   C21       1.0  0.2783294512505776  0.3513218937083806  0.6108511638843197  1.0000
  C   C22       1.0  0.2216699500051078  0.1486795254367053  0.11085185543768722  1.0000
  C   C23       1.0  0.7216728655464664  0.648677718152129  0.3891488361156804  1.0000
  C   C24       1.0  0.778327450177649  0.8513208930312217  0.8891481445623128  1.0000
  C   C25       1.0  0.05173966610460919  0.21248459197942537  0.6363992199278032  1.0000
  C   C26       1.0  0.44826222010053846  0.2875168271656605  0.1363985283744356  1.0000
  C   C27       1.0  0.9482614082177035  0.7875150198810842  0.3636007800721971  1.0000
  C   C28       1.0  0.5517377183163035  0.7124843979096838  0.8636014716255647  1.0000
  C   C29       1.0  0.9783814479415511  0.118919744769812  0.5965609051050436  1.0000
  C   C30       1.0  0.5216175270210641  0.381081674375281  0.0965602135516832  1.0000
  C   C31       1.0  0.0216183839060378  0.8810798670907047  0.4034390948949565  1.0000
  C   C32       1.0  0.4783811689210538  0.6189195507000633  0.903439786448317  1.0000
  C   C33       1.0  0.8292797299489506  0.0761719714670974  0.6319649797374896  1.0000
  C   C34       1.0  0.6707204874883885  0.4238294476779956  0.1319649797374893  1.0000
  C   C35       1.0  0.17072134437336217  0.9238276403934123  0.3680343287091432  1.0000
  C   C36       1.0  0.3292781551690993  0.5761709707899314  0.8680350202625107  1.0000
  C   C37       1.0  0.7568005967103701  0.1272834570813686  0.7064791634970504  1.0000
  C   C38       1.0  0.7431996207269691  0.3727179620637173  0.20647847194368305  1.0000
  C   C39       1.0  0.24320047761194266  0.8727161547791411  0.2935215280563171  1.0000
  C   C40       1.0  0.2568003176898798  0.627283263011627  0.7935222196096847  1.0000
  C   C41       1.0  0.9695992396323163  0.2610851087031705  0.7097467531569421  1.0000
  C   C42       1.0  0.5304021669951241  0.23891550383449808  0.2097460616035747  1.0000
  C   C43       1.0  0.030403023880097593  0.7389136965499218  0.290253246843058  1.0000
  C   C44       1.0  0.4695964756623638  0.7610849146334288  0.7902539383964253  1.0000
  I   I1        1.0  0.1312376521004879  0.24490214408682928  0.3542212417532227  1.0000
  I   I2        1.0  0.3687627252067712  0.2550952420211701  0.8542219333065904  1.0000
  I   I3        1.0  0.8687632623679277  0.7550950479514285  0.6457787582467773  1.0000
  I   I4        1.0  0.6312371599254406  0.7449051764467569  0.1457780666934099  1.0000
  I   I5        1.0  0.6269283507542909  0.011404622275357199  0.3782872989308572  1.0000
  I   I6        1.0  0.8730717601137882  0.4885951836549011  0.8782872989308574  1.0000
  I   I7        1.0  0.3730714810932981  0.9885949895851524  0.6217127010691428  1.0000
  I   I8        1.0  0.12692931420852463  0.5114044282056085  0.1217127010691428  1.0000
  N   N1        1.0  0.689610817525292  0.3106188702089128  0.4895533948354825  1.0000
  N   N2        1.0  0.8103892933427801  0.18938093572134557  0.989552703282115  1.0000
  N   N3        1.0  0.3103941440751044  0.6893831614738488  0.5104459136111501  1.0000
  N   N4        1.0  0.1896066512267183  0.8106162563169121  0.0104466051645176  1.0000
  N   N5        1.0  0.2083510770672632  0.2491787766141584  0.6049238599742708  1.0000
  N   N6        1.0  0.2916495666631604  0.2508226425309275  0.10492385997427081  1.0000
  N   N7        1.0  0.7916499439704197  0.7508200286389339  0.3950761400257293  1.0000
  N   N8        1.0  0.7083491292789574  0.7491785825444167  0.8950768315790898  1.0000
  N   N9        1.0  0.8261234660715147  0.2179614563439287  0.7435948327132422  1.0000
  N   N10       1.0  0.6738767513658247  0.2820399628011643  0.24359414115987485  1.0000
  N   N11       1.0  0.1738763657760671  0.782038155516581  0.2564058588401252  1.0000
  N   N12       1.0  0.3261231337663943  0.7179604556667626  0.7564065503934929  1.0000
  O   O1        1.0  0.20326897839842675  0.4302774673731093  0.6381875769353087  1.0000
  O   O2        1.0  0.2967316653319969  0.0697239517719836  0.1381868853819483  1.0000
  O   O3        1.0  0.7967345808733484  0.5697221444874074  0.3618124230646913  1.0000
  O   O4        1.0  0.7032657348507597  0.9302764666959432  0.8618131146180517  1.0000
