data_image0
_chemical_formula_structural       Cs4H20C28S4N16
_chemical_formula_sum              "Cs4 H20 C28 S4 N16"
_cell_length_a       6.729890554946848
_cell_length_b       7.2254504175852725
_cell_length_c       21.535607023938137
_cell_angle_alpha    90.00219616533056
_cell_angle_beta     89.99842194769484
_cell_angle_gamma    109.37770778990223

_space_group_name_H-M_alt    "P 1"
_space_group_IT_number       1

loop_
  _space_group_symop_operation_xyz
  'x, y, z'

loop_
  _atom_site_type_symbol
  _atom_site_label
  _atom_site_symmetry_multiplicity
  _atom_site_fract_x
  _atom_site_fract_y
  _atom_site_fract_z
  _atom_site_occupancy
  Cs  Cs1       1.0  0.21926517840673662  0.4074151573032837  0.5506277563135455  1.0000
  Cs  Cs2       1.0  0.7807163530509201  0.09258353164349131  0.050631523619266296  1.0000
  Cs  Cs3       1.0  0.780693021086897  0.592550733891045  0.44937239336705664  1.0000
  Cs  Cs4       1.0  0.21928460207812622  0.9074261215670633  0.9493709472323958  1.0000
  H   H1        1.0  0.6214207631451742  0.09591956621466124  0.7261416761806885  1.0000
  H   H2        1.0  0.3785503585201014  0.4040898639800903  0.22613441264763884  1.0000
  H   H3        1.0  0.3785792288170526  0.9041077576920671  0.27385104284825706  1.0000
  H   H4        1.0  0.6214847873318166  0.5959238824137785  0.7738606290953385  1.0000
  H   H5        1.0  0.366322538418224  0.05723810920002851  0.812376683245688  1.0000
  H   H6        1.0  0.6336653427076087  0.44277769700086383  0.31236958625119365  1.0000
  H   H7        1.0  0.6337182106210832  0.942815333645541  0.1876276443799014  1.0000
  H   H8        1.0  0.3664229672832918  0.557247324419457  0.6876161690994422  1.0000
  H   H9        1.0  0.9780734648355536  0.9172972545540931  0.7917577711166146  1.0000
  H   H10       1.0  0.021895229663087462  0.5827146347603361  0.29174114305309473  1.0000
  H   H11       1.0  0.021949680939350517  0.08272838916307285  0.2082623448331873  1.0000
  H   H12       1.0  0.9781867307636888  0.4173295787159149  0.7082311455632109  1.0000
  H   H13       1.0  0.8512982527678832  0.8148285825302466  0.6841341025114289  1.0000
  H   H14       1.0  0.14868121803404927  0.685172945786867  0.1841263916433036  1.0000
  H   H15       1.0  0.14868644985858745  0.18514884510771176  0.3158915863718121  1.0000
  H   H16       1.0  0.8513353651050296  0.3148306634564122  0.8158482188077373  1.0000
  H   H17       1.0  0.10906071711171005  0.8598630165298788  0.5975666270632303  1.0000
  H   H18       1.0  0.8909318352266098  0.6401360526631166  0.0975545624036016  1.0000
  H   H19       1.0  0.8908844505665384  0.14007944964878766  0.4024516326263239  1.0000
  H   H20       1.0  0.10906053625237183  0.3598501210260637  0.9024270133625762  1.0000
  C   C1        1.0  0.37854319323544433  0.9810407863367986  0.657483221234493  1.0000
  C   C2        1.0  0.6214434668932544  0.518966740847013  0.1574762440761219  1.0000
  C   C3        1.0  0.6214241691332134  0.018917660865355398  0.3425238940234935  1.0000
  C   C4        1.0  0.3785776649127683  0.481057441303669  0.8425183327836195  1.0000
  C   C5        1.0  0.45243905193601824  0.03682683867520351  0.7175390272556967  1.0000
  C   C6        1.0  0.5475295070721843  0.4631754998175098  0.2175348531894059  1.0000
  C   C7        1.0  0.547550314014984  0.9631917560923356  0.28246483618544  1.0000
  C   C8        1.0  0.4525095446080131  0.536836738337705  0.78246158170397  1.0000
  C   C9        1.0  0.3074578255539535  0.013790673754599003  0.765585627797968  1.0000
  C   C10       1.0  0.6925263559299567  0.4862091854729656  0.26557795296493236  1.0000
  C   C11       1.0  0.6925534752773715  0.9862350758491019  0.2344187001456675  1.0000
  C   C12       1.0  0.3075365205981555  0.5138072421489354  0.7344082665616298  1.0000
  C   C13       1.0  0.09123395785415776  0.9349098390098477  0.7539377301602387  1.0000
  C   C14       1.0  0.9087345686070734  0.5650963738388839  0.2539236591962251  1.0000
  C   C15       1.0  0.9087718045776968  0.06512921604859659  0.2460814564166185  1.0000
  C   C16       1.0  0.09132815970249207  0.4349318290066933  0.7460542017344878  1.0000
  C   C17       1.0  0.019495881417825156  0.8787657648569933  0.6936338613581228  1.0000
  C   C18       1.0  0.9804852553737362  0.62122136915864  0.1936170430837549  1.0000
  C   C19       1.0  0.9804835844650485  0.12120140555207123  0.3063862555697838  1.0000
  C   C20       1.0  0.019546116153208056  0.37879829482018584  0.8063594245340936  1.0000
  C   C21       1.0  0.16271345687302857  0.9021391597371037  0.6449199547631892  1.0000
  C   C22       1.0  0.837256558654218  0.5978455569858737  0.1449057868618695  1.0000
  C   C23       1.0  0.8372546987055857  0.09782958833996253  0.3550987688895972  1.0000
  C   C24       1.0  0.1627491205783613  0.4021566847128994  0.8550757886571602  1.0000
  C   C25       1.0  0.6711678445696522  0.16724944431967256  0.5839122521016549  1.0000
  C   C26       1.0  0.3287950630284797  0.33275800836789676  0.0839098137656364  1.0000
  C   C27       1.0  0.3287839145281028  0.8326988434664886  0.4160911484154042  1.0000
  C   C28       1.0  0.6711858039068946  0.6672739168729581  0.9161005500082808  1.0000
  S   S1        1.0  0.7162930884096355  0.4027892980935591  0.6067696745132736  1.0000
  S   S2        1.0  0.2837246717251247  0.0972179147084304  0.10675855729473233  1.0000
  S   S3        1.0  0.283672943696061  0.5971573821115044  0.39322861846724777  1.0000
  S   S4        1.0  0.7163031988708968  0.9028003158144671  0.893235555502649  1.0000
  N   N1        1.0  0.5260157767332317  0.0010393078138832986  0.6083751050358331  1.0000
  N   N2        1.0  0.4739455353975758  0.4989621305661913  0.10837383859141882  1.0000
  N   N3        1.0  0.47393516748148573  0.9989148752918171  0.3916264379070924  1.0000
  N   N4        1.0  0.5260391087331087  0.5010638703597508  0.8916346680284875  1.0000
  N   N5        1.0  0.5380272224982721  0.8405569756453064  0.5774601673972768  1.0000
  N   N6        1.0  0.4619304362813495  0.6594439527550977  0.0774610862065614  1.0000
  N   N7        1.0  0.4619133556457697  0.1593973042026207  0.4225399823292761  1.0000
  N   N8        1.0  0.5380620201582431  0.34057903016400815  0.9225455632416129  1.0000
  N   N9        1.0  0.6845885570170084  0.906235217418633  0.5359187856737719  1.0000
  N   N10       1.0  0.31537064538672177  0.5937634642562062  0.035920063446035  1.0000
  N   N11       1.0  0.3153579444468804  0.09371900749763283  0.4640832215415713  1.0000
  N   N12       1.0  0.6846209958436589  0.4062654147472033  0.9640870501642808  1.0000
  N   N13       1.0  0.7696771537022541  0.1034928898708216  0.5377795896817759  1.0000
  N   N14       1.0  0.23028468118890547  0.3965108008956618  0.0377799263969933  1.0000
  N   N15       1.0  0.2302666643231534  0.8964540001518274  0.4622233463971099  1.0000
  N   N16       1.0  0.7697085699610469  0.6035224793804163  0.962227651459152  1.0000
