data_image0
_chemical_formula_structural       Al4H60C100N8O28
_chemical_formula_sum              "Al4 H60 C100 N8 O28"
_cell_length_a       6.56223877874832
_cell_length_b       25.520900086740415
_cell_length_c       30.353993326574322
_cell_angle_alpha    112.84432062329859
_cell_angle_beta     90.80984759573344
_cell_angle_gamma    88.58349181862576

_space_group_name_H-M_alt    "P 1"
_space_group_IT_number       1

loop_
  _space_group_symop_operation_xyz
  'x, y, z'

loop_
  _atom_site_type_symbol
  _atom_site_label
  _atom_site_symmetry_multiplicity
  _atom_site_fract_x
  _atom_site_fract_y
  _atom_site_fract_z
  _atom_site_occupancy
  Al  Al1       1.0  0.20049293740957097  0.7542727842911388  0.7536934247625381  1.0000
  Al  Al2       1.0  0.8207137062748656  0.24618506698349307  0.2476629864569659  1.0000
  Al  Al3       1.0  0.7007272635818963  0.7507030365405355  0.7488208708289789  1.0000
  Al  Al4       1.0  0.3207483772225004  0.24783896594509255  0.25140084937020646  1.0000
  H   H1        1.0  0.28141752893272803  0.902278721524624  0.042255650467872406  1.0000
  H   H2        1.0  0.714520137672437  0.09402818192236133  0.9598318365892381  1.0000
  H   H3        1.0  0.6755280542876392  0.599272327129661  0.4514851107864288  1.0000
  H   H4        1.0  0.3215611496658823  0.4010293338889852  0.5497115147422278  1.0000
  H   H5        1.0  0.0831775308214517  0.8785017872827366  0.8967028452216894  1.0000
  H   H6        1.0  0.924406767113865  0.11902063774417114  0.10424624008128797  1.0000
  H   H7        1.0  0.5357396051619147  0.6269346002836611  0.5993273961662736  1.0000
  H   H8        1.0  0.4449403599387054  0.37459991484237065  0.40074107456348423  1.0000
  H   H9        1.0  0.7151488868741182  0.9388051555813843  0.8078420386191708  1.0000
  H   H10       1.0  0.30344925627128555  0.06034651049448307  0.19245419311246073  1.0000
  H   H11       1.0  0.3368474780604771  0.5589306734880565  0.6999919109716543  1.0000
  H   H12       1.0  0.7093140685445148  0.4383235701738499  0.3032933376660977  1.0000
  H   H13       1.0  0.34037538159302033  0.9651369499361588  0.1257458095657071  1.0000
  H   H14       1.0  0.6676777428972471  0.032942061133823516  0.875778558669239  1.0000
  H   H15       1.0  0.7268566380112561  0.5349711659525339  0.3680400561891802  1.0000
  H   H16       1.0  0.3006456232783918  0.4634763108909749  0.6344947960915022  1.0000
  H   H17       1.0  0.154198416025757  0.8868560843727591  0.9621158002077052  1.0000
  H   H18       1.0  0.8395666595661736  0.10892009518876479  0.039924519720670994  1.0000
  H   H19       1.0  0.5843483854213005  0.6154502909880434  0.5336240821942437  1.0000
  H   H20       1.0  0.3957724395542003  0.3854688654089528  0.46698878018204937  1.0000
  H   H21       1.0  0.038242468077200394  0.6507707380723244  0.07191461284329391  1.0000
  H   H22       1.0  0.008581045901927096  0.3508453009193884  0.9295668194451139  1.0000
  H   H23       1.0  0.8856599206138043  0.8987773068880782  0.477656358364861  1.0000
  H   H24       1.0  0.04745335069105749  0.09832146273726033  0.5191932822243714  1.0000
  H   H25       1.0  0.0571329403396135  0.5945171803719375  0.12465859490854567  1.0000
  H   H26       1.0  0.9637650524727945  0.4072513060555918  0.8773552121294799  1.0000
  H   H27       1.0  0.8977186669072876  0.9487793139382883  0.4201022387510349  1.0000
  H   H28       1.0  0.026371710191298796  0.044610923828997666  0.5735864378158054  1.0000
  H   H29       1.0  0.7584726200178551  0.35807342474274145  0.0795404329120899  1.0000
  H   H30       1.0  0.6785420549325137  0.6510720095920275  0.9257961304319976  1.0000
  H   H31       1.0  0.746489184223904  0.15468823839203338  0.43733716787732385  1.0000
  H   H32       1.0  0.49204261038653396  0.8123539668817868  0.5483465215866374  1.0000
  H   H33       1.0  0.35415163343164113  0.35173588981599824  0.17926713033688205  1.0000
  H   H34       1.0  0.25184657237618774  0.6416440636027048  0.818707399422614  1.0000
  H   H35       1.0  0.3497173575727643  0.11292971534695079  0.2881051724457251  1.0000
  H   H36       1.0  0.3586256694475053  0.9107123339696481  0.7217053214434727  1.0000
  H   H37       1.0  0.36087486166859145  0.4132780792602587  0.1321619363056641  1.0000
  H   H38       1.0  0.2621758567660493  0.5804763653519556  0.8662233262407214  1.0000
  H   H39       1.0  0.2936831297799856  0.05592234363179925  0.3377200471832608  1.0000
  H   H40       1.0  0.37089155895721143  0.9670448961627679  0.670841093813017  1.0000
  H   H41       1.0  0.6024085713415842  0.29841714261417707  0.10193926093980112  1.0000
  H   H42       1.0  0.5747332564960103  0.20974909600654  0.1038542536997795  1.0000
  H   H43       1.0  0.8039067579135092  0.21678308621502396  0.13677117062763947  1.0000
  H   H44       1.0  0.8136165707356112  0.20650328779345262  0.07509405845797092  1.0000
  H   H45       1.0  0.526000520610239  0.7145330979122942  0.9051336635025463  1.0000
  H   H46       1.0  0.5098006609322211  0.804803172011354  0.9076197872285902  1.0000
  H   H47       1.0  0.7192813368691232  0.7926789847702761  0.8687087511561913  1.0000
  H   H48       1.0  0.7618384471813967  0.8006065468062432  0.9293177001590963  1.0000
  H   H49       1.0  0.8532410183502604  0.23357722461774696  0.429519415117241  1.0000
  H   H50       1.0  0.10916763422573439  0.2575289838144953  0.3848066488491213  1.0000
  H   H51       1.0  0.014743837874313201  0.20364325573945752  0.33232838862431185  1.0000
  H   H52       1.0  0.13058345014506048  0.18481805543606802  0.378005928119741  1.0000
  H   H53       1.0  0.4780386249988595  0.7275217744420316  0.5601718189442124  1.0000
  H   H54       1.0  0.7732726009442317  0.6852062786765526  0.5812991151292763  1.0000
  H   H55       1.0  0.7952557036082053  0.7475817709482157  0.6343827150185034  1.0000
  H   H56       1.0  0.8371318499126444  0.7512012080494939  0.5776150844695209  1.0000
  H   H57       1.0  0.46435426716372064  0.74795812701047  0.8065505095968531  1.0000
  H   H58       1.0  0.5559894173648914  0.25201699190918697  0.1947020870256964  1.0000
  H   H59       1.0  0.9682070338826205  0.7007560510593149  0.6938488873931234  1.0000
  H   H60       1.0  0.058983026698335585  0.29787705811409637  0.30710024732976393  1.0000
  C   C1        1.0  0.4307621734078849  0.7996147223561109  0.6970863125082332  1.0000
  C   C2        1.0  0.5911625284786126  0.19774244880726136  0.3028270287766759  1.0000
  C   C3        1.0  0.9643948673296093  0.7080490683744216  0.8097403861950382  1.0000
  C   C4        1.0  0.05578326614599399  0.2926032965521869  0.19147284862381753  1.0000
  C   C5        1.0  0.45827454817863617  0.6557964599438645  0.690813656111075  1.0000
  C   C6        1.0  0.5616277514590422  0.3434567756442418  0.31067732468140014  1.0000
  C   C7        1.0  0.9270813918337736  0.8473303743463132  0.8097296183555898  1.0000
  C   C8        1.0  0.09073343948995928  0.15184697841849729  0.1904219803042082  1.0000
  C   C9        1.0  0.1083589822769255  0.09440277059616874  0.15136931744344648  1.0000
  C   C10       1.0  0.9045427351600493  0.904168967950305  0.8493875000111044  1.0000
  C   C11       1.0  0.5716967757248809  0.40167953796223077  0.3490993700827262  1.0000
  C   C12       1.0  0.4427058044164268  0.5976105315637809  0.6524073318713732  1.0000
  C   C13       1.0  0.2522824650796593  0.9992917913403971  0.12080210798464458  1.0000
  C   C14       1.0  0.755612944226641  0.9986072209445352  0.8805003898113598  1.0000
  C   C15       1.0  0.6669555852837732  0.49962761672831835  0.37530550740534346  1.0000
  C   C16       1.0  0.35241336173584165  0.49929947344940456  0.6267457276583456  1.0000
  C   C17       1.0  0.23005991429552347  0.0515165035538203  0.1579587795147361  1.0000
  C   C18       1.0  0.7833054401262699  0.9471099205842249  0.8427898492196492  1.0000
  C   C19       1.0  0.6558158332195629  0.4463128579849211  0.3392344911683908  1.0000
  C   C20       1.0  0.3733490679960312  0.5520478765140097  0.6631856640471554  1.0000
  C   C21       1.0  0.017738972156209305  0.08486388390961246  0.10748581911440168  1.0000
  C   C22       1.0  0.9895411090900339  0.9127686554017412  0.8936688394628761  1.0000
  C   C23       1.0  0.5075192767178079  0.4103688201147475  0.3947070829974706  1.0000
  C   C24       1.0  0.4865040433433094  0.5901625949514226  0.6058620241233612  1.0000
  C   C25       1.0  0.05198428059831169  0.033439190008301985  0.0676653993963754  1.0000
  C   C26       1.0  0.9504790372139312  0.9634957614116216  0.9338501799119924  1.0000
  C   C27       1.0  0.5287231261515473  0.4636808170474537  0.43299845577232077  1.0000
  C   C28       1.0  0.4622131751266211  0.536909783690696  0.5677108088237617  1.0000
  C   C29       1.0  0.16747009536199187  0.9892925259129938  0.0750996362806191  1.0000
  C   C30       1.0  0.8351387786407684  0.007748935065983134  0.9264881894317227  1.0000
  C   C31       1.0  0.6054303065261237  0.5094758108227564  0.4224383838470445  1.0000
  C   C32       1.0  0.39513107004552234  0.4905468976800902  0.5787664392377962  1.0000
  C   C33       1.0  0.9791375863548453  0.024557766849561298  0.0200803381186461  1.0000
  C   C34       1.0  0.0201460110377454  0.971884645541834  0.9815791444752049  1.0000
  C   C35       1.0  0.48009990526124097  0.47298875614580976  0.4819264795438443  1.0000
  C   C36       1.0  0.5036631239591215  0.5278362702638758  0.5185137518353855  1.0000
  C   C37       1.0  0.12746259381954417  0.9280218899895516  0.9911224329366632  1.0000
  C   C38       1.0  0.8694118879261055  0.06816544911440299  0.010751128074083701  1.0000
  C   C39       1.0  0.5707118352333963  0.5729901075722451  0.5059293734301703  1.0000
  C   C40       1.0  0.41322725911222585  0.42785778211026565  0.4946090408807393  1.0000
  C   C41       1.0  0.1983438543206901  0.9363120541523384  0.03592080533283589  1.0000
  C   C42       1.0  0.799626576962794  0.060153188238906564  0.9659629325913243  1.0000
  C   C43       1.0  0.6209560765273776  0.5642378546328075  0.45999278951429556  1.0000
  C   C44       1.0  0.37218573232442503  0.4362637241374755  0.5409661599216236  1.0000
  C   C45       1.0  0.9583540576485491  0.5199700120955482  0.9048916812099819  1.0000
  C   C46       1.0  0.0521012346393093  0.48203722850359276  0.09742766512687952  1.0000
  C   C47       1.0  0.280556190326358  0.9637756243881338  0.5780821841405271  1.0000
  C   C48       1.0  0.6425201073458949  0.02860165423445687  0.4150274524102642  1.0000
  C   C49       1.0  0.004323820176409798  0.6105420312980312  0.9771051425436639  1.0000
  C   C50       1.0  0.050259844717246  0.3910505678047968  0.0242534699994792  1.0000
  C   C51       1.0  0.6107982920366412  0.912940175451524  0.544788624574103  1.0000
  C   C52       1.0  0.32897331094261517  0.08614901472306961  0.45286660673952633  1.0000
  C   C53       1.0  0.013948427475106892  0.5768067435983184  0.007364454454908299  1.0000
  C   C54       1.0  0.0270337794724469  0.42487347652169644  0.9942516984233619  1.0000
  C   C55       1.0  0.6133993692024546  0.9426039508486779  0.511400650171467  1.0000
  C   C56       1.0  0.3177435272175373  0.054088312408104855  0.4844760998031319  1.0000
  C   C57       1.0  0.007693142161691898  0.5167217888865777  0.9860963250227074  1.0000
  C   C58       1.0  0.0258724437009903  0.4850149295783055  0.015659479985387696  1.0000
  C   C59       1.0  0.4597229470279487  0.9832166134047067  0.5132899511915952  1.0000
  C   C60       1.0  0.46888032107055716  0.012349922639721489  0.4817258890099581  1.0000
  C   C61       1.0  0.9839376836677687  0.48758709503265124  0.9360658497095286  1.0000
  C   C62       1.0  0.0425225168876366  0.5141838007887712  0.0658493287518738  1.0000
  C   C63       1.0  0.29735243465602673  0.9952592180696553  0.5461454965292915  1.0000
  C   C64       1.0  0.62950366950367  0.9989606467075657  0.44824752395992806  1.0000
  C   C65       1.0  0.03322251879073691  0.6044723062554808  0.056657279873611785  1.0000
  C   C66       1.0  0.0066635771442662  0.3971919234043282  0.9449724817747551  1.0000
  C   C67       1.0  0.7697659119210484  0.9303709771266141  0.47827015751533253  1.0000
  C   C68       1.0  0.16112862453097418  0.06572663253855633  0.5175034349225739  1.0000
  C   C69       1.0  0.045291489199343  0.5732447093866708  0.0859007646001189  1.0000
  C   C70       1.0  0.9829070265561981  0.42850468000749214  0.9159694141196937  1.0000
  C   C71       1.0  0.7769011552286286  0.9581971092544063  0.4465185243053256  1.0000
  C   C72       1.0  0.1500544262832477  0.03615149467696444  0.5479751898532256  1.0000
  C   C73       1.0  0.8867950756202844  0.3576950358756503  0.10270088941157242  1.0000
  C   C74       1.0  0.8015123725969815  0.6480751932418299  0.9010279514867818  1.0000
  C   C75       1.0  0.6580385471790889  0.14620727510749984  0.40465313391092644  1.0000
  C   C76       1.0  0.4632883035311862  0.8341362326658127  0.5864938913209202  1.0000
  C   C77       1.0  0.8814301192074651  0.3217590373125175  0.12801470605722895  1.0000
  C   C78       1.0  0.7955825203870857  0.6842689777435137  0.8757257948635129  1.0000
  C   C79       1.0  0.6969460047654791  0.17743896955258978  0.3764861560935557  1.0000
  C   C80       1.0  0.4735548460333163  0.8026745553697551  0.6153563666882605  1.0000
  C   C81       1.0  0.053485798870866595  0.3211744607480397  0.15696123486419108  1.0000
  C   C82       1.0  0.9608614582575755  0.6800298845489435  0.8445240249116992  1.0000
  C   C83       1.0  0.5838048073496508  0.16393390063148414  0.3334854527212272  1.0000
  C   C84       1.0  0.4322580806219208  0.8309832563864176  0.6645277689211754  1.0000
  C   C85       1.0  0.22414365758319832  0.35342751688536106  0.15706037281127996  1.0000
  C   C86       1.0  0.1270225125376783  0.6432122990325978  0.8424904196697865  1.0000
  C   C87       1.0  0.4401372365886188  0.12074403715877922  0.3203734535661765  1.0000
  C   C88       1.0  0.3921216009861297  0.8896275177560963  0.6836754294488755  1.0000
  C   C89       1.0  0.2290096665943935  0.387641005466861  0.1309134074727254  1.0000
  C   C90       1.0  0.13326914111555505  0.6091558192315599  0.8686508473708299  1.0000
  C   C91       1.0  0.4058664811130441  0.08941600268397554  0.348166022514718  1.0000
  C   C92       1.0  0.39655736820730436  0.921232981506506  0.6552304825542592  1.0000
  C   C93       1.0  0.0565897395956938  0.38948713711695854  0.1039762944426883  1.0000
  C   C94       1.0  0.9666493107742581  0.6119268041367076  0.8977145216383207  1.0000
  C   C95       1.0  0.5158941733163543  0.10327899380908424  0.3906058739969751  1.0000
  C   C96       1.0  0.4297716028574996  0.8928707819118242  0.6062365776594945  1.0000
  C   C97       1.0  0.7283209435769677  0.2273111142703357  0.10881904687314399  1.0000
  C   C98       1.0  0.658973779075609  0.7831766179655799  0.8981128298907919  1.0000
  C   C99       1.0  0.0330179378667026  0.21641343042900724  0.3708600352732105  1.0000
  C   C100      1.0  0.7451127777411202  0.7314221338928275  0.5970124022073477  1.0000
  N   N1        1.0  0.9733155136747486  0.5796278993740029  0.9276583677035148  1.0000
  N   N2        1.0  0.054127860123166706  0.42213941757018597  0.0743024190871253  1.0000
  N   N3        1.0  0.4393896256413825  0.9239567240554151  0.5754321734317074  1.0000
  N   N4        1.0  0.49229011728829863  0.07114736072349352  0.4203079949767242  1.0000
  N   N5        1.0  0.7094793294124387  0.28883904794305687  0.1223755157699387  1.0000
  N   N6        1.0  0.6298859051791014  0.7219709760298797  0.8837846633222739  1.0000
  N   N7        1.0  0.8319262194318925  0.22306488638649558  0.3937903809375739  1.0000
  N   N8        1.0  0.5242134578158468  0.7434264660664666  0.5950743084897354  1.0000
  O   O1        1.0  0.633761341371766  0.6731819242085917  0.7077814391649682  1.0000
  O   O2        1.0  0.38699155619276837  0.32454162267237757  0.2941357274348206  1.0000
  O   O3        1.0  0.09803820603263345  0.8209291289295277  0.804589079800067  1.0000
  O   O4        1.0  0.9205059807925693  0.17884030911885418  0.1964055839225196  1.0000
  O   O5        1.0  0.266613349107068  0.8006256666926673  0.719134267256308  1.0000
  O   O6        1.0  0.7571799347442578  0.20090823488865783  0.28301141870058893  1.0000
  O   O7        1.0  0.7955433335622144  0.7254999332863857  0.798529843851007  1.0000
  O   O8        1.0  0.22739682468299088  0.27528957045022645  0.20171441604141194  1.0000
  O   O9        1.0  0.2909619404945687  0.6837182275566461  0.7027848512702803  1.0000
  O   O10       1.0  0.7314348665001021  0.3170320047670288  0.2980109257009076  1.0000
  O   O11       1.0  0.7677606675895134  0.8282268452987721  0.7848652908851791  1.0000
  O   O12       1.0  0.2524219259391671  0.1708365274877436  0.21431625622245315  1.0000
  O   O13       1.0  0.1369789333327205  0.7113200787112389  0.7922070343984231  1.0000
  O   O14       1.0  0.8853444130366765  0.28880918913757364  0.20946969395782838  1.0000
  O   O15       1.0  0.5957898150609325  0.774669871627921  0.701020399989268  1.0000
  O   O16       1.0  0.42255824055570196  0.22065989214685536  0.29795380404899424  1.0000
  O   O17       1.0  0.45558755321567895  0.7632614681472488  0.7818017765746318  1.0000
  O   O18       1.0  0.5661105511070871  0.23647525717215953  0.21926160681983484  1.0000
  O   O19       1.0  0.9541495330933073  0.7370658034654766  0.7207286476583264  1.0000
  O   O20       1.0  0.0684209150696162  0.2621073160243198  0.2795278807921662  1.0000
  O   O21       1.0  0.9264510773736916  0.4970418405350471  0.8617066066961526  1.0000
  O   O22       1.0  0.0561676305162209  0.5053745976845717  0.1412187038599697  1.0000
  O   O23       1.0  0.1360040259319035  0.9716902057373388  0.6053181208248901  1.0000
  O   O24       1.0  0.7766878860854051  0.01770709894033466  0.38475951640072026  1.0000
  O   O25       1.0  0.0230979762178052  0.6624088834099878  0.9935439465090851  1.0000
  O   O26       1.0  0.06405450305688729  0.3388780634353878  0.0071255964300575994  1.0000
  O   O27       1.0  0.7493553211323061  0.8800803945599965  0.5455061936294996  1.0000
  O   O28       1.0  0.20599183114623543  0.12415063239762245  0.4549260483860137  1.0000
