data_image0
_chemical_formula_structural       Zn4H24C44O24
_chemical_formula_sum              "Zn4 H24 C44 O24"
_cell_length_a       8.912672607173239
_cell_length_b       13.610890983990943
_cell_length_c       16.964440400562857
_cell_angle_alpha    89.89331383443746
_cell_angle_beta     89.41318722783934
_cell_angle_gamma    87.06473736611507

_space_group_name_H-M_alt    "P 1"
_space_group_IT_number       1

loop_
  _space_group_symop_operation_xyz
  'x, y, z'

loop_
  _atom_site_type_symbol
  _atom_site_label
  _atom_site_symmetry_multiplicity
  _atom_site_fract_x
  _atom_site_fract_y
  _atom_site_fract_z
  _atom_site_occupancy
  Zn  Zn1       1.0  0.353037972563058  0.013296744844439  0.5048326440217038  1.0000
  Zn  Zn2       1.0  0.6530840710791778  0.9927728545269405  0.49949828372407973  1.0000
  Zn  Zn3       1.0  0.6483830961831885  0.4994861865426045  0.0015126412565961995  1.0000
  Zn  Zn4       1.0  0.34637094107439026  0.5047961154645859  0.0015667138884581  1.0000
  H   H1        1.0  0.6977151699410554  0.7091921497911711  0.1616876644941669  1.0000
  H   H2        1.0  0.12949548730621527  0.6596508349766597  0.2505665390309773  1.0000
  H   H3        1.0  0.10136952270435978  0.7671177272834554  0.1911296852413287  1.0000
  H   H4        1.0  0.13893732303583306  0.8734882239887651  0.3084221820185249  1.0000
  H   H5        1.0  0.16396307242918334  0.7673566459871352  0.36905906089924656  1.0000
  H   H6        1.0  0.7113045971392251  0.2789994344260833  0.8523180775215663  1.0000
  H   H7        1.0  0.16654000045692635  0.3709115892047948  0.7367156751907088  1.0000
  H   H8        1.0  0.12301987660715946  0.26580750233143396  0.7943508773399799  1.0000
  H   H9        1.0  0.18718661613429075  0.155102326498465  0.6820774607334881  1.0000
  H   H10       1.0  0.22618298709870996  0.2576123549969225  0.6209830155389611  1.0000
  H   H11       1.0  0.7651020623449653  0.2903871107918548  0.2042184798607849  1.0000
  H   H12       1.0  0.17978390302696565  0.2656435241601187  0.1413039066589334  1.0000
  H   H13       1.0  0.17233294142111077  0.37198533224460567  0.2027048865980348  1.0000
  H   H14       1.0  0.14028231232065735  0.26347594975993616  0.3224565426845983  1.0000
  H   H15       1.0  0.15310468278993736  0.15777521521256696  0.2614532376362249  1.0000
  H   H16       1.0  0.28593931610183887  0.6936237806919011  0.8262297587444891  1.0000
  H   H17       1.0  0.8750984057602619  0.6575587208602091  0.756198751528423  1.0000
  H   H18       1.0  0.8703393025520183  0.7629931127183978  0.8186718708323326  1.0000
  H   H19       1.0  0.8242606578753849  0.872537956423784  0.7029388193868867  1.0000
  H   H20       1.0  0.8329278665099763  0.7690720183860832  0.6390738045462284  1.0000
  H   H21       1.0  0.801918134192803  0.7023454327543278  0.3411469443904949  1.0000
  H   H22       1.0  0.8172411054180911  0.11359374578033508  0.6439140921283621  1.0000
  H   H23       1.0  0.7948860747208994  0.0545475937131101  0.2831788402708568  1.0000
  H   H24       1.0  0.22717250990192622  0.7222949649899918  0.6125673975854796  1.0000
  C   C1        1.0  0.4622694923928634  0.8786754242075644  0.6123285702664347  1.0000
  C   C2        1.0  0.5196385806616846  0.8793071107228343  0.3874660394191167  1.0000
  C   C3        1.0  0.4757544872501213  0.13085971156034054  0.3931153782325935  1.0000
  C   C4        1.0  0.5614562841872298  0.12100547102973282  0.617958654969172  1.0000
  C   C5        1.0  0.5420940323977987  0.37628400846115534  0.1128627552392345  1.0000
  C   C6        1.0  0.4477677310579224  0.6335836692157458  0.1085816510513951  1.0000
  C   C7        1.0  0.5427815604236199  0.6250245623569054  0.8898822675866639  1.0000
  C   C8        1.0  0.4547725719076183  0.3743458404042883  0.8945487627478812  1.0000
  C   C9        1.0  0.458563386279202  0.7018015040358137  0.1768706557082851  1.0000
  C   C10       1.0  0.5001896839871235  0.8212927247392087  0.3145442625849739  1.0000
  C   C11       1.0  0.33859356230932036  0.7349410427345758  0.2243962436668241  1.0000
  C   C12       1.0  0.6224611588716654  0.7908371005371607  0.2648007671529697  1.0000
  C   C13       1.0  0.3593622672993461  0.7933244232792872  0.29097668568535084  1.0000
  C   C14       1.0  0.6015487007041073  0.7326742785865574  0.19843721025161898  1.0000
  C   C15       1.0  0.17065437874026654  0.7327011106522647  0.23770871444818203  1.0000
  C   C16       1.0  0.19384376478782164  0.7995537921216352  0.31207608940712817  1.0000
  C   C17       1.0  0.47654902999327925  0.30536700789781424  0.826828000728689  1.0000
  C   C18       1.0  0.5484128446327431  0.18117425141951318  0.6913838883223207  1.0000
  C   C19       1.0  0.3669916366112033  0.2810873197769581  0.7737020766001094  1.0000
  C   C20       1.0  0.6620162602535941  0.20339523084007283  0.7472481511392813  1.0000
  C   C21       1.0  0.40335258896823933  0.22048521574183874  0.7089023608663538  1.0000
  C   C22       1.0  0.621806782701462  0.2636926904131442  0.8117634677619634  1.0000
  C   C23       1.0  0.20336425447088397  0.2949887596737497  0.7519890904273296  1.0000
  C   C24       1.0  0.24274954438013896  0.22521306384356174  0.6797812849344496  1.0000
  C   C25       1.0  0.5281738863754128  0.3091526943782839  0.18168395608669385  1.0000
  C   C26       1.0  0.4936220601686042  0.18980069243310274  0.32039931437565616  1.0000
  C   C27       1.0  0.3873767048084955  0.28383446819670877  0.20958025083834997  1.0000
  C   C28       1.0  0.6383201115529856  0.21297648136371092  0.2914132137808991  1.0000
  C   C29       1.0  0.371138630223676  0.22571080712502575  0.2768140477795669  1.0000
  C   C30       1.0  0.6534047099103046  0.27146773386031947  0.22404379662843607  1.0000
  C   C31       1.0  0.2193598250170082  0.2960940846551452  0.1967973206376641  1.0000
  C   C32       1.0  0.20130346758867287  0.22916283914944563  0.27226920900128687  1.0000
  C   C33       1.0  0.5274642292098973  0.6899833325848731  0.8192350366789114  1.0000
  C   C34       1.0  0.47825500913009455  0.8122066480041638  0.6816049754478826  1.0000
  C   C35       1.0  0.6463278625670197  0.7249363875732938  0.7755142015517151  1.0000
  C   C36       1.0  0.35628240194107247  0.7770276930108367  0.7260103151761468  1.0000
  C   C37       1.0  0.6213879148770544  0.7848960813990827  0.7092554422802663  1.0000
  C   C38       1.0  0.3818152924389792  0.7185581844982707  0.7928332466894972  1.0000
  C   C39       1.0  0.8155522225529237  0.7285238612578908  0.7689776969895019  1.0000
  C   C40       1.0  0.7871863821717751  0.7975139822493418  0.6952795551459586  1.0000
  C   C41       1.0  0.778983912299253  0.8211080344518747  0.2808941125831694  1.0000
  C   C42       1.0  0.8283708785478507  0.1704861837452825  0.7488557895574245  1.0000
  C   C43       1.0  0.7834419705343476  0.18526633439083184  0.3331156286957651  1.0000
  C   C44       1.0  0.19452128939054342  0.8006152665784327  0.7061186312423686  1.0000
  O   O1        1.0  0.3327229808080574  0.9162227904764039  0.5930792386181309  1.0000
  O   O2        1.0  0.5856469947102027  0.894374981078698  0.5766888743070524  1.0000
  O   O3        1.0  0.6534841611029093  0.8976871207457008  0.40843193896684227  1.0000
  O   O4        1.0  0.39917151941487106  0.9066391381684082  0.4239818632834939  1.0000
  O   O5        1.0  0.5979572414032431  0.10160407423385465  0.42630009007304176  1.0000
  O   O6        1.0  0.343368319380552  0.11222641985743557  0.4175367524255833  1.0000
  O   O7        1.0  0.43887065043262646  0.10643997612109497  0.5837739202930406  1.0000
  O   O8        1.0  0.689767150231539  0.08577443506703732  0.5906096222841271  1.0000
  O   O9        1.0  0.6722515003038579  0.40190449636056497  0.08977405345253689  1.0000
  O   O10       1.0  0.41710653145134546  0.4051672835856193  0.08264677820299228  1.0000
  O   O11       1.0  0.31818795280193507  0.607178369606032  0.08696192430228679  1.0000
  O   O12       1.0  0.5730339382478958  0.6047483496086128  0.0775710234040616  1.0000
  O   O13       1.0  0.4197038422726961  0.6030745077694987  0.9226216664350345  1.0000
  O   O14       1.0  0.6744108197557636  0.5947715612512142  0.912622179784492  1.0000
  O   O15       1.0  0.5753932645881575  0.39864124351004904  0.9272723574428028  1.0000
  O   O16       1.0  0.32194980117228766  0.4063732902177578  0.9152675970751716  1.0000
  O   O17       1.0  0.864801414610376  0.7550963898578615  0.32364900951793624  1.0000
  O   O18       1.0  0.8331533199980253  0.8947029086195358  0.25435085407457336  1.0000
  O   O19       1.0  0.8935521136956834  0.12783420565060769  0.6854927428118742  1.0000
  O   O20       1.0  0.9033002452646027  0.18526041637756657  0.8074733653679826  1.0000
  O   O21       1.0  0.8544965249436415  0.09724223428724339  0.3156967910747568  1.0000
  O   O22       1.0  0.8443585266916428  0.24321179205062293  0.3753198830292702  1.0000
  O   O23       1.0  0.14281587837869128  0.7564090044431424  0.6398809736328133  1.0000
  O   O24       1.0  0.10888831124905345  0.8495498361794416  0.7480642137364057  1.0000
