data_image0
_chemical_formula_structural       Ag4H24C32N4O8
_chemical_formula_sum              "Ag4 H24 C32 N4 O8"
_cell_length_a       6.8170755112698185
_cell_length_b       9.699080705265098
_cell_length_c       11.499382079984263
_cell_angle_alpha    90.00032170665808
_cell_angle_beta     89.99706208626442
_cell_angle_gamma    107.9485044784781

_space_group_name_H-M_alt    "P 1"
_space_group_IT_number       1

loop_
  _space_group_symop_operation_xyz
  'x, y, z'

loop_
  _atom_site_type_symbol
  _atom_site_label
  _atom_site_symmetry_multiplicity
  _atom_site_fract_x
  _atom_site_fract_y
  _atom_site_fract_z
  _atom_site_occupancy
  Ag  Ag1       1.0  0.5103513442644996  0.20314241083377035  0.8230717774730677  1.0000
  Ag  Ag2       1.0  0.9896692331561354  0.7968726713427049  0.3230651795592436  1.0000
  Ag  Ag3       1.0  0.48965807238878517  0.7968527509825238  0.17693271844044034  1.0000
  Ag  Ag4       1.0  0.010330020483550653  0.20313238137963915  0.6769271419647112  1.0000
  H   H1        1.0  0.666312204910092  0.458078500093528  0.9913808162148641  1.0000
  H   H2        1.0  0.8337279071168454  0.5419502894757003  0.4913785759533909  1.0000
  H   H3        1.0  0.3336850319819292  0.5419156881981736  0.0086236798805785  1.0000
  H   H4        1.0  0.16627426798076791  0.4580547357016656  0.5086146151382351  1.0000
  H   H5        1.0  0.6619371415673142  0.5069742830970014  0.2029647238389245  1.0000
  H   H6        1.0  0.8380901631946288  0.4930359421778619  0.7029610650585029  1.0000
  H   H7        1.0  0.33806250254019693  0.4930155291684388  0.797038902597592  1.0000
  H   H8        1.0  0.16190470811687885  0.5069691518412828  0.2970329957557425  1.0000
  H   H9        1.0  0.3405874689752721  0.05064178253431352  0.2512475999668879  1.0000
  H   H10       1.0  0.1594216635944152  0.9493714620734724  0.7512437247920829  1.0000
  H   H11       1.0  0.6594024847664741  0.9493557394231903  0.7487560266348581  1.0000
  H   H12       1.0  0.8405853873168853  0.05063460544663912  0.2487538142880084  1.0000
  H   H13       1.0  0.3390131129540491  0.023926470747078103  0.0382326351892743  1.0000
  H   H14       1.0  0.1610085744862958  0.9761027953626426  0.5382305804624892  1.0000
  H   H15       1.0  0.660976346938881  0.9760699675177237  0.9617727306412148  1.0000
  H   H16       1.0  0.838997488888836  0.023901104795690707  0.4617669586273081  1.0000
  H   H17       1.0  0.5326395928666158  0.419877605091614  0.4000092313578776  1.0000
  H   H18       1.0  0.9673678961551317  0.5801201630928151  0.8999959935606938  1.0000
  H   H19       1.0  0.46737079080810434  0.5801164592801558  0.599994394926405  1.0000
  H   H20       1.0  0.03262841535043047  0.4198816523445857  0.0999980672238436  1.0000
  H   H21       1.0  0.4739631143537864  0.09253683432195461  0.4291448073024213  1.0000
  H   H22       1.0  0.026041126649822492  0.9074640893184951  0.9291360697532626  1.0000
  H   H23       1.0  0.5260419200116857  0.9074583687970448  0.5708605582894393  1.0000
  H   H24       1.0  0.9739629617337259  0.09253547612809851  0.0708597301320637  1.0000
  C   C1        1.0  0.5909899517587505  0.37139980563533476  0.05153733330980971  1.0000
  C   C2        1.0  0.9090417420638985  0.6286234510410581  0.5515287038736076  1.0000
  C   C3        1.0  0.4089980269510392  0.6285933816045173  0.9484654236994103  1.0000
  C   C4        1.0  0.09096483583625316  0.3713847976398982  0.44846448715918547  1.0000
  C   C5        1.0  0.5901522525847298  0.39754212713446446  0.1704081441594809  1.0000
  C   C6        1.0  0.9098751946866414  0.60247509757194  0.6703976239506204  1.0000
  C   C7        1.0  0.4098391412299663  0.6024521162235816  0.8295980912483927  1.0000
  C   C8        1.0  0.09012648652178974  0.39752884390681953  0.3295981759816939  1.0000
  C   C9        1.0  0.5048137000188219  0.28226089162917134  0.2473967719922001  1.0000
  C   C10       1.0  0.9952095209165893  0.7177552597671026  0.7473894438500609  1.0000
  C   C11       1.0  0.4951908611740309  0.7177364926270472  0.75260772400015  1.0000
  C   C12       1.0  0.004789259227536069  0.2822519740452166  0.2526089649699301  1.0000
  C   C13       1.0  0.4148028909688933  0.14485195880595114  0.1977003491090983  1.0000
  C   C14       1.0  0.08521610941772215  0.8551663203094793  0.6976991342415105  1.0000
  C   C15       1.0  0.5851880297135568  0.8551444656952186  0.8023041470873126  1.0000
  C   C16       1.0  0.9147879995612913  0.14483650995521918  0.302295796039445  1.0000
  C   C17       1.0  0.41418658897143246  0.12860652191356087  0.0780504118547469  1.0000
  C   C18       1.0  0.08583572249676064  0.8714123676228527  0.5780449086832888  1.0000
  C   C19       1.0  0.585802850447138  0.8713866515508502  0.9219532147442848  1.0000
  C   C20       1.0  0.9141713285760106  0.12859369992087727  0.4219491519490219  1.0000
  C   C21       1.0  0.509854440591333  0.30806914103804683  0.3726304436857292  1.0000
  C   C22       1.0  0.9901659176392671  0.6919452266118927  0.8726318396019225  1.0000
  C   C23       1.0  0.49014915362045747  0.691929340668601  0.6273740523238942  1.0000
  C   C24       1.0  0.009838170703915267  0.30805433882879646  0.1273648298953489  1.0000
  C   C25       1.0  0.48952153921518965  0.20432855062625782  0.45365746330975304  1.0000
  C   C26       1.0  0.01048083768574074  0.795660064504965  0.9536460478541783  1.0000
  C   C27       1.0  0.5104830219372972  0.7956688336240563  0.546347902294535  1.0000
  C   C28       1.0  0.9895174282966865  0.20434282083788705  0.0463488825153178  1.0000
  C   C29       1.0  0.4948298885444443  0.2366098629800747  0.5802242616943687  1.0000
  C   C30       1.0  0.005148830996006522  0.7634006993978845  0.0802130319186816  1.0000
  C   C31       1.0  0.5051761537104442  0.763390772283373  0.41978545195507877  1.0000
  C   C32       1.0  0.9948455465877899  0.2366033109462791  0.9197801592884788  1.0000
  N   N1        1.0  0.5031624042071101  0.2393172627550371  0.0047862659084785  1.0000
  N   N2        1.0  0.996869226869386  0.7607034053940683  0.5047851823522223  1.0000
  N   N3        1.0  0.4968338450276449  0.7606747581571726  0.9952208390325127  1.0000
  N   N4        1.0  0.0031324543390454387  0.23930053608469143  0.4952106175800921  1.0000
  O   O1        1.0  0.470340666781226  0.3518557107348316  0.6179843307152026  1.0000
  O   O2        1.0  0.029632015831261186  0.6481391257914455  0.11798919561652352  1.0000
  O   O3        1.0  0.5296546361890364  0.6481406724636258  0.3820192958028628  1.0000
  O   O4        1.0  0.970357485212226  0.35186384210366145  0.8820153006171694  1.0000
  O   O5        1.0  0.5232565144202397  0.13581732967723784  0.6468993447819855  1.0000
  O   O6        1.0  0.9767321321766218  0.864187540643478  0.1468899845300271  1.0000
  O   O7        1.0  0.47674901379404855  0.8641789571344634  0.3531042815811318  1.0000
  O   O8        1.0  0.023256402491320226  0.13581652479064846  0.8531014675417765  1.0000
