data_image0
_chemical_formula_structural       Dy4H32C24O40
_chemical_formula_sum              "Dy4 H32 C24 O40"
_cell_length_a       10.424870335378849
_cell_length_b       10.753240319831198
_cell_length_c       10.753242756115137
_cell_angle_alpha    70.63730714174191
_cell_angle_beta     61.00501016629218
_cell_angle_gamma    61.00503460576218

_space_group_name_H-M_alt    "P 1"
_space_group_IT_number       1

loop_
  _space_group_symop_operation_xyz
  'x, y, z'

loop_
  _atom_site_type_symbol
  _atom_site_label
  _atom_site_symmetry_multiplicity
  _atom_site_fract_x
  _atom_site_fract_y
  _atom_site_fract_z
  _atom_site_occupancy
  Dy  Dy1       1.0  0.8517356682684821  0.12009874190282221  0.3815551931960428  1.0000
  Dy  Dy2       1.0  0.3533897422789778  0.8799012119540421  0.6184438178170028  1.0000
  Dy  Dy3       1.0  0.3517360795798156  0.3815552091830767  0.12009843678309552  1.0000
  Dy  Dy4       1.0  0.8533888625262808  0.6184446097652269  0.8799016460179132  1.0000
  H   H1        1.0  0.7938391292706228  0.7654147224716824  0.11516608803477621  1.0000
  H   H2        1.0  0.6744199370621119  0.234585606817646  0.8848339887923872  1.0000
  H   H3        1.0  0.29383948902076185  0.11516542592289622  0.7654136177963692  1.0000
  H   H4        1.0  0.1744190948793828  0.8848337138007736  0.23458540971338948  1.0000
  H   H5        1.0  0.08178189737326139  0.3147370151462495  0.16961862314606438  1.0000
  H   H6        1.0  0.5661359095010428  0.6852643754952796  0.8303814713038874  1.0000
  H   H7        1.0  0.581782199291105  0.16961850096899408  0.3147362102373421  1.0000
  H   H8        1.0  0.06613642667724644  0.8303815785663745  0.6852628129704428  1.0000
  H   H9        1.0  0.8275983173561559  0.00274195395140692  0.17024330249177672  1.0000
  H   H10       1.0  0.0005830978272313926  0.9972583067316448  0.8297567884241773  1.0000
  H   H11       1.0  0.3275988766426822  0.17024342218621769  0.0027426128446919  1.0000
  H   H12       1.0  0.5005840492305041  0.8297564260651457  0.9972574782269061  1.0000
  H   H13       1.0  0.9389972452166407  0.21772150049242373  0.5531098721611798  1.0000
  H   H14       1.0  0.7098288379183514  0.7822772329247771  0.4468902013011871  1.0000
  H   H15       1.0  0.4389972680875546  0.5531096961537685  0.21772143939548985  1.0000
  H   H16       1.0  0.20982914199926492  0.4468903272955557  0.7822775838135173  1.0000
  H   H17       1.0  0.09777298375962566  0.11949462105116027  0.4460740070563888  1.0000
  H   H18       1.0  0.6633419557933918  0.8805051251562048  0.5539250137902201  1.0000
  H   H19       1.0  0.5977730985112758  0.4460734748016861  0.11949534063462859  1.0000
  H   H20       1.0  0.16334241484882026  0.5539255891568544  0.880505823943544  1.0000
  H   H21       1.0  0.7111436519246797  0.6297425932715228  0.30952536718029927  1.0000
  H   H22       1.0  0.6504119367665453  0.37025932777417836  0.6904736396533621  1.0000
  H   H23       1.0  0.2111446255461401  0.3095261020213229  0.629740872817031  1.0000
  H   H24       1.0  0.15041198519082136  0.6904730179866764  0.3702592287815065  1.0000
  H   H25       1.0  0.9277038666391846  0.4340178426188856  0.37013094723229756  1.0000
  H   H26       1.0  0.7318536974949339  0.5659818917296989  0.6298691256164873  1.0000
  H   H27       1.0  0.4277036814772258  0.37013048008684274  0.4340177390300468  1.0000
  H   H28       1.0  0.23185304957161185  0.629869510710819  0.5659812839555372  1.0000
  H   H29       1.0  0.945520768110498  0.1507343219276649  0.9631002927180389  1.0000
  H   H30       1.0  0.05935421789179442  0.8492681944849563  0.036898721727382594  1.0000
  H   H31       1.0  0.4455214868244114  0.9631004830146851  0.15073316489923627  1.0000
  H   H32       1.0  0.5593544236376573  0.03689990513437642  0.8492679938235526  1.0000
  C   C1        1.0  0.7755442801292178  0.45854027466067765  0.20605268759281611  1.0000
  C   C2        1.0  0.4401369787076134  0.5414606943493823  0.7939463228051408  1.0000
  C   C3        1.0  0.27554424871210165  0.206053702786356  0.458539928242473  1.0000
  C   C4        1.0  0.9401366532605664  0.7939475131980912  0.5414612255363309  1.0000
  C   C5        1.0  0.8152929467056822  0.5697225245075757  0.2221918061103736  1.0000
  C   C6        1.0  0.6072075332142219  0.4302768062594707  0.7778082720990297  1.0000
  C   C7        1.0  0.31529296055224876  0.22219218264333307  0.5697222658374484  1.0000
  C   C8        1.0  0.1072070272254352  0.7778097492619978  0.4302778333607691  1.0000
  C   C9        1.0  0.9596960004394433  0.49646195500801593  0.263309853279722  1.0000
  C   C10       1.0  0.719468414903176  0.5035392216446511  0.736691290330917  1.0000
  C   C11       1.0  0.4596975779718234  0.26330903011495366  0.4964610189920933  1.0000
  C   C12       1.0  0.2194678656280118  0.736690544540366  0.5035390754567856  1.0000
  C   C13       1.0  0.003945256085643132  0.60953849855116  0.2718764565341729  1.0000
  C   C14       1.0  0.8853594653402939  0.3904601606657467  0.7281257771174126  1.0000
  C   C15       1.0  0.5039460797174513  0.27187511836955736  0.6095389023225336  1.0000
  C   C16       1.0  0.3853607448397796  0.7281260432878867  0.3904590434363229  1.0000
  C   C17       1.0  0.10008828551292483  0.136416270363874  0.04594960363385069  1.0000
  C   C18       1.0  0.2824541073618717  0.8635834731959308  0.9540504972682556  1.0000
  C   C19       1.0  0.6000883438922672  0.045949532727590246  0.13641583871653043  1.0000
  C   C20       1.0  0.7824548882792755  0.9540511534234851  0.8635831681221334  1.0000
  C   C21       1.0  0.0049162138377525  0.0707650404662061  0.0346268344297442  1.0000
  C   C22       1.0  0.11030869263148431  0.9292350353417834  0.9653743439571159  1.0000
  C   C23       1.0  0.5049164656068755  0.03462458094498536  0.07076657668523718  1.0000
  C   C24       1.0  0.6103076516806425  0.965375268962667  0.9292345798162956  1.0000
  O   O1        1.0  0.7495037151384382  0.3652054113901784  0.3120066169195823  1.0000
  O   O2        1.0  0.4267147787825677  0.6347934542004694  0.6879945386134096  1.0000
  O   O3        1.0  0.24950405661382305  0.3120056740192751  0.36520522815692397  1.0000
  O   O4        1.0  0.9267147941713458  0.687992944596985  0.6347937839952138  1.0000
  O   O5        1.0  0.7743579618077023  0.46425949519326093  0.08588737295319498  1.0000
  O   O6        1.0  0.32450409201534575  0.5357408680050213  0.9141127119770472  1.0000
  O   O7        1.0  0.2743577377025801  0.0858873315426507  0.46425906151617374  1.0000
  O   O8        1.0  0.8245029170078697  0.9141138259702755  0.5357420948513152  1.0000
  O   O9        1.0  0.8436523195473244  0.6653586723667858  0.0917231669908318  1.0000
  O   O10       1.0  0.6007338322368058  0.3346409433352306  0.9082758388931538  1.0000
  O   O11       1.0  0.3436517706492097  0.09172298926304023  0.665358665531066  1.0000
  O   O12       1.0  0.10073261116692572  0.9082766130709102  0.33464143406564517  1.0000
  O   O13       1.0  0.0964123234919896  0.40307264747069377  0.1616190587412873  1.0000
  O   O14       1.0  0.6611031908651839  0.5969274424636877  0.8383799620546597  1.0000
  O   O15       1.0  0.5964116415091142  0.16161974413482483  0.4030717951831165  1.0000
  O   O16       1.0  0.16110340440670978  0.8383802108909819  0.596928297400801  1.0000
  O   O17       1.0  0.15114621672740472  0.5902754117328114  0.20989981306125569  1.0000
  O   O18       1.0  0.9513209543979997  0.4097244040264486  0.7901002719964154  1.0000
  O   O19       1.0  0.6511449076234966  0.20990029264646648  0.5902753121902792  1.0000
  O   O20       1.0  0.4513207528121015  0.7900999355444753  0.4097247727117476  1.0000
  O   O21       1.0  0.894545370105668  0.7138436688162739  0.33820652557172787  1.0000
  O   O22       1.0  0.9465968815304676  0.2861570831648451  0.6617924711663861  1.0000
  O   O23       1.0  0.39454684187403205  0.33820602123896754  0.7138431808116225  1.0000
  O   O24       1.0  0.4465960811551567  0.6617933757191851  0.2861569101455856  1.0000
  O   O25       1.0  0.8886175238124994  0.05043292278038787  0.1738488428552643  1.0000
  O   O26       1.0  0.1128999958507323  0.9495677561164442  0.8261512440945394  1.0000
  O   O27       1.0  0.38861648775958463  0.1738491072861521  0.050433548399972494  1.0000
  O   O28       1.0  0.6128990527724908  0.8261518491338007  0.9495676101821502  1.0000
  O   O29       1.0  0.05158650802548688  0.17510095516633584  0.16652149501342708  1.0000
  O   O30       1.0  0.39321035948069005  0.8248983712468886  0.8334775329413374  1.0000
  O   O31       1.0  0.5515871056480891  0.16652035839916826  0.17510076253996232  1.0000
  O   O32       1.0  0.8932086220236855  0.833480188128448  0.8248982429836786  1.0000
  O   O33       1.0  0.22014520325643624  0.1500352080310421  0.9375096357125942  1.0000
  O   O34       1.0  0.30769096073342445  0.8499649145888455  0.06248939011721429  1.0000
  O   O35       1.0  0.7201450520507323  0.9375096704350627  0.15003547180695162  1.0000
  O   O36       1.0  0.8076898543160524  0.06249009137591336  0.8499646039254998  1.0000
  O   O37       1.0  0.9811184733953978  0.16327354714392328  0.472352531127207  1.0000
  O   O38       1.0  0.6167456730871665  0.8367265384541013  0.5276464712074116  1.0000
  O   O39       1.0  0.48111966799348943  0.4723526733483041  0.16327338385698908  1.0000
  O   O40       1.0  0.1167446876522361  0.527647121358541  0.8367256405580292  1.0000
