data_image0
_chemical_formula_structural       Bi2H16C20Br6N4
_chemical_formula_sum              "Bi2 H16 C20 Br6 N4"
_cell_length_a       7.266440804802225
_cell_length_b       10.142338667610444
_cell_length_c       10.302936555176428
_cell_angle_alpha    117.00037448652701
_cell_angle_beta     91.02211920900176
_cell_angle_gamma    92.90874104868804

_space_group_name_H-M_alt    "P 1"
_space_group_IT_number       1

loop_
  _space_group_symop_operation_xyz
  'x, y, z'

loop_
  _atom_site_type_symbol
  _atom_site_label
  _atom_site_symmetry_multiplicity
  _atom_site_fract_x
  _atom_site_fract_y
  _atom_site_fract_z
  _atom_site_occupancy
  Bi  Bi1       1.0  0.9554005304806167  0.3977205708113658  0.2602931528481562  1.0000
  Bi  Bi2       1.0  0.0446109486869659  0.6022676114036685  0.7396585405682785  1.0000
  H   H1        1.0  0.6007434997044641  0.7348678716730888  0.32839292838401957  1.0000
  H   H2        1.0  0.3992583537200786  0.2651436869168151  0.6716264741410358  1.0000
  H   H3        1.0  0.3206643108287039  0.020679896992568603  0.14196921192849035  1.0000
  H   H4        1.0  0.6793410571432544  0.9793438491838061  0.8580543464499332  1.0000
  H   H5        1.0  0.535230912319122  0.215466985308332  0.13936429249960722  1.0000
  H   H6        1.0  0.46477977327730713  0.784555979060883  0.860664904363965  1.0000
  H   H7        1.0  0.1258228573423423  0.923996470858015  0.23306724730851883  1.0000
  H   H8        1.0  0.8741808994928135  0.0759944847263014  0.7669271701395389  1.0000
  H   H9        1.0  0.7300625721939583  0.9545958818053462  0.41482474180887147  1.0000
  H   H10       1.0  0.26994995393061316  0.0454066027142588  0.5851824335675603  1.0000
  H   H11       1.0  0.9342096684284086  0.7128406731649548  0.22827248608249567  1.0000
  H   H12       1.0  0.06579146716159559  0.2871462614346356  0.7717046604895048  1.0000
  H   H13       1.0  0.9295304981320173  0.1531108487462731  0.39915181123181753  1.0000
  H   H14       1.0  0.0704736783835926  0.8468916800689001  0.6008590588921551  1.0000
  H   H15       1.0  0.38905477731101007  0.5366934831039386  0.325967354089869  1.0000
  H   H16       1.0  0.6109522802247652  0.46330883937009293  0.6740376744229195  1.0000
  C   C1        1.0  0.4538467637419147  0.7386915025682654  0.3097720617084505  1.0000
  C   C2        1.0  0.5461532546914825  0.26130977612604056  0.6902362445045044  1.0000
  C   C3        1.0  0.5060678908596614  0.9683767340795557  0.27890784625584797  1.0000
  C   C4        1.0  0.4939314882774966  0.0316367132970186  0.7211054753209681  1.0000
  C   C5        1.0  0.45354843390342137  0.044763932117390895  0.20147019017591114  1.0000
  C   C6        1.0  0.5464647090261465  0.9552522185984812  0.7985513939498646  1.0000
  C   C7        1.0  0.3827657707104563  0.8504631610797873  0.2833841176749559  1.0000
  C   C8        1.0  0.6172374266651843  0.1495447648974988  0.7166260452331346  1.0000
  C   C9        1.0  0.573840145416881  0.15432336981285738  0.19862348382663703  1.0000
  C   C10       1.0  0.42616302275281004  0.84568833191841  0.8013989250725475  1.0000
  C   C11       1.0  0.19126315660307106  0.8427851262082767  0.2568975427814308  1.0000
  C   C12       1.0  0.808738847553805  0.1572211790990323  0.7431002631513055  1.0000
  C   C13       1.0  0.6814398335440474  0.007617334952982408  0.3506121180594804  1.0000
  C   C14       1.0  0.3185670605437068  0.992386547153629  0.6494042367811093  1.0000
  C   C15       1.0  0.08209966784018259  0.7256009472455177  0.25507532739715805  1.0000
  C   C16       1.0  0.9178965069233415  0.27439846554806024  0.7449155969554796  1.0000
  C   C17       1.0  0.7936642041312681  0.11837758286626607  0.34286851677574504  1.0000
  C   C18       1.0  0.20634839759146215  0.8816284721473622  0.6571459652753475  1.0000
  C   C19       1.0  0.33587770412125917  0.6253698093918275  0.30707059073399995  1.0000
  C   C20       1.0  0.6641199909890715  0.3746343019418815  0.6929281429092172  1.0000
  Br  Br1       1.0  0.775671732956262  0.6291419392494857  0.5234020448720076  1.0000
  Br  Br2       1.0  0.2243014109706749  0.3708072696367283  0.4765403449521062  1.0000
  Br  Br3       1.0  0.701959988559878  0.4409162753466519  0.08942035335916645  1.0000
  Br  Br4       1.0  0.29796983527825915  0.5590580671098238  0.9105643710163919  1.0000
  Br  Br5       1.0  0.1489907534207262  0.20581353881745904  0.031884865230828986  1.0000
  Br  Br6       1.0  0.8510163388579955  0.7941542481573691  0.9680747994916319  1.0000
  N   N1        1.0  0.7409959606252059  0.1906263271147992  0.267829752208833  1.0000
  N   N2        1.0  0.25901294862398316  0.8093850029861684  0.7321819613312642  1.0000
  N   N3        1.0  0.15325493302524507  0.6187071057373075  0.2798158435989464  1.0000
  N   N4        1.0  0.8467466599283  0.3812900887724879  0.7201723565008891  1.0000
