data_image0
_chemical_formula_structural       K4H24C32O12
_chemical_formula_sum              "K4 H24 C32 O12"
_cell_length_a       3.996774286019136
_cell_length_b       11.281269584157831
_cell_length_c       18.16928611510875
_cell_angle_alpha    106.66494537035693
_cell_angle_beta     90.00021326848037
_cell_angle_gamma    90.0002050320567

_space_group_name_H-M_alt    "P 1"
_space_group_IT_number       1

loop_
  _space_group_symop_operation_xyz
  'x, y, z'

loop_
  _atom_site_type_symbol
  _atom_site_label
  _atom_site_symmetry_multiplicity
  _atom_site_fract_x
  _atom_site_fract_y
  _atom_site_fract_z
  _atom_site_occupancy
  K   K1        1.0  0.6948148689448674  0.8515760438418524  0.939344698596855  1.0000
  K   K2        1.0  0.19483339003134154  0.6484212008272292  0.06065882500712408  1.0000
  K   K3        1.0  0.30516984703280053  0.14842263550438162  0.0606625439662594  1.0000
  K   K4        1.0  0.8051738440017077  0.35157480681850467  0.9393374750476366  1.0000
  H   H1        1.0  0.7125400047161892  0.7469990942099682  0.19681261589909832  1.0000
  H   H2        1.0  0.2125443309045779  0.7530010020703128  0.8031870371206364  1.0000
  H   H3        1.0  0.28746722937267327  0.2530005761749337  0.8031882019578375  1.0000
  H   H4        1.0  0.7874604011953326  0.24700236392432362  0.19681500217203043  1.0000
  H   H5        1.0  0.9081788513939842  0.748403319833656  0.32650706155050807  1.0000
  H   H6        1.0  0.4081885260435386  0.7515989744430414  0.6734937036511468  1.0000
  H   H7        1.0  0.09182087665686822  0.2515972648595691  0.6734950231011607  1.0000
  H   H8        1.0  0.5918112020301296  0.2484071783228003  0.3265077408825618  1.0000
  H   H9        1.0  0.3101761828552868  0.11504386925161468  0.3594362407124905  1.0000
  H   H10       1.0  0.8101730769521611  0.38495451832641686  0.640562853322507  1.0000
  H   H11       1.0  0.6898310512034128  0.8849539725031124  0.640562043546275  1.0000
  H   H12       1.0  0.18981914502006708  0.6150470299843676  0.359435553576418  1.0000
  H   H13       1.0  0.10914799545017223  0.11282916207130708  0.23088969113754837  1.0000
  H   H14       1.0  0.6091495384029456  0.38717256943336037  0.7691092925391202  1.0000
  H   H15       1.0  0.8908542345927304  0.8871695885151851  0.7691104093115654  1.0000
  H   H16       1.0  0.39085269166430703  0.6128326799772523  0.23088978640862473  1.0000
  H   H17       1.0  0.2716661428434222  0.10375876410586216  0.48932908272983155  1.0000
  H   H18       1.0  0.7716685101865225  0.39624049023677793  0.5106690358941393  1.0000
  H   H19       1.0  0.7283310831505434  0.8962400029125348  0.5106693695338932  1.0000
  H   H20       1.0  0.22833121781457075  0.6037573569899733  0.4893286989661121  1.0000
  H   H21       1.0  0.6395470617451623  0.0455865870574215  0.4339327606692152  1.0000
  H   H22       1.0  0.13955450620088078  0.45441241799441917  0.5660663036080392  1.0000
  H   H23       1.0  0.3604476622506994  0.9544130887950004  0.5660675077863075  1.0000
  H   H24       1.0  0.8604477238406006  0.5455881995738847  0.43393248468009193  1.0000
  C   C1        1.0  0.7830621738834512  0.924711197350234  0.12437225195647979  1.0000
  C   C2        1.0  0.28305089130434885  0.5752871865474701  0.8756260479859532  1.0000
  C   C3        1.0  0.21694005614720174  0.07528290495753959  0.8756292060155244  1.0000
  C   C4        1.0  0.7169363266612266  0.4247180573707964  0.12437358034725314  1.0000
  C   C5        1.0  0.8977278283915171  0.9297024018621938  0.20426877996499823  1.0000
  C   C6        1.0  0.3977251830778528  0.5702971086896509  0.7957303702952457  1.0000
  C   C7        1.0  0.1022819077195578  0.07029726304615737  0.7957325872875599  1.0000
  C   C8        1.0  0.602274544953403  0.4297025671672898  0.20426989816317587  1.0000
  C   C9        1.0  0.8430934909539406  0.8278305756124877  0.23272898900545866  1.0000
  C   C10       1.0  0.34310391368688203  0.6721706924170902  0.7672698845635536  1.0000
  C   C11       1.0  0.1569062370652006  0.17216724969904354  0.7672709434314554  1.0000
  C   C12       1.0  0.6568958143701596  0.32783361528215244  0.23273067455447455  1.0000
  C   C13       1.0  0.9548216865180879  0.8275537211381799  0.30493163132280887  1.0000
  C   C14       1.0  0.45483342076055794  0.672444047355178  0.6950666997070412  1.0000
  C   C15       1.0  0.04518054351424181  0.1724441096544211  0.6950677517213889  1.0000
  C   C16       1.0  0.5451788173622847  0.32755749001605483  0.3049328059918111  1.0000
  C   C17       1.0  0.1301250218368893  0.9301056247807791  0.35059654822860853  1.0000
  C   C18       1.0  0.6301288898278301  0.5698952590559258  0.649402078486858  1.0000
  C   C19       1.0  0.8698772081924775  0.06989314224212959  0.6494019040380152  1.0000
  C   C20       1.0  0.36987584227220804  0.4301109046720342  0.350598267261418  1.0000
  C   C21       1.0  0.17943505017959893  0.0339658326321128  0.3242621543787791  1.0000
  C   C22       1.0  0.6794408500607719  0.4660323136231455  0.6757373375147324  1.0000
  C   C23       1.0  0.8205596738162628  0.9660338432203089  0.6757381140767436  1.0000
  C   C24       1.0  0.3205638820089761  0.5339692237413161  0.32426216817977144  1.0000
  C   C25       1.0  0.06455680110091322  0.0325669625533394  0.2514816898262495  1.0000
  C   C26       1.0  0.5645488058334821  0.46743376322921637  0.7485170741489071  1.0000
  C   C27       1.0  0.9354504329728716  0.9674317935164678  0.7485178612316046  1.0000
  C   C28       1.0  0.43543841211546663  0.5325696356224512  0.25148166876862627  1.0000
  C   C29       1.0  0.43263285478987273  0.021900998819425904  0.4671182969763875  1.0000
  C   C30       1.0  0.9326364154965321  0.47809760967177084  0.5328809390008472  1.0000
  C   C31       1.0  0.5673643712131169  0.9780977572413645  0.5328812540756613  1.0000
  C   C32       1.0  0.06736081050194542  0.5219011518678157  0.46711806265704325  1.0000
  O   O1        1.0  0.8111600934439808  0.021606105238298295  0.10196105885295739  1.0000
  O   O2        1.0  0.3111707643790638  0.47839135337558497  0.89803841771387  1.0000
  O   O3        1.0  0.18883963460687886  0.9783944794549198  0.8980410257987116  1.0000
  O   O4        1.0  0.6888439757417545  0.5216064774282926  0.10196096533757525  1.0000
  O   O5        1.0  0.667983507869238  0.8218373486717212  0.08264816253699789  1.0000
  O   O6        1.0  0.1679589411443629  0.6781552650226813  0.9173500947349423  1.0000
  O   O7        1.0  0.3320212242170087  0.17816323602601605  0.9173539221175772  1.0000
  O   O8        1.0  0.8320132646437489  0.3218370086278313  0.08264882962149035  1.0000
  O   O9        1.0  0.2430641243498998  0.9206625572443059  0.41997292148663934  1.0000
  O   O10       1.0  0.7430719451145151  0.5793366797883832  0.5800255001162639  1.0000
  O   O11       1.0  0.7569305996353891  0.07933619881422518  0.5800266295639673  1.0000
  O   O12       1.0  0.25692528087802924  0.42066395421183234  0.4199716399864783  1.0000
