data_image0
_chemical_formula_structural       Tl2H16Au2C44N4F20
_chemical_formula_sum              "Tl2 H16 Au2 C44 N4 F20"
_cell_length_a       7.706364871948213
_cell_length_b       11.56236609815726
_cell_length_c       12.85920879664964
_cell_angle_alpha    105.35840387229314
_cell_angle_beta     105.22039067375955
_cell_angle_gamma    89.70744737263388

_space_group_name_H-M_alt    "P 1"
_space_group_IT_number       1

loop_
  _space_group_symop_operation_xyz
  'x, y, z'

loop_
  _atom_site_type_symbol
  _atom_site_label
  _atom_site_symmetry_multiplicity
  _atom_site_fract_x
  _atom_site_fract_y
  _atom_site_fract_z
  _atom_site_occupancy
  Tl  Tl1       1.0  0.2136244463221075  0.8029687746215403  0.7084328840846297  1.0000
  Tl  Tl2       1.0  0.7863761651089759  0.19703200387522196  0.29156681855157257  1.0000
  H   H1        1.0  0.8864793147222014  0.594691631882128  0.7114392179717939  1.0000
  H   H2        1.0  0.11352254296485137  0.40530824074298977  0.288559690681751  1.0000
  H   H3        1.0  0.7985023190017345  0.4693535599107366  0.8184712582809082  1.0000
  H   H4        1.0  0.2014958093642178  0.5306490254600931  0.1815276996997497  1.0000
  H   H5        1.0  0.7332015263924985  0.36937932598448225  0.908275014785012  1.0000
  H   H6        1.0  0.2668007452465914  0.6306241379576604  0.09172247573424384  1.0000
  H   H7        1.0  0.6658703222573407  0.2505575218944855  0.02781714144152398  1.0000
  H   H8        1.0  0.33413175657593525  0.7494441390853196  0.972177559213591  1.0000
  H   H9        1.0  0.6123636986526293  0.7458776119817827  0.9555083927509428  1.0000
  H   H10       1.0  0.38763929471728176  0.2541204605943435  0.04449182591915247  1.0000
  H   H11       1.0  0.9274606222075618  0.8207393393494231  0.04384068137802193  1.0000
  H   H12       1.0  0.07254217205866098  0.1792569335105085  0.9561583025085053  1.0000
  H   H13       1.0  0.8170953911915999  0.1107534752685098  0.8853328167915461  1.0000
  H   H14       1.0  0.18290624849816337  0.889244607378842  0.11466952232014187  1.0000
  H   H15       1.0  0.5027280614202566  0.028667443225430096  0.8119862528349627  1.0000
  H   H16       1.0  0.4972738784994988  0.9713333381846707  0.1880175496819375  1.0000
  Au  Au1       1.0  0.5874736553319763  0.4042409771869729  0.4072354545037341  1.0000
  Au  Au2       1.0  0.41252416020824256  0.5957589159133931  0.592765150232857  1.0000
  C   C1        1.0  0.6969394108439317  0.5271969103491969  0.3482009045421889  1.0000
  C   C2        1.0  0.3030633928690989  0.47279935764152003  0.6517957467234863  1.0000
  C   C3        1.0  0.8371279501510286  0.6111373020497979  0.41616304035309765  1.0000
  C   C4        1.0  0.16287110219835194  0.38886169004814514  0.5838391030216883  1.0000
  C   C5        1.0  0.9082974985026695  0.6997138136263387  0.3806955296547158  1.0000
  C   C6        1.0  0.09170021276231209  0.3002851820505441  0.6193056240005176  1.0000
  C   C7        1.0  0.8398380915990912  0.7047444355625173  0.2705081904460797  1.0000
  C   C8        1.0  0.1601594268600763  0.2952527571520278  0.729490173345013  1.0000
  C   C9        1.0  0.7002704136227677  0.622197111586736  0.19884541516112347  1.0000
  C   C10       1.0  0.29972740506639167  0.3778027798905584  0.8011544120351813  1.0000
  C   C11       1.0  0.6331281686414699  0.5361765290943125  0.23904051115860628  1.0000
  C   C12       1.0  0.36686820153910554  0.46382247016151024  0.7609596527770747  1.0000
  C   C13       1.0  0.48867474640299235  0.2762085389973946  0.4653774108462441  1.0000
  C   C14       1.0  0.5113242079690181  0.7237895524309081  0.5346237263666181  1.0000
  C   C15       1.0  0.3438578013891557  0.1934995906225936  0.4031423351672386  1.0000
  C   C16       1.0  0.6561440468510966  0.8065002868717386  0.5968589061071581  1.0000
  C   C17       1.0  0.28270575925822067  0.1035530890511964  0.44158636732485224  1.0000
  C   C18       1.0  0.717294842726062  0.8964476943147801  0.558415667932202  1.0000
  C   C19       1.0  0.36716387079715673  0.0965737178738095  0.5495998882015839  1.0000
  C   C20       1.0  0.6328366300608151  0.9034261664456055  0.4504019184338333  1.0000
  C   C21       1.0  0.5108556579384994  0.17881746152718142  0.6158631147436181  1.0000
  C   C22       1.0  0.48914628827912304  0.8211833166367768  0.3841391326927022  1.0000
  C   C23       1.0  0.5680441767086392  0.26529404043651544  0.5725251824825575  1.0000
  C   C24       1.0  0.43195642842457715  0.7347067413063897  0.42747607523421743  1.0000
  C   C25       1.0  0.967472820182017  0.6005912823005204  0.7963558686736574  1.0000
  C   C26       1.0  0.03253048601362  0.39940948254607633  0.2036427032405115  1.0000
  C   C27       1.0  0.9186348928441743  0.529792445100064  0.8575475366006698  1.0000
  C   C28       1.0  0.0813630427159637  0.470208337308435  0.14244863151585457  1.0000
  C   C29       1.0  0.023726967127899522  0.5375433797959489  0.9666033973016324  1.0000
  C   C30       1.0  0.9762735494747402  0.4624564964081088  0.03339452163235987  1.0000
  C   C31       1.0  0.8235287263458702  0.3809126187601279  0.9915215024322916  1.0000
  C   C32       1.0  0.17647055974548204  0.6190881552002168  0.008473322782926063  1.0000
  C   C33       1.0  0.7842960164145152  0.31377053137870803  0.05856936522901169  1.0000
  C   C34       1.0  0.21570740035423336  0.6862311276452288  0.9414271026859423  1.0000
  C   C35       1.0  0.6606803261324785  0.8290655944254155  0.944524814104035  1.0000
  C   C36       1.0  0.33932400832183857  0.17093247457176367  0.055476394285619755  1.0000
  C   C37       1.0  0.8401169740811055  0.8715038864568638  0.9935365296970387  1.0000
  C   C38       1.0  0.15988716441846407  0.12849238120105613  0.0064626663687618845  1.0000
  C   C39       1.0  0.9046135334407878  0.9759919829653114  0.9754810640848318  1.0000
  C   C40       1.0  0.09539080416246289  0.024006084408803495  0.024519366764536695  1.0000
  C   C41       1.0  0.7788865958720094  0.0318177583099981  0.9072551943445362  1.0000
  C   C42       1.0  0.2211177322844335  0.9681803139333243  0.09274756912569161  1.0000
  C   C43       1.0  0.6008042439633527  0.9848421569726542  0.8644355476959831  1.0000
  C   C44       1.0  0.39919750315058167  0.015156821475116499  0.13556546495677677  1.0000
  N   N1        1.0  0.11392936194091156  0.6780899399728071  0.8372318161095151  1.0000
  N   N2        1.0  0.8860726094681936  0.3219108252065865  0.16276421100453575  1.0000
  N   N3        1.0  0.5403250352211159  0.8847197871784402  0.8816095279899513  1.0000
  N   N4        1.0  0.4596766044686476  0.11527829546891158  0.11839281112172975  1.0000
  F   F1        1.0  0.9094420115089363  0.6120301390433199  0.525896133200348  1.0000
  F   F2        1.0  0.0905571451156959  0.3879697504781063  0.474105461255803  1.0000
  F   F3        1.0  0.038277530754633915  0.783633675965888  0.4518406587582787  1.0000
  F   F4        1.0  0.9617201868082146  0.2163653164648522  0.5481589398163889  1.0000
  F   F5        1.0  0.9062873372833024  0.7899489550082704  0.23379420420570077  1.0000
  F   F6        1.0  0.0937040510223284  0.21005366611105103  0.7662083581203232  1.0000
  F   F7        1.0  0.6321243978013695  0.6278727148839067  0.0916575566703982  1.0000
  F   F8        1.0  0.36786689882475804  0.372129002319646  0.9083424444131296  1.0000
  F   F9        1.0  0.49564959623150867  0.4579335362744814  0.16419725006010563  1.0000
  F   F10       1.0  0.5043456382662084  0.5420672630303329  0.8358016038590249  1.0000
  F   F11       1.0  0.24888819254216799  0.1995400078293486  0.29881303558798317  1.0000
  F   F12       1.0  0.7511137505265211  0.800460771957688  0.7011899893886306  1.0000
  F   F13       1.0  0.1410618460210387  0.024903985979840098  0.3770852921783359  1.0000
  F   F14       1.0  0.8589375128562081  0.9750977016347021  0.6229167595210966  1.0000
  F   F15       1.0  0.307914812874408  0.012865260385574104  0.5909843082476769  1.0000
  F   F16       1.0  0.6920845491517724  0.987136425605904  0.4090169659114692  1.0000
  F   F17       1.0  0.5901167751786713  0.17480717334301232  0.7227472762265704  1.0000
  F   F18       1.0  0.40988506991264717  0.8251927057743913  0.27725474258811283  1.0000
  F   F19       1.0  0.7069949685183089  0.3445117262505518  0.6430578135679067  1.0000
  F   F20       1.0  0.29300697455037283  0.6554890535364849  0.35694521140870705  1.0000
