data_image0
_chemical_formula_structural       Cd4H36C40N8Cl4O12
_chemical_formula_sum              "Cd4 H36 C40 N8 Cl4 O12"
_cell_length_a       8.974332448
_cell_length_b       10.833962753486599
_cell_length_c       12.856
_cell_angle_alpha    93.15186860666789
_cell_angle_beta     90.0
_cell_angle_gamma    114.46736698733433

_space_group_name_H-M_alt    "P 1"
_space_group_IT_number       1

loop_
  _space_group_symop_operation_xyz
  'x, y, z'

loop_
  _atom_site_type_symbol
  _atom_site_label
  _atom_site_symmetry_multiplicity
  _atom_site_fract_x
  _atom_site_fract_y
  _atom_site_fract_z
  _atom_site_occupancy
  Cd  Cd1       1.0  0.7172851581767006  0.9998439966011858  0.24997807029708952  1.0000
  Cd  Cd2       1.0  0.2827148980150014  0.0001554398531525  0.7500219813757881  1.0000
  Cd  Cd3       1.0  0.1194086519065181  1.625514804e-05  0.2499820848539827  1.0000
  Cd  Cd4       1.0  0.8805891757071649  0.9999831813062912  0.7500171889719738  1.0000
  H   H1        1.0  0.1544297367351746  0.24727331201621178  0.6096706606856799  1.0000
  H   H2        1.0  0.9073791747596829  0.7529028991730797  0.8904130329715585  1.0000
  H   H3        1.0  0.845569106822829  0.7527281563316277  0.3903302629816281  1.0000
  H   H4        1.0  0.0926207830873267  0.24709856917476  0.1095847793080722  1.0000
  H   H5        1.0  0.7955900774498375  0.274978179960442  0.8088915119179421  1.0000
  H   H6        1.0  0.5208024310829912  0.7248231468771278  0.6910565787923844  1.0000
  H   H7        1.0  0.2044082581360058  0.725022272440647  0.19110858682869747  1.0000
  H   H8        1.0  0.4791983297702416  0.275173241736951  0.3089394424246379  1.0000
  H   H9        1.0  0.9375509883210782  0.5154009630236658  0.7073564531001041  1.0000
  H   H10       1.0  0.42252173056483844  0.48445624088530076  0.7926541208794973  1.0000
  H   H11       1.0  0.0624478552369254  0.484600505324174  0.2926452484141251  1.0000
  H   H12       1.0  0.5774794399158694  0.5155431955690375  0.20734437509954523  1.0000
  H   H13       1.0  0.1313897577273622  0.6753800662668681  0.642035708871646  1.0000
  H   H14       1.0  0.456323103006646  0.3246478166965403  0.8580317778545137  1.0000
  H   H15       1.0  0.8686102001196474  0.3246214020809717  0.3579659926425762  1.0000
  H   H16       1.0  0.5436801977073885  0.6753536516512993  0.1419691458127943  1.0000
  H   H17       1.0  0.3110866607293731  0.8450086317665536  0.5267840375528438  1.0000
  H   H18       1.0  0.4661834420852102  0.1549969003683032  0.9733143052744495  1.0000
  H   H19       1.0  0.6889139034344822  0.1549918206345353  0.4732176168876308  1.0000
  H   H20       1.0  0.5338198586288243  0.8450045679795436  0.026685062699023404  1.0000
  H   H21       1.0  0.4434187498713698  0.5439185883700048  0.3728462950092464  1.0000
  H   H22       1.0  0.8998067051203194  0.455991444770099  0.1272359551814048  1.0000
  H   H23       1.0  0.5565801920313193  0.45608084808433347  0.6271537566636383  1.0000
  H   H24       1.0  0.10019051617651088  0.54400900763099  0.8727641435652345  1.0000
  H   H25       1.0  0.25575045483484626  0.3688059422996233  0.4825241671215751  1.0000
  H   H26       1.0  0.887142354183105  0.6311081546274977  0.0175994972508278  1.0000
  H   H27       1.0  0.7442478807509971  0.6311945101014657  0.5174767094719783  1.0000
  H   H28       1.0  0.11285881629760303  0.3688912818268406  0.9824028879628132  1.0000
  H   H29       1.0  0.3700831607255353  0.0021771738908853  0.10219095372747942  1.0000
  H   H30       1.0  0.36802549863741507  0.9979959894581468  0.397760364732143  1.0000
  H   H31       1.0  0.6299135525991416  0.9978222625634529  0.8978083200984772  1.0000
  H   H32       1.0  0.6319734432652736  0.0020034469961843  0.6022396869407416  1.0000
  H   H33       1.0  0.20701218312157013  0.9777410590509561  0.039026273475151606  1.0000
  H   H34       1.0  0.22951258103494612  0.022602783352517995  0.4609119515082583  1.0000
  H   H35       1.0  0.7929878730701247  0.0222583774033822  0.960974556044647  1.0000
  H   H36       1.0  0.7704873768120707  0.9773986849953218  0.5390866386182864  1.0000
  C   C1        1.0  0.0741310031958662  0.2860601271381356  0.6485734740660973  1.0000
  C   C2        1.0  0.7883173003225181  0.7140317604706894  0.8514767542866297  1.0000
  C   C3        1.0  0.9258668244178168  0.7139393093162028  0.35142735545370135  1.0000
  C   C4        1.0  0.2116832638413371  0.2859686919303996  0.1485202330723254  1.0000
  C   C5        1.0  0.8908657491848331  0.3058497539326197  0.7516520603043234  1.0000
  C   C6        1.0  0.5851798589687932  0.6940206572841277  0.7483482357772006  1.0000
  C   C7        1.0  0.10913420866217652  0.69415171441522  0.2483480855160707  1.0000
  C   C8        1.0  0.4148191812785882  0.30597674727670204  0.2516501660543327  1.0000
  C   C9        1.0  0.960774050317724  0.4250121804421454  0.7027148164793077  1.0000
  C   C10       1.0  0.5360641411246975  0.5748937889109484  0.7973369093864521  1.0000
  C   C11       1.0  0.03922428526811929  0.5749882719589436  0.29728606011424574  1.0000
  C   C12       1.0  0.46394037222303564  0.42510564754338276  0.20266158659258346  1.0000
  C   C13       1.0  0.18138002607503978  0.5104847966876916  0.5706227515693598  1.0000
  C   C14       1.0  0.6711630195242863  0.4895105759796365  0.9294836768365046  1.0000
  C   C15       1.0  0.8186194237998096  0.4895156557133973  0.4293781250241935  1.0000
  C   C16       1.0  0.32883805261172944  0.5104908923682032  0.07051569113696128  1.0000
  C   C17       1.0  0.19637350762901926  0.6444709022648425  0.5819313216810826  1.0000
  C   C18       1.0  0.552201588846188  0.3555082152544387  0.9181471289025327  1.0000
  C   C19       1.0  0.8036254342736697  0.3555285341894958  0.4180702856856371  1.0000
  C   C20       1.0  0.4478005975788406  0.6444932530934011  0.0818530169178544  1.0000
  C   C21       1.0  0.29909455760214587  0.7409045680245184  0.5171004024568617  1.0000
  C   C22       1.0  0.5584236575753039  0.2590704857077597  0.9830105294023712  1.0000
  C   C23       1.0  0.7009048922727034  0.2590958843765705  0.4828996962897705  1.0000
  C   C24       1.0  0.44157913516657027  0.7409299666933293  0.016988013650426105  1.0000
  C   C25       1.0  0.3890905936242817  0.7056359765069543  0.4415388879995065  1.0000
  C   C26       1.0  0.68367463337119  0.2942740566331494  0.058557363435696216  1.0000
  C   C27       1.0  0.6109072339894014  0.2943634599473839  0.5584603858264572  1.0000
  C   C28       1.0  0.3163253244758267  0.7057274117146903  0.9414435602316118  1.0000
  C   C29       1.0  0.49918860559808564  0.8067125189261475  0.3708099968875587  1.0000
  C   C30       1.0  0.6925487029043397  0.1930938876451904  0.1292550062294922  1.0000
  C   C31       1.0  0.5008103363046033  0.1932869175281837  0.62919083263224  1.0000
  C   C32       1.0  0.30745125494267705  0.8069075807026563  0.8707466952847369  1.0000
  C   C33       1.0  0.3739993676251032  0.5715167819052097  0.4318374057375607  1.0000
  C   C34       1.0  0.8026805355602065  0.42841661801021047  0.0683174890660325  1.0000
  C   C35       1.0  0.6259995742775857  0.42848265454912843  0.568162645935324  1.0000
  C   C36       1.0  0.19732387944283403  0.5715848503376364  0.9316811010605125  1.0000
  C   C37       1.0  0.2692175773126877  0.4732615236180635  0.4943561681433053  1.0000
  C   C38       1.0  0.7961142439598348  0.5266596849363196  0.0057857162245298  1.0000
  C   C39       1.0  0.7307834948233279  0.5267399447297763  0.5056439776770816  1.0000
  C   C40       1.0  0.20388804080987905  0.47333975151801866  0.9942135576014338  1.0000
  N   N1        1.0  0.9627809637182169  0.2207225595829669  0.7169889728543026  1.0000
  N   N2        1.0  0.7422025627074191  0.7792514782025534  0.7830145690562491  1.0000
  N   N3        1.0  0.037217371867626456  0.7792778928181221  0.2830126815861718  1.0000
  N   N4        1.0  0.25779809980112833  0.22074694230503408  0.2169823241551967  1.0000
  N   N5        1.0  0.07738949896106112  0.411962344404607  0.6371793824888954  1.0000
  N   N6        1.0  0.6657393453699499  0.5880777299198313  0.8629228943867774  1.0000
  N   N7        1.0  0.9226099509137882  0.588038107996482  0.3628222719515719  1.0000
  N   N8        1.0  0.3342612187939054  0.4119227224812576  0.13707642651294094  1.0000
  Cl  Cl1       1.0  0.9372277330871841  0.0688750941478204  0.3951110442561472  1.0000
  Cl  Cl2       1.0  0.8681872234524592  0.9307189795522105  0.1048772256112827  1.0000
  Cl  Cl3       1.0  0.06277232310451815  0.9311243423065108  0.6048897852636514  1.0000
  Cl  Cl4       1.0  0.1318100961890636  0.0692794409553699  0.8951235568347615  1.0000
  O   O1        1.0  0.593688072824854  0.7741483776640905  0.3128084536212938  1.0000
  O   O2        1.0  0.8195444097430808  0.2256204388773995  0.18728981087826216  1.0000
  O   O3        1.0  0.406312392994316  0.2258541066305071  0.687192517119769  1.0000
  O   O4        1.0  0.18045625276546667  0.7743779816301809  0.8127109715677818  1.0000
  O   O5        1.0  0.2485971090965435  0.9494997712213404  0.0998824652474255  1.0000
  O   O6        1.0  0.299397260321868  0.05083187982111069  0.40008086379929614  1.0000
  O   O7        1.0  0.7514008168618318  0.0504976333394893  0.9001182701248709  1.0000
  O   O8        1.0  0.7006021895529884  0.9491685725799783  0.5999184571004221  1.0000
  O   O9        1.0  0.4982537792483228  0.9251952770581653  0.3693085911506913  1.0000
  O   O10       1.0  0.5730763760518158  0.0745969062586411  0.1306032949375435  1.0000
  O   O11       1.0  0.5017451626543661  0.074804159396173  0.6306930162160286  1.0000
  O   O12       1.0  0.4269253024010453  0.9254035461424479  0.8693968038090887  1.0000
