data_image0
_chemical_formula_structural       UH14C22N4O6
_chemical_formula_sum              "U1 H14 C22 N4 O6"
_cell_length_a       6.114352407417579
_cell_length_b       9.04914413933967
_cell_length_c       9.300506255660617
_cell_angle_alpha    84.54395915857478
_cell_angle_beta     81.12821852836542
_cell_angle_gamma    75.67409005765572

_space_group_name_H-M_alt    "P 1"
_space_group_IT_number       1

loop_
  _space_group_symop_operation_xyz
  'x, y, z'

loop_
  _atom_site_type_symbol
  _atom_site_label
  _atom_site_symmetry_multiplicity
  _atom_site_fract_x
  _atom_site_fract_y
  _atom_site_fract_z
  _atom_site_occupancy
  U   U1        1.0  0.9999972250327074  0.4999979596892815  0.9999990549638014  1.0000
  H   H1        1.0  0.6605507105258254  0.3713606724498888  0.6012561433187287  1.0000
  H   H2        1.0  0.3394639552481208  0.6286370488954773  0.3987478556971595  1.0000
  H   H3        1.0  0.21740583492022836  0.9751649501515585  0.6504375512932441  1.0000
  H   H4        1.0  0.7825899913916955  0.024826549296406597  0.3495726361742513  1.0000
  H   H5        1.0  0.004080410301902722  0.8929143592539219  0.8780066208844985  1.0000
  H   H6        1.0  0.9958890695792276  0.1070835338881864  0.12199550932012927  1.0000
  H   H7        1.0  0.6206850702393182  0.0491275810397411  0.9683887376510043  1.0000
  H   H8        1.0  0.3792888826879234  0.9508750592449927  0.031608074292364584  1.0000
  H   H9        1.0  0.8254999562641318  0.3474882491403974  0.355605476054805  1.0000
  H   H10       1.0  0.17450618000654558  0.6525001505327453  0.6443886470023372  1.0000
  H   H11       1.0  0.47673373125137875  0.3659747161713511  0.15659339965324656  1.0000
  H   H12       1.0  0.5232716955656754  0.6340296985052304  0.8434121991328355  1.0000
  H   H13       1.0  0.42092497575566057  0.1409927272807465  0.5640155630416999  1.0000
  H   H14       1.0  0.5790849739608532  0.8590083513756994  0.4359876330096881  1.0000
  C   C1        1.0  0.6148511503111607  0.2147031849650816  0.7862419251032691  1.0000
  C   C2        1.0  0.3851489704215466  0.7853011589822287  0.21375789144362045  1.0000
  C   C3        1.0  0.73703339123184  0.2650525302425848  0.6589765566588853  1.0000
  C   C4        1.0  0.2629747858102292  0.7349439406848362  0.3410219211167345  1.0000
  C   C5        1.0  0.9580247581790929  0.1819371512594259  0.6105161943642371  1.0000
  C   C6        1.0  0.04197876719153724  0.8180626698820888  0.38948254901328033  1.0000
  C   C7        1.0  0.0506094588004586  0.046008362282798  0.6893714094097234  1.0000
  C   C8        1.0  0.9493902584899702  0.9539936245726393  0.31063406224725293  1.0000
  C   C9        1.0  0.9298049018265361  0.997209143815013  0.8168096187188995  1.0000
  C   C10       1.0  0.07017547544658238  0.0027947539846451  0.1831916458983471  1.0000
  C   C11       1.0  0.7135816641979317  0.08250831055872959  0.8663174361874654  1.0000
  C   C12       1.0  0.28640160003150317  0.9174967976030146  0.133684426277533  1.0000
  C   C13       1.0  0.38579479346071816  0.3041498560276851  0.844948560360436  1.0000
  C   C14       1.0  0.6142125479494353  0.6958569677051045  0.15504903646304058  1.0000
  C   C15       1.0  0.09813334407252937  0.2353800762322606  0.4823659175552422  1.0000
  C   C16       1.0  0.9018752298384881  0.7646198440264554  0.5176343337958826  1.0000
  C   C17       1.0  0.007877247002632256  0.31949500250971846  0.3615975342484887  1.0000
  C   C18       1.0  0.9921269892075982  0.6804990641729914  0.638402743811092  1.0000
  C   C19       1.0  0.36831268991689836  0.3289758860388616  0.2502986391431392  1.0000
  C   C20       1.0  0.631691028611712  0.6710239138117161  0.7497033099335654  1.0000
  C   C21       1.0  0.33568418055484267  0.2039613906707984  0.4741417285408431  1.0000
  C   C22       1.0  0.6643285273460008  0.7960409125416844  0.5258599282255005  1.0000
  N   N1        1.0  0.14175521455815948  0.36559299489496766  0.24637679593333675  1.0000
  N   N2        1.0  0.8582527587729484  0.6344000054102211  0.753623113965972  1.0000
  N   N3        1.0  0.47039882191342036  0.2501002140471514  0.3601547667178338  1.0000
  N   N4        1.0  0.5296138859874234  0.7499020891653386  0.6398468900485098  1.0000
  O   O1        1.0  0.19967317718550964  0.6140359754726247  0.014173133726821219  1.0000
  O   O2        1.0  0.8003454938062757  0.38596414302048027  0.9858301335715041  1.0000
  O   O3        1.0  0.2946854137577262  0.2653284581211111  0.9724139218135975  1.0000
  O   O4        1.0  0.7053117661856729  0.7346781744742754  0.027579590496266272  1.0000
  O   O5        1.0  0.278634635088295  0.4213317895959676  0.774951290272881  1.0000
  O   O6        1.0  0.7213686367180256  0.5786726440860689  0.22504596970175336  1.0000
