data_image0
_chemical_formula_structural       Cd4H32C24N20O28
_chemical_formula_sum              "Cd4 H32 C24 N20 O28"
_cell_length_a       7.626253078
_cell_length_b       8.728260397899092
_cell_length_c       18.5674
_cell_angle_alpha    90.0
_cell_angle_beta     90.0
_cell_angle_gamma    98.98832136901711

_space_group_name_H-M_alt    "P 1"
_space_group_IT_number       1

loop_
  _space_group_symop_operation_xyz
  'x, y, z'

loop_
  _atom_site_type_symbol
  _atom_site_label
  _atom_site_symmetry_multiplicity
  _atom_site_fract_x
  _atom_site_fract_y
  _atom_site_fract_z
  _atom_site_occupancy
  Cd  Cd1       1.0  0.8836022213026312  0.7120953057111237  0.8921841507157707  1.0000
  Cd  Cd2       1.0  0.6163985503477534  0.7879048404422733  0.3921841507157708  1.0000
  Cd  Cd3       1.0  0.1163978560443226  0.2879047917244719  0.10781584928422919  1.0000
  Cd  Cd4       1.0  0.3836028382591152  0.2120952569933223  0.6078158492842292  1.0000
  H   H1        1.0  0.13042933893978412  0.8622760401610776  0.001114318644504  1.0000
  H   H2        1.0  0.3695720437255972  0.6377252659399062  0.501114318644504  1.0000
  H   H3        1.0  0.8695709458163636  0.137725217222112  0.9988862199338655  1.0000
  H   H4        1.0  0.6304282410305505  0.3622759914432833  0.49888568135549594  1.0000
  H   H5        1.0  0.06807124259034941  0.6867179723240113  0.0218571259303957  1.0000
  H   H6        1.0  0.4319286214059162  0.8132821738293856  0.5218571259303957  1.0000
  H   H7        1.0  0.9319286273474034  0.3132809651639974  0.9781428740696042  1.0000
  H   H8        1.0  0.5680703520903094  0.186719083553804  0.4781423354912349  1.0000
  H   H9        1.0  0.28968598104364673  0.8852743210398728  0.8650139491797475  1.0000
  H   H10       1.0  0.2103136755434249  0.6147246651659302  0.365014487758117  1.0000
  H   H11       1.0  0.7103136814849121  0.1147234565005419  0.134985512241883  1.0000
  H   H12       1.0  0.7896864018035217  0.3852754322696654  0.6349860508202523  1.0000
  H   H13       1.0  0.4626401768481118  0.056107824904835  0.7719831532686356  1.0000
  H   H14       1.0  0.037359206195404206  0.4438922238129663  0.27198315326863554  1.0000
  H   H15       1.0  0.537359900498835  0.9438922725307606  0.22801630815300197  1.0000
  H   H16       1.0  0.9626408711515495  0.5561078736226364  0.7280168467313642  1.0000
  H   H17       1.0  0.9892747980442493  0.1187113563170215  0.6724651809084747  1.0000
  H   H18       1.0  0.5107239739842626  0.3812875324531859  0.17246464233010525  1.0000
  H   H19       1.0  0.010723968042782389  0.8812887411185741  0.3275348190915253  1.0000
  H   H20       1.0  0.48927479210276914  0.6187125649824097  0.8275353576698946  1.0000
  H   H21       1.0  0.8178584670871627  0.9438505144174981  0.7632668009522092  1.0000
  H   H22       1.0  0.6821420971540209  0.5561484717883047  0.26326680095220917  1.0000
  H   H23       1.0  0.1821429215197057  0.0561495830180974  0.23673319904779078  1.0000
  H   H24       1.0  0.317856668933004  0.4438516256472909  0.7367331990477906  1.0000
  H   H25       1.0  0.6471908963600015  0.36833787755174535  0.9081169145922414  1.0000
  H   H26       1.0  0.8528096017468272  0.1316633311136428  0.4081174531706111  1.0000
  H   H27       1.0  0.3528091809869451  0.6316622198838501  0.0918825468293889  1.0000
  H   H28       1.0  0.14719199426924232  0.8683379262695468  0.5918830854077584  1.0000
  H   H29       1.0  0.6153428061788092  0.7710299228942432  0.024178398698794  1.0000
  H   H30       1.0  0.8846564468024596  0.7289690633115598  0.5241789372771635  1.0000
  H   H31       1.0  0.3846570637589437  0.2289690145937584  0.9758210627228365  1.0000
  H   H32       1.0  0.115344941804409  0.2710310341240358  0.47582160130120593  1.0000
  C   C1        1.0  0.2226493566933883  0.9375253202059709  0.8218555101952916  1.0000
  C   C2        1.0  0.2773518185627993  0.5624748259474259  0.3218555101952916  1.0000
  C   C3        1.0  0.7773518245042865  0.0624736172820377  0.1781439512263461  1.0000
  C   C4        1.0  0.7226482587841474  0.4375252714881697  0.6781444898047083  1.0000
  C   C5        1.0  0.3182905649997494  0.0320423922426869  0.7701606040694955  1.0000
  C   C6        1.0  0.1817088180437665  0.46795765647510723  0.27016114264786484  1.0000
  C   C7        1.0  0.6817093049380034  0.9679565452453147  0.2298388573521351  1.0000
  C   C8        1.0  0.8182899480432653  0.5320424409604881  0.7298393959305045  1.0000
  C   C9        1.0  0.0576250418016997  0.065664633103772  0.7149288537975167  1.0000
  C   C10       1.0  0.4423756525017311  0.4343354156140222  0.2149293923758862  1.0000
  C   C11       1.0  0.9423763468051689  0.9343354643318235  0.2850711462024833  1.0000
  C   C12       1.0  0.5576246322544165  0.5656658417691673  0.7850711462024831  1.0000
  C   C13       1.0  0.9619468464850203  0.9700409710656217  0.7659322252981013  1.0000
  C   C14       1.0  0.5380539251653715  0.5299591750877752  0.2659322252981013  1.0000
  C   C15       1.0  0.0380519196020117  0.0299591263699739  0.23406831328026806  1.0000
  C   C16       1.0  0.46194746344150434  0.47004092234782036  0.7340683132802681  1.0000
  C   C17       1.0  0.580991726313549  0.4278977064862062  0.9489201503710801  1.0000
  C   C18       1.0  0.919008356974885  0.0721011822840083  0.44892068894944964  1.0000
  C   C19       1.0  0.41900814362420397  0.5721012310018025  0.0510793110505503  1.0000
  C   C20       1.0  0.08099151296286781  0.9278977552040004  0.5510793110505503  1.0000
  C   C21       1.0  0.5638310221001035  0.6499998313436206  0.0132425649256191  1.0000
  C   C22       1.0  0.9361686456995598  0.8500014747573628  0.5132425649256191  1.0000
  C   C23       1.0  0.43616774398692837  0.3500002660919748  0.9867574350743809  1.0000
  C   C24       1.0  0.06383295031650961  0.1499997826258195  0.4867574350743809  1.0000
  N   N1        1.0  0.10153869804535282  0.44936949633576967  0.8673756153257841  1.0000
  N   N2        1.0  0.39846047758896225  0.0506293924344376  0.36737561532578406  1.0000
  N   N3        1.0  0.8984626905615158  0.5506306010998258  0.13262438467421586  1.0000
  N   N4        1.0  0.6015395997579844  0.9493707050011578  0.6326243846742159  1.0000
  N   N5        1.0  0.6703720648126392  0.978120006034139  0.9093502590561968  1.0000
  N   N6        1.0  0.8296298106884663  0.5218789801716639  0.4093497204778273  1.0000
  N   N7        1.0  0.32962932379422943  0.0218800914014565  0.0906497409438032  1.0000
  N   N8        1.0  0.1703715779184023  0.47812111726393175  0.5906502795221724  1.0000
  N   N9        1.0  0.0449896941353742  0.904182626714217  0.8185540247961496  1.0000
  N   N10       1.0  0.45501037727009214  0.5958186793867668  0.3185540247961498  1.0000
  N   N11       1.0  0.9550103832115795  0.0958174707213786  0.1814459752038502  1.0000
  N   N12       1.0  0.5449897000768544  0.4041814180488288  0.6814465137822197  1.0000
  N   N13       1.0  0.23582477003083818  0.093242387070255  0.7158460527591402  1.0000
  N   N14       1.0  0.2641759242725996  0.4067576616475463  0.21584605275914018  1.0000
  N   N15       1.0  0.7641750999069146  0.9067565504177537  0.28415448581922925  1.0000
  N   N16       1.0  0.7358241530743541  0.5932424357880492  0.7841544858192293  1.0000
  N   N17       1.0  0.6442209843185509  0.5775866231577423  0.9620512295744135  1.0000
  N   N18       1.0  0.8557802021502285  0.9224158428908353  0.46205176815278287  1.0000
  N   N19       1.0  0.3557806116975186  0.4224146342254471  0.0379487704255865  1.0000
  N   N20       1.0  0.1442200826059192  0.0775854144923542  0.5379487704255865  1.0000
  O   O1        1.0  0.1497212718686995  0.5717346875631719  0.8311465256309418  1.0000
  O   O2        1.0  0.3502799033874879  0.9282654585902178  0.3311459870525795  1.0000
  O   O3        1.0  0.8502803241473629  0.4282665698200105  0.1688540129474205  1.0000
  O   O4        1.0  0.649720173959466  0.0717346388453777  0.6688534743690581  1.0000
  O   O5        1.0  0.96454879511586  0.44686400954007865  0.9091698353027339  1.0000
  O   O6        1.0  0.535451495581775  0.0531360391777227  0.4091698353027339  1.0000
  O   O7        1.0  0.0354525934910157  0.5531360878955169  0.090830164697266  1.0000
  O   O8        1.0  0.46454858176517894  0.9468640582578728  0.5908296261188966  1.0000
  O   O9        1.0  0.179517480756985  0.3344024508412033  0.8639147107295599  1.0000
  O   O10       1.0  0.32048321354645287  0.165597597876598  0.3639147107295599  1.0000
  O   O11       1.0  0.8204839078498836  0.6655976465943994  0.1360852892704401  1.0000
  O   O12       1.0  0.6795181750604229  0.8344024995589976  0.6360847506920706  1.0000
  O   O13       1.0  0.7975987697452426  0.9635069862877826  0.9533537275008894  1.0000
  O   O14       1.0  0.7024008980544212  0.5364943198132082  0.45335318892252013  1.0000
  O   O15       1.0  0.2024030336800209  0.0364954310429937  0.0466462724991104  1.0000
  O   O16       1.0  0.2975995941109275  0.4635080975175754  0.5466468110774798  1.0000
  O   O17       1.0  0.627256435590404  0.8704153924043041  0.863382595301445  1.0000
  O   O18       1.0  0.8727456473199027  0.6295847537490857  0.3633825953014451  1.0000
  O   O19       1.0  0.37274474560727106  0.1295835450836975  0.1366174046985549  1.0000
  O   O20       1.0  0.1272544300270511  0.3704153436865099  0.6366174046985548  1.0000
  O   O21       1.0  0.5927544378174545  0.093320103558824  0.9117507028447704  1.0000
  O   O22       1.0  0.9072445416202586  0.4066799451589773  0.4117512414231398  1.0000
  O   O23       1.0  0.4072430170096554  0.9066799938767787  0.0882487585768601  1.0000
  O   O24       1.0  0.09275422446677342  0.5933201522766183  0.5882492971552296  1.0000
  O   O25       1.0  0.0965414493700649  0.7571476701299672  0.9799137197453617  1.0000
  O   O26       1.0  0.40345820721700676  0.7428513160758428  0.4799137197453618  1.0000
  O   O27       1.0  0.903458627976889  0.24285242730563536  0.0200862802546382  1.0000
  O   O28       1.0  0.596541870129947  0.2571487813597599  0.5200862802546382  1.0000
