data_image0
_chemical_formula_structural       Ag8H24C36N12O16
_chemical_formula_sum              "Ag8 H24 C36 N12 O16"
_cell_length_a       6.7456748832947
_cell_length_b       10.362522097151244
_cell_length_c       16.068029568902787
_cell_angle_alpha    86.9065273788595
_cell_angle_beta     78.03761702733695
_cell_angle_gamma    79.31687161565971

_space_group_name_H-M_alt    "P 1"
_space_group_IT_number       1

loop_
  _space_group_symop_operation_xyz
  'x, y, z'

loop_
  _atom_site_type_symbol
  _atom_site_label
  _atom_site_symmetry_multiplicity
  _atom_site_fract_x
  _atom_site_fract_y
  _atom_site_fract_z
  _atom_site_occupancy
  Ag  Ag1       1.0  0.8335796637010658  0.058114355367081316  0.3087571952434586  1.0000
  Ag  Ag2       1.0  0.16642052364653653  0.9418850503845916  0.6912404166266127  1.0000
  Ag  Ag3       1.0  0.7868740457629502  0.2936964609969337  0.217214171918485  1.0000
  Ag  Ag4       1.0  0.2131259009630426  0.7063038444178319  0.7827859314792176  1.0000
  Ag  Ag5       1.0  0.5883784612582091  0.7972131181039046  0.6726207746955237  1.0000
  Ag  Ag6       1.0  0.41161870533295547  0.2027862284860333  0.3273795898585448  1.0000
  Ag  Ag7       1.0  0.24540172280361366  0.4152296394122246  0.1438567403828657  1.0000
  Ag  Ag8       1.0  0.7546002599779201  0.5847686701529042  0.8561438520087774  1.0000
  H   H1        1.0  0.5009111569390966  0.7608403058898009  0.9931683581326425  1.0000
  H   H2        1.0  0.4990920754017267  0.23915903569397298  0.006830236539535399  1.0000
  H   H3        1.0  0.41444727677619425  0.7722703061925528  0.15433931561273787  1.0000
  H   H4        1.0  0.585556459022314  0.22773288972875605  0.845661020436772  1.0000
  H   H5        1.0  0.5804577432845337  0.5786463118117524  0.2341318655901148  1.0000
  H   H6        1.0  0.4195442091984419  0.42135791863129424  0.7658673576808822  1.0000
  H   H7        1.0  0.5286861664777903  0.6243205196179248  0.5425003729395925  1.0000
  H   H8        1.0  0.471307694301224  0.3756798935777041  0.45749838743491716  1.0000
  H   H9        1.0  0.5873656140174147  0.605497648755545  0.3826419405398909  1.0000
  H   H10       1.0  0.4126287643599867  0.3945007801194578  0.6173574400085187  1.0000
  H   H11       1.0  0.7287433074407589  0.7922734572581618  0.29439435696747296  1.0000
  H   H12       1.0  0.27125082223610514  0.20772591238980448  0.7056062699465286  1.0000
  H   H13       1.0  0.1952164326686798  0.6726437827908924  0.433878003503942  1.0000
  H   H14       1.0  0.8047777010476479  0.3273555663021314  0.5661232459910791  1.0000
  H   H15       1.0  0.8473118921284525  0.974036031341143  0.03470655798957977  1.0000
  H   H16       1.0  0.15268803641737347  0.02597013328671241  0.9652940440305287  1.0000
  H   H17       1.0  0.9325796399673579  0.2860591341340708  0.033686739397957396  1.0000
  H   H18       1.0  0.0674203107980986  0.713941150725745  0.9663139865807651  1.0000
  H   H19       1.0  0.8948684153630709  0.36248961742796854  0.9349826323540994  1.0000
  H   H20       1.0  0.10513204896131616  0.637508703666164  0.0650180912175031  1.0000
  H   H21       1.0  0.8181474728068424  0.06910184408319252  0.48369749210545626  1.0000
  H   H22       1.0  0.1818517217609284  0.930895547766994  0.5163021162805137  1.0000
  H   H23       1.0  0.7577011665848374  0.9937963556864704  0.5841286393398804  1.0000
  H   H24       1.0  0.2423015824956209  0.006199028785069102  0.4158713268600636  1.0000
  C   C1        1.0  0.7593188881687283  0.473463434988588  0.03909884101332038  1.0000
  C   C2        1.0  0.24067853924135818  0.5265349091635728  0.9609021449182081  1.0000
  C   C3        1.0  0.5621582510296577  0.6817656713933146  0.033123327296728206  1.0000
  C   C4        1.0  0.4378447245317077  0.3182346520733006  0.9668752685790095  1.0000
  C   C5        1.0  0.5154869755385221  0.6885044120925699  0.1212141730206042  1.0000
  C   C6        1.0  0.4845208020725096  0.31150071300738347  0.8787857718961334  1.0000
  C   C7        1.0  0.6049167614937971  0.5813763793724434  0.1648917740738938  1.0000
  C   C8        1.0  0.3950867175252455  0.41862779843170717  0.835108563179169  1.0000
  C   C9        1.0  0.7137531618723826  0.8944681115518733  0.4855833074193541  1.0000
  C   C10       1.0  0.2862445101987774  0.1055293123822665  0.5144158095655627  1.0000
  C   C11       1.0  0.5895001702103998  0.6987826618692523  0.49937875337079163  1.0000
  C   C12       1.0  0.410501060412905  0.3012127341312976  0.5006213440091187  1.0000
  C   C13       1.0  0.6174173878035135  0.6901479528116496  0.41188476731611695  1.0000
  C   C14       1.0  0.3825835820008693  0.3098484456266846  0.5881147086863336  1.0000
  C   C15       1.0  0.6998332940278685  0.7902597526097068  0.36363148610750773  1.0000
  C   C16       1.0  0.30016716625704737  0.2097385890393754  0.6363686148830823  1.0000
  C   C17       1.0  0.12573778575924172  0.522648180618873  0.31573383862918547  1.0000
  C   C18       1.0  0.8742639402428268  0.4773511108290974  0.6842667549660106  1.0000
  C   C19       1.0  0.05676847197465664  0.5109902057764373  0.4107910388324001  1.0000
  C   C20       1.0  0.9432276937577412  0.48900716802189226  0.589210077075542  1.0000
  C   C21       1.0  0.9437103782060274  0.4137241873231974  0.4481157979044283  1.0000
  C   C22       1.0  0.05628579156583413  0.58627316592019  0.5518859405845261  1.0000
  C   C23       1.0  0.10950883319470257  0.5969072809783498  0.4633204579363053  1.0000
  C   C24       1.0  0.8904835252850135  0.40309306152652624  0.5366809239422352  1.0000
  C   C25       1.0  0.8700969484720603  0.3262533848920128  0.3936894556391123  1.0000
  C   C26       1.0  0.12990325099393382  0.6737459591948466  0.6063100239740179  1.0000
  C   C27       1.0  0.6953993320918743  0.9846844074849769  0.019023606418222996  1.0000
  C   C28       1.0  0.3046069351409315  0.015320688034115904  0.9809777148405132  1.0000
  C   C29       1.0  0.5214813829683395  0.0230914886567462  0.0824722637592288  1.0000
  C   C30       1.0  0.47852208797178264  0.9769127302572829  0.9175268283318018  1.0000
  C   C31       1.0  0.6761483642255682  0.9624444234067724  0.9363478884574549  1.0000
  C   C32       1.0  0.3238470271289842  0.037555916595025  0.0636526084801403  1.0000
  C   C33       1.0  0.5518152837077253  0.0557532156074814  0.16817362569649666  1.0000
  C   C34       1.0  0.4481884520907897  0.9442499803138278  0.8318267103530133  1.0000
  C   C35       1.0  0.8638403123023937  0.9238921647802273  0.8679496872344643  1.0000
  C   C36       1.0  0.13616267133789964  0.0761081175765028  0.1320501538033128  1.0000
  N   N1        1.0  0.8708058008212377  0.36522989337246514  0.9994219155899627  1.0000
  N   N2        1.0  0.12919288826653744  0.6347694211335195  0.000578940365166104  1.0000
  N   N3        1.0  0.724061228998025  0.4748803469657333  0.12549467733824568  1.0000
  N   N4        1.0  0.2759354199947453  0.5251209839448306  0.8745050670419302  1.0000
  N   N5        1.0  0.68450010937039  0.5774117964134788  0.9914365443504564  1.0000
  N   N6        1.0  0.3154983188984559  0.42258852053029733  0.008563690227212801  1.0000
  N   N7        1.0  0.7546675457538826  0.9982358842333029  0.5212303951564151  1.0000
  N   N8        1.0  0.24533342001103622  0.0017605347599670047  0.47876845826501574  1.0000
  N   N9        1.0  0.7470012393947273  0.8911557720226215  0.3995152791946381  1.0000
  N   N10       1.0  0.25299617993643153  0.10884261323941762  0.6004844615748581  1.0000
  N   N11       1.0  0.6361799094095634  0.7990005339900886  0.5368593624494693  1.0000
  N   N12       1.0  0.36381624420445047  0.20099690147306148  0.4631398857154139  1.0000
  O   O1        1.0  0.7602935527685162  0.38538675264637573  0.342470060150923  1.0000
  O   O2        1.0  0.23970665477640554  0.6146125503306052  0.6575306646242396  1.0000
  O   O3        1.0  0.9171494455875476  0.20296786208307077  0.4046072215994485  1.0000
  O   O4        1.0  0.08284798586200287  0.7970304615141474  0.5953943869130994  1.0000
  O   O5        1.0  0.1906686801740563  0.40959126832423465  0.27784918028012834  1.0000
  O   O6        1.0  0.8093342994267728  0.590409034587438  0.7221500381766289  1.0000
  O   O7        1.0  0.1211622517525797  0.6322123626013296  0.27986216893160787  1.0000
  O   O8        1.0  0.8788440376998568  0.3677868531497239  0.7201392762857353  1.0000
  O   O9        1.0  0.6593632541624999  0.9720165145932286  0.20693623463846927  1.0000
  O   O10       1.0  0.3406349254058156  0.02798474312351121  0.793065246304792  1.0000
  O   O11       1.0  0.4672745439180942  0.1741608976353959  0.1925605589932005  1.0000
  O   O12       1.0  0.5327347602290047  0.8258441748256757  0.8074404999056028  1.0000
  O   O13       1.0  0.865950824736679  0.9804746677222909  0.7966362372458419  1.0000
  O   O14       1.0  0.13404760353216721  0.0195256492214781  0.2033639973318273  1.0000
  O   O15       1.0  0.00652734835476571  0.8351755142465221  0.8887971755464363  1.0000
  O   O16       1.0  0.9934761367260594  0.16482286600934512  0.11120079534116202  1.0000
