data_image0
_chemical_formula_structural       Al4H80C92N4O20
_chemical_formula_sum              "Al4 H80 C92 N4 O20"
_cell_length_a       6.705789592923402
_cell_length_b       24.850056089130916
_cell_length_c       29.12206808390009
_cell_angle_alpha    90.39973833103258
_cell_angle_beta     88.2878882741544
_cell_angle_gamma    93.9015238971042

_space_group_name_H-M_alt    "P 1"
_space_group_IT_number       1

loop_
  _space_group_symop_operation_xyz
  'x, y, z'

loop_
  _atom_site_type_symbol
  _atom_site_label
  _atom_site_symmetry_multiplicity
  _atom_site_fract_x
  _atom_site_fract_y
  _atom_site_fract_z
  _atom_site_occupancy
  Al  Al1       1.0  0.8065618563052793  0.749941108846059  0.7463439503406306  1.0000
  Al  Al2       1.0  0.1992104633383605  0.2523121810142682  0.2506294862257762  1.0000
  Al  Al3       1.0  0.3074845866368037  0.7485183245140231  0.7464705509862456  1.0000
  Al  Al4       1.0  0.6981986282915215  0.2510468277035046  0.2503431676087757  1.0000
  H   H1        1.0  0.7418637272846952  0.6666843672079281  0.6254236895449738  1.0000
  H   H2        1.0  0.2409493796438866  0.3277688405532828  0.3777406522419967  1.0000
  H   H3        1.0  0.7277201369312252  0.6017265904530261  0.5592161522083005  1.0000
  H   H4        1.0  0.24934349486986918  0.39067510708243  0.44539668181521824  1.0000
  H   H5        1.0  0.3065537650089142  0.5506968903475522  0.5929305606455132  1.0000
  H   H6        1.0  0.7024154410412677  0.4540390287137581  0.4029520732819877  1.0000
  H   H7        1.0  0.7061603070413653  0.5530958854068473  0.9028900766177517  1.0000
  H   H8        1.0  0.2964274565235526  0.4446173488281389  0.09373918416760323  1.0000
  H   H9        1.0  0.31604698955111843  0.6042494593619451  0.9329832178841644  1.0000
  H   H10       1.0  0.6826261807962055  0.3959174817934538  0.06514066767392991  1.0000
  H   H11       1.0  0.3297049143073211  0.6660934678903134  0.8660176205049481  1.0000
  H   H12       1.0  0.670193470668721  0.33304268578247315  0.1315240920872753  1.0000
  H   H13       1.0  0.3061825397659206  0.5124655331401299  0.9489122582193447  1.0000
  H   H14       1.0  0.6943779846264919  0.48676884534958736  0.0486233675321088  1.0000
  H   H15       1.0  0.2985607924556533  0.44915680170938527  0.013802452715410104  1.0000
  H   H16       1.0  0.7017467681974097  0.5499475002756781  0.9836457356065652  1.0000
  H   H17       1.0  0.6577520184684006  0.21092449958437942  0.3853225263225327  1.0000
  H   H18       1.0  0.30111364619294545  0.8858572478565349  0.6865314546892449  1.0000
  H   H19       1.0  0.6749627814276379  0.1632728218782091  0.45819609746466483  1.0000
  H   H20       1.0  0.2684595705884192  0.9631360180148364  0.6373494101246067  1.0000
  H   H21       1.0  0.2300048951242317  0.0439681989726779  0.4115428932088392  1.0000
  H   H22       1.0  0.787906415260572  0.9203007413542821  0.5583864446424657  1.0000
  H   H23       1.0  0.1755171847222243  0.03353061514509649  0.4809405646154304  1.0000
  H   H24       1.0  0.8059594664703196  0.0192302114380922  0.5568847519401531  1.0000
  H   H25       1.0  0.7360143302793604  0.18170247089367556  0.128997377533274  1.0000
  H   H26       1.0  0.29263586632406197  0.8802233510282562  0.82784070191115  1.0000
  H   H27       1.0  0.7710166385622442  0.12046381067283109  0.06146628721632651  1.0000
  H   H28       1.0  0.2651801885066618  0.9482074463422664  0.8900445002515767  1.0000
  H   H29       1.0  0.17489769192398796  0.0089717343152955  0.32995837625608015  1.0000
  H   H30       1.0  0.9778594139506751  0.02333221270880871  0.369510414163969  1.0000
  H   H31       1.0  0.9406622421087647  0.026557312849263298  0.30976139612638326  1.0000
  H   H32       1.0  0.9974038663619068  0.1196505539960881  0.34285107662572767  1.0000
  H   H33       1.0  0.17291745223239013  0.10541137902858108  0.299908056861412  1.0000
  H   H34       1.0  0.7424619822809362  0.760564287188437  0.614000022737848  1.0000
  H   H35       1.0  0.7827773299044551  0.7866629523594852  0.5574747792646306  1.0000
  H   H36       1.0  0.9845447875235679  0.7619724922740473  0.5877217251574792  1.0000
  H   H37       1.0  0.007318426135590484  0.8627425234545568  0.5885626444121501  1.0000
  H   H38       1.0  0.9714208533869167  0.8362127960680182  0.6445782542405425  1.0000
  H   H39       1.0  0.1980058546314325  0.029054695131946997  0.6191437990418792  1.0000
  H   H40       1.0  0.03717034199726749  0.05859362733258418  0.5822417334479012  1.0000
  H   H41       1.0  0.9419809562443006  0.0047462217875776005  0.6187659285579914  1.0000
  H   H42       1.0  0.006866547974034619  0.9761942960387556  0.5331127638886386  1.0000
  H   H43       1.0  0.1300334093366402  0.938888135566394  0.5736292364054522  1.0000
  H   H44       1.0  0.7634355230667964  0.1726246998396093  0.5213308888538252  1.0000
  H   H45       1.0  0.873072576224793  0.1331308533509699  0.5625482162546973  1.0000
  H   H46       1.0  0.026480501479113586  0.1660899126321452  0.5189083556248876  1.0000
  H   H47       1.0  0.9784641521811538  0.06910622319659149  0.5030297615295254  1.0000
  H   H48       1.0  0.8739760125107806  0.1047445445627275  0.4590433825886891  1.0000
  H   H49       1.0  0.17427256639329158  0.051709593691612106  0.08984670269638433  1.0000
  H   H50       1.0  0.7993038129368627  0.8942124775168593  0.9477282447373414  1.0000
  H   H51       1.0  0.1386238776955508  0.04011297646079019  0.20288085058539454  1.0000
  H   H52       1.0  0.20956511296372327  0.10275334495603522  0.22944619702584396  1.0000
  H   H53       1.0  0.9528131863148771  0.08000551100272447  0.22812273161689237  1.0000
  H   H54       1.0  0.0225223023896959  0.1508663370359997  0.16992194213911924  1.0000
  H   H55       1.0  0.9645030033722148  0.08849570541976702  0.1419831764874573  1.0000
  H   H56       1.0  0.7026294700639824  0.7594764428690579  0.9380585670984234  1.0000
  H   H57       1.0  0.691735317496793  0.7383838928947457  0.8795846469679844  1.0000
  H   H58       1.0  0.9120806918486009  0.7312130384055352  0.9104745346935916  1.0000
  H   H59       1.0  0.9545211655037634  0.8107707674874547  0.8574833522133716  1.0000
  H   H60       1.0  0.9770336166993374  0.8307542792162651  0.9156059493460308  1.0000
  H   H61       1.0  0.8319178387682554  0.9575933316524826  0.09224581645956684  1.0000
  H   H62       1.0  0.7504268587611307  0.0185290223242873  0.11631342003133231  1.0000
  H   H63       1.0  0.7134241594025568  0.9575534219805275  0.14783894318353671  1.0000
  H   H64       1.0  0.39359769343349893  0.9816077430956511  0.11342010544751703  1.0000
  H   H65       1.0  0.4699546880226037  0.920068443240744  0.09050720715546133  1.0000
  H   H66       1.0  0.8789944597068593  0.059639777348294794  0.9037225357412384  1.0000
  H   H67       1.0  0.7931556672481932  0.9976730740007155  0.8779387859144523  1.0000
  H   H68       1.0  0.7792350639573087  0.0590757582686336  0.8476817966018475  1.0000
  H   H69       1.0  0.4422568983493135  0.02760390837009649  0.8798597044289522  1.0000
  H   H70       1.0  0.5246172735588388  0.08977074384999638  0.904450885145586  1.0000
  H   H71       1.0  0.5216675919670806  0.9072235085019  0.012131614031297  1.0000
  H   H72       1.0  0.5111563374456124  0.10213032631141769  0.981927168524692  1.0000
  H   H73       1.0  0.3257507430042992  0.6187794299466987  0.6570058013289284  1.0000
  H   H74       1.0  0.6891916016365512  0.38896769167055817  0.336886588244802  1.0000
  H   H75       1.0  0.7184677499737332  0.6175076345913978  0.8376892608838489  1.0000
  H   H76       1.0  0.28505519831187337  0.3788587690016528  0.15820222570984302  1.0000
  H   H77       1.0  0.5426252482227409  0.6812188070622295  0.7623640649364632  1.0000
  H   H78       1.0  0.46670503945949093  0.3191366694716606  0.2685410815888147  1.0000
  H   H79       1.0  0.0732610842172576  0.8152880462926076  0.7664840005274061  1.0000
  H   H80       1.0  0.932632026490147  0.18684240864397592  0.27228260013356487  1.0000
  C   C1        1.0  0.5742998114056092  0.8168736252633194  0.687560843524281  1.0000
  C   C2        1.0  0.42910073559316686  0.1900561034696651  0.3154934376143075  1.0000
  C   C3        1.0  0.5672651543911086  0.8122872326343396  0.8112226181580341  1.0000
  C   C4        1.0  0.433912304803492  0.1888306252385092  0.1874758016459808  1.0000
  C   C5        1.0  0.037573465688801384  0.6828839836354489  0.8078297359449849  1.0000
  C   C6        1.0  0.965778608795425  0.31431071748856704  0.18814115421404415  1.0000
  C   C7        1.0  0.04287744629270659  0.6862754193253975  0.683526122645418  1.0000
  C   C8        1.0  0.9623918383916177  0.3173454807287682  0.3129818136235159  1.0000
  C   C9        1.0  0.8654499115824948  0.6415385446683715  0.6175659773489317  1.0000
  C   C10       1.0  0.12334233850911151  0.3554020090342432  0.3837657424885421  1.0000
  C   C11       1.0  0.8570390247180909  0.6052714426980046  0.5810760075241037  1.0000
  C   C12       1.0  0.1285121841471835  0.3904083674977343  0.4211912901421045  1.0000
  C   C13       1.0  0.0162157610391205  0.5722418255077599  0.5721418882396493  1.0000
  C   C14       1.0  0.9771393856298332  0.42642769451098417  0.4280673310472808  1.0000
  C   C15       1.0  0.18491615951524656  0.576788459326174  0.5998909336738691  1.0000
  C   C16       1.0  0.8186237701149538  0.4259145667774361  0.39742277259271935  1.0000
  C   C17       1.0  0.1950485924855556  0.614294342749261  0.6355596646349255  1.0000
  C   C18       1.0  0.811806950376173  0.38990113800505094  0.36067656930837444  1.0000
  C   C19       1.0  0.034969317980660684  0.6466605494323616  0.6447672537121606  1.0000
  C   C20       1.0  0.9650063880245054  0.3548504211510063  0.35327119482615643  1.0000
  C   C21       1.0  0.9855080516178562  0.4645573144389842  0.4668828895945297  1.0000
  C   C22       1.0  0.004670060806326107  0.5329776049907481  0.5342252704034396  1.0000
  C   C23       1.0  0.848822065186006  0.6141157568010981  0.8586801491568681  1.0000
  C   C24       1.0  0.15405834840992585  0.3831498244774566  0.13757149426422904  1.0000
  C   C25       1.0  0.8420171620382675  0.578635396818605  0.8955114843680223  1.0000
  C   C26       1.0  0.15997791426394767  0.4193225028772573  0.10122399447623562  1.0000
  C   C27       1.0  0.0104445507172031  0.5738590283475559  0.9225426331063888  1.0000
  C   C28       1.0  0.990222822658623  0.42500442135744987  0.0748090372683734  1.0000
  C   C29       1.0  0.18604132126039022  0.6060459229024245  0.9115154645560681  1.0000
  C   C30       1.0  0.8138552652720605  0.3932742747062505  0.08606980050274161  1.0000
  C   C31       1.0  0.19402251495326794  0.6409695989006323  0.8743758982192062  1.0000
  C   C32       1.0  0.8065226837363967  0.3576411128194792  0.12270388257278603  1.0000
  C   C33       1.0  0.0254950516756622  0.6452672449980881  0.8475540928194933  1.0000
  C   C34       1.0  0.9767187606725399  0.3522713957895718  0.14872345047491115  1.0000
  C   C35       1.0  0.17267465214281694  0.5076648373634853  0.9712448179510957  1.0000
  C   C36       1.0  0.827951005484053  0.491582143449925  0.026324662707836004  1.0000
  C   C37       1.0  0.16841270736779276  0.47194935427881285  0.0078444372394486  1.0000
  C   C38       1.0  0.832055701129228  0.5272391917310415  0.9896761353599717  1.0000
  C   C39       1.0  0.9958582495198484  0.46314437405605713  0.036164229731603804  1.0000
  C   C40       1.0  0.004655195513677815  0.5360284240603123  0.9613842761900315  1.0000
  C   C41       1.0  0.5600592052436396  0.17474422156050912  0.3918946276156632  1.0000
  C   C42       1.0  0.41212338147339284  0.8948503429170317  0.6590636891939852  1.0000
  C   C43       1.0  0.5741942385235957  0.14662919472306157  0.43251340502097696  1.0000
  C   C44       1.0  0.3912102758529414  0.9379717068604876  0.6300362215012002  1.0000
  C   C45       1.0  0.4603168620393062  0.09762218998920962  0.44008617876883  1.0000
  C   C46       1.0  0.5249144253937743  0.9482476047797019  0.5923946057478419  1.0000
  C   C47       1.0  0.3192011061591629  0.08191349493056778  0.40679769902043017  1.0000
  C   C48       1.0  0.6853860917710078  0.9146482043614412  0.5879172038662335  1.0000
  C   C49       1.0  0.2895913418122404  0.1119649297378871  0.36736848126911076  1.0000
  C   C50       1.0  0.7185228213993397  0.8732180556465109  0.6186968060435306  1.0000
  C   C51       1.0  0.42102354437037803  0.158052336485099  0.35879486052807164  1.0000
  C   C52       1.0  0.5736538952933543  0.8621709141951898  0.6541827816501923  1.0000
  C   C53       1.0  0.3169364517909656  0.031305385089751794  0.4979043884544795  1.0000
  C   C54       1.0  0.6661255095132503  0.0222971506860503  0.5401139059696051  1.0000
  C   C55       1.0  0.3174904552567881  0.9985628528855415  0.5365940907253376  1.0000
  C   C56       1.0  0.6628506808353835  0.06019654062238541  0.504835706563469  1.0000
  C   C57       1.0  0.5011832191836448  0.9901743357375707  0.5568819894624613  1.0000
  C   C58       1.0  0.4833684687500294  0.0633433891822719  0.4808874701802993  1.0000
  C   C59       1.0  0.6125258883163555  0.1533763163755282  0.11962725536363915  1.0000
  C   C60       1.0  0.404708871334158  0.8840335951657963  0.8541863847556074  1.0000
  C   C61       1.0  0.6321449678998193  0.11906506182383227  0.0820714680522272  1.0000
  C   C62       1.0  0.390236938480065  0.9223218979446842  0.8888231185547043  1.0000
  C   C63       1.0  0.4757655133865697  0.08094313448251  0.07174313060710352  1.0000
  C   C64       1.0  0.5351104988716456  0.9270835267868376  0.9226776001662531  1.0000
  C   C65       1.0  0.2979183801767178  0.0806565382697642  0.09834279654644722  1.0000
  C   C66       1.0  0.6879326394820848  0.8912247794183941  0.9210408283017133  1.0000
  C   C67       1.0  0.2717266394012796  0.1159385948337714  0.13540388089992925  1.0000
  C   C68       1.0  0.7069766322614797  0.8524069101112917  0.8863268238549651  1.0000
  C   C69       1.0  0.43571970328339665  0.1519993999967468  0.146763911784852  1.0000
  C   C70       1.0  0.5627083180276314  0.8495989974261561  0.8516371481429774  1.0000
  C   C71       1.0  0.5044396426244262  0.985559659641545  0.04311717198910971  1.0000
  C   C72       1.0  0.5265915983919598  0.023755099169889604  0.9508060406400675  1.0000
  C   C73       1.0  0.5189495108489552  0.9504294518889791  0.005628531878684801  1.0000
  C   C74       1.0  0.512626574911863  0.058884766878328804  0.9883547371610463  1.0000
  C   C75       1.0  0.5262273952550273  0.9679491533820083  0.959900923334253  1.0000
  C   C76       1.0  0.49770719268995833  0.0411141661638439  0.033958695346846916  1.0000
  C   C77       1.0  0.12432360115110437  0.0945958016146662  0.3350905529622566  1.0000
  C   C78       1.0  0.05092191940904909  0.0350718095990388  0.3364630543337555  1.0000
  C   C79       1.0  0.8987279062905528  0.8404868472322989  0.6116254695402505  1.0000
  C   C80       1.0  0.848762585241424  0.7841959235519909  0.5914343153393062  1.0000
  C   C81       1.0  0.12294763377322232  0.9792352404592392  0.5589658539209668  1.0000
  C   C82       1.0  0.0704025710839389  0.0198371532000223  0.5970732714638133  1.0000
  C   C83       1.0  0.8551428782403078  0.09399777307702811  0.4955049796015061  1.0000
  C   C84       1.0  0.8805266951443967  0.14447456691422636  0.5260934724666129  1.0000
  C   C85       1.0  0.07669040972994878  0.11094071669158716  0.16275590244736557  1.0000
  C   C86       1.0  0.09544241546507239  0.08162050159682371  0.20841352046490877  1.0000
  C   C87       1.0  0.8710792523245131  0.8140325830399601  0.8902290830427335  1.0000
  C   C88       1.0  0.7893495858399363  0.7575001393861102  0.9055126327130056  1.0000
  C   C89       1.0  0.5083125761370509  0.9638299777904535  0.09143230618312262  1.0000
  C   C90       1.0  0.7130506810694756  0.9749492011967221  0.11324200109775973  1.0000
  C   C91       1.0  0.5535655029296151  0.0467253399949712  0.9028707929712356  1.0000
  C   C92       1.0  0.7635840949376629  0.04043128896379499  0.881829708779172  1.0000
  N   N1        1.0  0.1424915409989964  0.4955441946876532  0.5316049006765979  1.0000
  N   N2        1.0  0.8442724820415393  0.5009988048238583  0.470265653307365  1.0000
  N   N3        1.0  0.13294423098599847  0.46085149196460407  0.49729967798508323  1.0000
  N   N4        1.0  0.8542392123414544  0.5358365167821971  0.5044178001612636  1.0000
  O   O1        1.0  0.4008207054096218  0.8010129430029522  0.7918883304707266  1.0000
  O   O2        1.0  0.5999195982013603  0.19841739320640528  0.20721479011466223  1.0000
  O   O3        1.0  0.7384687863535933  0.804247196077391  0.7040929965188314  1.0000
  O   O4        1.0  0.26730337377380653  0.1988715095418954  0.29564576119426533  1.0000
  O   O5        1.0  0.8794188868712708  0.7064775947719397  0.6953072383627303  1.0000
  O   O6        1.0  0.1292433044731709  0.2987570918002689  0.3012466117824957  1.0000
  O   O7        1.0  0.7350435679583781  0.7953603883705184  0.7977045781109952  1.0000
  O   O8        1.0  0.2697714289525024  0.2081852175375118  0.20010532567341954  1.0000
  O   O9        1.0  0.8747993716417852  0.6939155423663408  0.7894560350411767  1.0000
  O   O10       1.0  0.12744307073848657  0.305491044000533  0.20782848634972595  1.0000
  O   O11       1.0  0.4021770275622175  0.7948223743395243  0.698379423695471  1.0000
  O   O12       1.0  0.6048981875936975  0.2068595951888668  0.30148121453501636  1.0000
  O   O13       1.0  0.5501052662704566  0.715732139900446  0.7469023612915467  1.0000
  O   O14       1.0  0.45782280859081936  0.2853299335924789  0.2516908843836135  1.0000
  O   O15       1.0  0.21330178765990127  0.70099337308244  0.7952600796693263  1.0000
  O   O16       1.0  0.7925357059683334  0.29367650569655973  0.19960540370404095  1.0000
  O   O17       1.0  0.2107455325341191  0.6965313058680205  0.7021097270303046  1.0000
  O   O18       1.0  0.7960280205947042  0.3072634519047525  0.2935030768451342  1.0000
  O   O19       1.0  0.0652268980293869  0.7821747472790078  0.7486542124784635  1.0000
  O   O20       1.0  0.9409807388452761  0.21822694491244476  0.25249552968026734  1.0000
