data_image0
_chemical_formula_structural       Al2H15C18S2ClO10
_chemical_formula_sum              "Al2 H15 C18 S2 Cl1 O10"
_cell_length_a       6.636722498537659
_cell_length_b       10.973721045750038
_cell_length_c       12.824375309130996
_cell_angle_alpha    79.9734413355199
_cell_angle_beta     73.77926730987429
_cell_angle_gamma    72.41474939856658

_space_group_name_H-M_alt    "P 1"
_space_group_IT_number       1

loop_
  _space_group_symop_operation_xyz
  'x, y, z'

loop_
  _atom_site_type_symbol
  _atom_site_label
  _atom_site_symmetry_multiplicity
  _atom_site_fract_x
  _atom_site_fract_y
  _atom_site_fract_z
  _atom_site_occupancy
  Al  Al1       1.0  0.5000661461512621  0.49335103060391816  0.49798487712393336  1.0000
  Al  Al2       1.0  0.9974249091390635  0.49979017600170994  0.497434811000936  1.0000
  H   H1        1.0  0.2145458076854754  0.41633375416763835  0.6288736075031167  1.0000
  H   H2        1.0  0.6973102882632672  0.6524468701931382  0.43406514040970035  1.0000
  H   H3        1.0  0.7691409211730615  0.40934096520394553  0.1448269115170291  1.0000
  H   H4        1.0  0.07811339723095063  0.9011697468567518  0.3257274497849281  1.0000
  H   H5        1.0  0.8170187446959147  0.9037596782971209  0.4113116992947212  1.0000
  H   H6        1.0  0.7355348696078394  0.12818902006414848  0.3946040646848346  1.0000
  H   H7        1.0  0.006479637845998834  0.12314789436977948  0.3213252196319517  1.0000
  H   H8        1.0  0.6428514765584693  0.09864511582122051  0.5987127680721329  1.0000
  H   H9        1.0  0.8318221191031795  0.09702368277109488  0.6725781701973618  1.0000
  H   H10       1.0  0.7577199846745657  0.873437719943837  0.6153918519528646  1.0000
  H   H11       1.0  0.9667702452095743  0.8743912933966411  0.6753622987580671  1.0000
  H   H12       1.0  0.3834081844179312  0.8967059375506776  0.4122862160476828  1.0000
  H   H13       1.0  0.3449493005386801  0.8733051564798515  0.5550213601472436  1.0000
  H   H14       1.0  0.22339895009092461  0.09550036411125969  0.5665656695655273  1.0000
  H   H15       1.0  0.28828077611791514  0.11810430799152266  0.4235481600841099  1.0000
  C   C1        1.0  0.8770376269450612  0.26874286467909053  0.49512943059623654  1.0000
  C   C2        1.0  0.6331749260805497  0.4969417034119629  0.6951684435240681  1.0000
  C   C3        1.0  0.12793736387740764  0.7283652663878043  0.4986489147191407  1.0000
  C   C4        1.0  0.36412086639226987  0.49293017348907847  0.30419244573285914  1.0000
  C   C5        1.0  0.3744923613197599  0.5432801986117184  0.885386509874941  1.0000
  C   C6        1.0  0.6209707188527175  0.44874271912942015  0.11588495147235993  1.0000
  C   C7        1.0  0.5754636267632878  0.49774609784061136  0.8143056484979142  1.0000
  C   C8        1.0  0.41871055335384016  0.4921625627793417  0.18502554335099575  1.0000
  C   C9        1.0  0.6042010528452267  0.464516480741615  0.006545968529522378  1.0000
  C   C10       1.0  0.38987635736723547  0.5226743471344121  0.9952021674767199  1.0000
  C   C11       1.0  0.9633906354971987  0.9358856702454403  0.401567223226138  1.0000
  C   C12       1.0  0.9071848163748301  0.08424030085437549  0.3960718480725021  1.0000
  C   C13       1.0  0.9501732930654329  0.12336504736538248  0.49650404999087533  1.0000
  C   C14       1.0  0.8155476928742474  0.06324707596867539  0.6001978978686537  1.0000
  C   C15       1.0  0.8940897614731754  0.9148775464548891  0.605305692286834  1.0000
  C   C16       1.0  0.06576483219078726  0.873490366129552  0.4993699353525614  1.0000
  C   C17       1.0  0.2643937747661131  0.9229128576116632  0.48932984627315096  1.0000
  C   C18       1.0  0.19363573548206153  0.07009044792932428  0.493990022816739  1.0000
  S   S1        1.0  0.7833334052787962  0.43293139008432036  0.8820813490513189  1.0000
  S   S2        1.0  0.20746390552365332  0.5532164890806825  0.11879722237656411  1.0000
  Cl  Cl1       1.0  0.135730109745616  0.6221397559938066  0.8490906553323044  1.0000
  O   O1        1.0  0.6725610225311911  0.3216886655915872  0.5156910765755356  1.0000
  O   O2        1.0  0.8366732984449428  0.474498165813749  0.6486989369972351  1.0000
  O   O3        1.0  0.9733010394627899  0.6754654123926044  0.5151646002988244  1.0000
  O   O4        1.0  0.5198460312328737  0.46616441885537796  0.3510000239550095  1.0000
  O   O5        1.0  0.3300377490126183  0.6695230465777084  0.4789751349087724  1.0000
  O   O6        1.0  0.16122514646689734  0.5229171899279946  0.35056538928849085  1.0000
  O   O7        1.0  0.022621051950373897  0.3284729813788729  0.47480314889957503  1.0000
  O   O8        1.0  0.47904941230572723  0.5155847673063646  0.6485188684210216  1.0000
  O   O9        1.0  0.24754255844884915  0.43911377812340646  0.5506433835677883  1.0000
  O   O10       1.0  0.7413663248939102  0.5598597333127272  0.4500286041144791  1.0000
