data_image0
_chemical_formula_structural       Cd12H32C16S8N40O24
_chemical_formula_sum              "Cd12 H32 C16 S8 N40 O24"
_cell_length_a       8.602908167009929
_cell_length_b       10.605256299167952
_cell_length_c       17.23624527636819
_cell_angle_alpha    95.92694578060441
_cell_angle_beta     89.9998472040238
_cell_angle_gamma    90.00009826460064

_space_group_name_H-M_alt    "P 1"
_space_group_IT_number       1

loop_
  _space_group_symop_operation_xyz
  'x, y, z'

loop_
  _atom_site_type_symbol
  _atom_site_label
  _atom_site_symmetry_multiplicity
  _atom_site_fract_x
  _atom_site_fract_y
  _atom_site_fract_z
  _atom_site_occupancy
  Cd  Cd1       1.0  0.8571113166395393  0.18334772104210367  0.9452400896569984  1.0000
  Cd  Cd2       1.0  0.35711001372419554  0.8166523511578422  0.5547585557333078  1.0000
  Cd  Cd3       1.0  0.1428896038639564  0.8166514765211448  0.0547592870723648  1.0000
  Cd  Cd4       1.0  0.6428897443832255  0.18334684203463067  0.4452402405525361  1.0000
  Cd  Cd5       1.0  0.5663539508007035  0.3386417379212006  0.08875634030511037  1.0000
  Cd  Cd6       1.0  0.06635041693684231  0.6613564855074826  0.41124270302717025  1.0000
  Cd  Cd7       1.0  0.4336469697027923  0.6613574596420476  0.9112430364242525  1.0000
  Cd  Cd8       1.0  0.9336458539730758  0.3386427207931817  0.5887578345936078  1.0000
  Cd  Cd9       1.0  0.2378360497639491  0.3665283046009336  0.9413423847831478  1.0000
  Cd  Cd10      1.0  0.7378345533100514  0.6334716392743401  0.5586581517817635  1.0000
  Cd  Cd11      1.0  0.762163708341923  0.6334708929616256  0.0586569919469397  1.0000
  Cd  Cd12      1.0  0.26216404239749375  0.36652851064383907  0.441341862948981  1.0000
  H   H1        1.0  0.8713641066163546  0.9084245195263918  0.12363109828520177  1.0000
  H   H2        1.0  0.3713618838236954  0.09157692264844292  0.3763694758714137  1.0000
  H   H3        1.0  0.12863681389023182  0.0915746692966906  0.8763671175556593  1.0000
  H   H4        1.0  0.6286367118809082  0.9084251363524345  0.6236323953034173  1.0000
  H   H5        1.0  0.9151961508614123  0.04550573647024691  0.08582178530602387  1.0000
  H   H6        1.0  0.4151955434716754  0.9544938617084854  0.41417861867342504  1.0000
  H   H7        1.0  0.08480593204294001  0.9544953526960499  0.9141771260897043  1.0000
  H   H8        1.0  0.5848042146304097  0.0455062969505562  0.5858225569450823  1.0000
  H   H9        1.0  0.4502465003580625  0.9527358778292835  0.8416724321630509  1.0000
  H   H10       1.0  0.950245561815116  0.0472633699332263  0.6583277800013078  1.0000
  H   H11       1.0  0.5497532577485131  0.0472623673769732  0.15832630656711896  1.0000
  H   H12       1.0  0.049751871490173  0.9527367930945235  0.34167397606290706  1.0000
  H   H13       1.0  0.5066949969660044  0.0947496466061466  0.8849849891802604  1.0000
  H   H14       1.0  0.006694721227951601  0.9052500144461035  0.6150146768705651  1.0000
  H   H15       1.0  0.4933047611405713  0.9052485986001102  0.11501374954990946  1.0000
  H   H16       1.0  0.9933050368749788  0.0947510921991537  0.384986556303616  1.0000
  H   H17       1.0  0.6982886644426075  0.12035658669636717  0.7763920028293467  1.0000
  H   H18       1.0  0.1982865924081665  0.8796423579275727  0.7236079454181308  1.0000
  H   H19       1.0  0.3017087688632429  0.8796407236325477  0.22360841967935835  1.0000
  H   H20       1.0  0.8017131656968675  0.12035589164877078  0.2763913737562901  1.0000
  H   H21       1.0  0.6958479335896683  0.19414745973747932  0.6915907012433846  1.0000
  H   H22       1.0  0.19584409085285873  0.8058524212372759  0.8084081467385927  1.0000
  H   H23       1.0  0.30415298690989095  0.8058507985797263  0.30840977881879883  1.0000
  H   H24       1.0  0.8041545048545516  0.19414582833837812  0.19159117243655285  1.0000
  H   H25       1.0  0.32789446504730085  0.3998180315793007  0.7683229028990792  1.0000
  H   H26       1.0  0.8278954616272217  0.60018295833342  0.7316764171939096  1.0000
  H   H27       1.0  0.6721018058617717  0.6001802267351479  0.23167757716603174  1.0000
  H   H28       1.0  0.17210662127333617  0.3998190919293521  0.26832429309023803  1.0000
  H   H29       1.0  0.24973857508400243  0.389072025986664  0.6745918408341536  1.0000
  H   H30       1.0  0.7497356065079117  0.6109307715901479  0.8254082730016847  1.0000
  H   H31       1.0  0.7502611830189211  0.6109290806585932  0.32540939234002747  1.0000
  H   H32       1.0  0.2502664763948985  0.38907032194622804  0.17459121883829445  1.0000
  C   C1        1.0  0.7725931529218713  0.9276154045630421  0.019946376626222694  1.0000
  C   C2        1.0  0.2725891735577263  0.07238497687350082  0.48005484450290226  1.0000
  C   C3        1.0  0.22740776758232786  0.072382840643904  0.9800523621032224  1.0000
  C   C4        1.0  0.7274082597477048  0.9276170864967667  0.5199476071169115  1.0000
  C   C5        1.0  0.6142233779228476  0.9486656094774873  0.9262902946052944  1.0000
  C   C6        1.0  0.1142215244116329  0.051335131435664  0.5737098743619454  1.0000
  C   C7        1.0  0.38577754258134433  0.05133263572945881  0.07370844412414358  1.0000
  C   C8        1.0  0.8857782336912976  0.9486659752095934  0.4262913588122359  1.0000
  C   C9        1.0  0.8904761549651851  0.2267571747075934  0.7603762884054104  1.0000
  C   C10       1.0  0.3904726109157012  0.7732410454522027  0.7396227804040122  1.0000
  C   C11       1.0  0.1095247655319866  0.7732401399934831  0.23962471454535003  1.0000
  C   C12       1.0  0.6095271471910166  0.2267591000965794  0.26037665388175657  1.0000
  C   C13       1.0  0.110237782166891  0.3231942323601729  0.7579028005555484  1.0000
  C   C14       1.0  0.6102365596757835  0.6768112393883142  0.7420970807523942  1.0000
  C   C15       1.0  0.889753839160406  0.6768068524298342  0.24209553040250847  1.0000
  C   C16       1.0  0.3897655232278722  0.3231908021342846  0.25790246864325167  1.0000
  S   S1        1.0  0.6273998415061613  0.40597417568456245  0.8904911067524919  1.0000
  S   S2        1.0  0.1273989397251043  0.5940256328673854  0.6095089881053113  1.0000
  S   S3        1.0  0.3726010789974765  0.5940269222212109  0.10950896553246278  1.0000
  S   S4        1.0  0.872601980776146  0.4059745214222519  0.39049160706822045  1.0000
  S   S5        1.0  0.9579029481866499  0.35375548386080174  0.09178264084485478  1.0000
  S   S6        1.0  0.4579063730382344  0.6462413166326471  0.4082169563695998  1.0000
  S   S7        1.0  0.0420944851222913  0.6462418177279403  0.9082166207753557  1.0000
  S   S8        1.0  0.5420980346572861  0.3537569329464533  0.5917823628019006  1.0000
  N   N1        1.0  0.7321916875686085  0.009375271382452898  0.9679248291748618  1.0000
  N   N2        1.0  0.2321897097955485  0.9906246657995368  0.5320757144811877  1.0000
  N   N3        1.0  0.26780923293320313  0.9906220302083568  0.03207443244315299  1.0000
  N   N4        1.0  0.7678088859066677  0.009376449585204198  0.46792667958222717  1.0000
  N   N5        1.0  0.6888771879477105  0.8216490212498258  0.011189793362135  1.0000
  N   N6        1.0  0.18887570978337462  0.1783512521788992  0.4888103720466289  1.0000
  N   N7        1.0  0.3111248949566416  0.178352067916471  0.9888091180335933  1.0000
  N   N8        1.0  0.8111228859236164  0.8216517504381073  0.5111909762396251  1.0000
  N   N9        1.0  0.5847261918418027  0.8359136634162567  0.9507372661809297  1.0000
  N   N10       1.0  0.0847258687509509  0.16408704689057163  0.549263520285983  1.0000
  N   N11       1.0  0.41527589106240737  0.1640855254075078  0.049260949659199596  1.0000
  N   N12       1.0  0.9152750517487576  0.8359131117691591  0.4507376553317996  1.0000
  N   N13       1.0  0.8911331802943749  0.9503421414814217  0.0737609510036137  1.0000
  N   N14       1.0  0.3911317652715383  0.04965838488971029  0.4262407016500588  1.0000
  N   N15       1.0  0.1088677402091278  0.04965705608183411  0.9262384257257421  1.0000
  N   N16       1.0  0.6088679928322307  0.9503436697417699  0.5737605890797963  1.0000
  N   N17       1.0  0.5410403127952961  0.0041580966404382  0.8667586009543198  1.0000
  N   N18       1.0  0.04103896810431001  0.9958416095074227  0.6332416023944987  1.0000
  N   N19       1.0  0.458961770108914  0.9958410921833336  0.13323961488581657  1.0000
  N   N20       1.0  0.958960789997775  0.004158549151611599  0.3667595732240087  1.0000
  N   N21       1.0  0.982082580250044  0.2900934111833919  0.7129088349376431  1.0000
  N   N22       1.0  0.4820809740940817  0.70990777467199  0.7870920327880739  1.0000
  N   N23       1.0  0.017918340249806906  0.7099086478188639  0.2870930362357313  1.0000
  N   N24       1.0  0.5179199464102594  0.2900923708774812  0.21290740149696313  1.0000
  N   N25       1.0  0.9523562019218232  0.22472983331140747  0.8309067693735341  1.0000
  N   N26       1.0  0.4523565260226404  0.7752703561995489  0.6690923368068622  1.0000
  N   N27       1.0  0.0476423937885286  0.7752665071815487  0.16909069335752488  1.0000
  N   N28       1.0  0.5476432320849227  0.22473073733545598  0.3309071550345734  1.0000
  N   N29       1.0  0.0978894009666291  0.2856022527241108  0.8296797232733012  1.0000
  N   N30       1.0  0.5978886409799671  0.7143975252049728  0.6703209891016896  1.0000
  N   N31       1.0  0.9021091947385359  0.714396953577932  0.17032081434602017  1.0000
  N   N32       1.0  0.4021111171275962  0.2856035683300249  0.3296785027397461  1.0000
  N   N33       1.0  0.7611001346448704  0.15938557570134293  0.7347596221962645  1.0000
  N   N34       1.0  0.2610989204647964  0.8406162917327434  0.7652410002538799  1.0000
  N   N35       1.0  0.23889613626504771  0.8406136305993287  0.26524091542451333  1.0000
  N   N36       1.0  0.7389008376402302  0.15938195784359266  0.23475831892054086  1.0000
  N   N37       1.0  0.23320098670615866  0.3871050678509178  0.7327601063628818  1.0000
  N   N38       1.0  0.7332006577252203  0.6128958228851715  0.7672410740240991  1.0000
  N   N39       1.0  0.766798771398868  0.6128931817254255  0.267239212811539  1.0000
  N   N40       1.0  0.26680142517857774  0.3871081189799528  0.23275917092714585  1.0000
  O   O1        1.0  0.6328454065292632  0.309744910259333  0.9528446477066477  1.0000
  O   O2        1.0  0.1328473652218847  0.690256800724022  0.5471555554196073  1.0000
  O   O3        1.0  0.36715435157830006  0.6902561832756646  0.04715484413478779  1.0000
  O   O4        1.0  0.867154717674744  0.3097443102927002  0.4528462581973613  1.0000
  O   O5        1.0  0.4551755932884731  0.4119562582295019  0.8663644824038597  1.0000
  O   O6        1.0  0.9551736007267096  0.5880429866370492  0.6336345626803987  1.0000
  O   O7        1.0  0.5448241648173991  0.5880429393330572  0.13363489432622794  1.0000
  O   O8        1.0  0.04482731977524419  0.4119562152962928  0.3663653944932078  1.0000
  O   O9        1.0  0.6535944902966548  0.5395924167966228  0.9363029824765687  1.0000
  O   O10       1.0  0.1535935517829827  0.4604093187889618  0.5636971945850887  1.0000
  O   O11       1.0  0.3464087549989969  0.460406789508177  0.06369755513983219  1.0000
  O   O12       1.0  0.8464073687191133  0.5395917834868982  0.4363034581441098  1.0000
  O   O13       1.0  0.8058393134714521  0.43323984173913044  0.10070806900686338  1.0000
  O   O14       1.0  0.30583913140544183  0.5667596180259835  0.3992913114653547  1.0000
  O   O15       1.0  0.1941604446352656  0.5667603038096516  0.8992913652788983  1.0000
  O   O16       1.0  0.6941617890966542  0.4332414842498764  0.6007093412638509  1.0000
  O   O17       1.0  0.9991020371066879  0.34886363531575876  0.0037289078414630998  1.0000
  O   O18       1.0  0.4991003524005749  0.6511370059727993  0.49627086784177976  1.0000
  O   O19       1.0  0.0008988833976531001  0.6511365102337121  0.996270526443574  1.0000
  O   O20       1.0  0.5008982433078231  0.34886409193159557  0.5037292044446318  1.0000
  O   O21       1.0  0.8984089514811375  0.21853408713885616  0.09897258942354628  1.0000
  O   O22       1.0  0.3984185115140875  0.7814635558366732  0.4010224965291583  1.0000
  O   O23       1.0  0.1015815074552719  0.7814641274712812  0.9010220862027223  1.0000
  O   O24       1.0  0.6015905457828835  0.21853656349710351  0.5989734550852714  1.0000
