data_image0
_chemical_formula_structural       Cu2H32C30N14O14
_chemical_formula_sum              "Cu2 H32 C30 N14 O14"
_cell_length_a       9.191026372352903
_cell_length_b       9.229929915841216
_cell_length_c       11.837446095541416
_cell_angle_alpha    101.95565538847283
_cell_angle_beta     93.10569001497724
_cell_angle_gamma    94.1024598820784

_space_group_name_H-M_alt    "P 1"
_space_group_IT_number       1

loop_
  _space_group_symop_operation_xyz
  'x, y, z'

loop_
  _atom_site_type_symbol
  _atom_site_label
  _atom_site_symmetry_multiplicity
  _atom_site_fract_x
  _atom_site_fract_y
  _atom_site_fract_z
  _atom_site_occupancy
  Cu  Cu1       1.0  0.6826607990225213  0.6223831620431072  0.8751702286459916  1.0000
  Cu  Cu2       1.0  0.3173395964171917  0.3776119334407042  0.12482644894781461  1.0000
  H   H1        1.0  0.865539202725202  0.37916006005919195  0.782069643298179  1.0000
  H   H2        1.0  0.1344579844767466  0.6208239559983185  0.2179174957964634  1.0000
  H   H3        1.0  0.9295017487016037  0.257390418241954  0.5824692614341345  1.0000
  H   H4        1.0  0.070482320095671  0.7426048577631404  0.4175166196311366  1.0000
  H   H5        1.0  0.8452262638013863  0.35800339359926875  0.41324211218604745  1.0000
  H   H6        1.0  0.1547792594769746  0.6420116842096846  0.5867521149780757  1.0000
  H   H7        1.0  0.648803751611119  0.6966478357907775  0.6523378897294378  1.0000
  H   H8        1.0  0.3511866371117165  0.30334512371315003  0.347664777022004  1.0000
  H   H9        1.0  0.7190137203414794  0.5476196405642992  0.34601259258192124  1.0000
  H   H10       1.0  0.28099605102154607  0.4523942652619439  0.6539917606375383  1.0000
  H   H11       1.0  0.53187528046805  0.6646320844417912  0.27330228141233437  1.0000
  H   H12       1.0  0.46814387333400026  0.33537726635491777  0.7267084855962977  1.0000
  H   H13       1.0  0.4302721782688366  0.9269311428902326  0.41091955913455536  1.0000
  H   H14       1.0  0.5697413822458586  0.0730649218360071  0.5890845893630896  1.0000
  H   H15       1.0  0.4101317698053535  0.8602830093947559  0.25896579207462617  1.0000
  H   H16       1.0  0.5898745813047553  0.13971756592302853  0.7410455434951544  1.0000
  H   H17       1.0  0.5372998132503213  0.1090058622671535  0.3061637380347975  1.0000
  H   H18       1.0  0.4627057608070402  0.8909980666295565  0.6938430409949348  1.0000
  H   H19       1.0  0.6684749584733396  0.056935603256548  0.4018080804297596  1.0000
  H   H20       1.0  0.33153632219699597  0.9430593761231737  0.5981932612405245  1.0000
  H   H21       1.0  0.6716272231142497  0.8596350945624422  0.18247499458972533  1.0000
  H   H22       1.0  0.3283786655860581  0.1403487932498351  0.8175369891761193  1.0000
  H   H23       1.0  0.8946836331475936  0.8318724575063356  0.14926715815658304  1.0000
  H   H24       1.0  0.10531400924312348  0.16812820786576305  0.850742135224813  1.0000
  H   H25       1.0  0.1046179910207883  0.7570124775338625  0.06732272158065197  1.0000
  H   H26       1.0  0.895365758149076  0.24297941336113368  0.9326930079772494  1.0000
  H   H27       1.0  0.360721569021173  0.8261781521136412  0.029052649317193882  1.0000
  H   H28       1.0  0.6392722945748233  0.17379360946974026  0.9709627704770512  1.0000
  H   H29       1.0  0.4520016923220425  0.09723485816401478  0.06675111900611339  1.0000
  H   H30       1.0  0.5480009884079422  0.9027379516364393  0.9332504817241656  1.0000
  H   H31       1.0  0.0498977428969667  0.225154497019993  0.17873244672479416  1.0000
  H   H32       1.0  0.9501008947129108  0.7748450983883404  0.8212454580099545  1.0000
  C   C1        1.0  0.8313544315020777  0.41982010903883793  0.7057675450622584  1.0000
  C   C2        1.0  0.16864285716087576  0.5801650085136174  0.2942256907264493  1.0000
  C   C3        1.0  0.8661944368048253  0.3541409330940438  0.5947399070455788  1.0000
  C   C4        1.0  0.13380010335570347  0.6458497783928292  0.40525158741191797  1.0000
  C   C5        1.0  0.8209294551250537  0.4122120606170725  0.5004944406821039  1.0000
  C   C6        1.0  0.1790776783867258  0.5877851894113562  0.4995045606997195  1.0000
  C   C7        1.0  0.741398568981829  0.5387990389412066  0.5189908822436351  1.0000
  C   C8        1.0  0.2586055044234925  0.46120046234588585  0.4810108902075711  1.0000
  C   C9        1.0  0.709015374098385  0.5986210061758398  0.633224527691432  1.0000
  C   C10       1.0  0.29098382801419126  0.4013729817424547  0.36677614350566046  1.0000
  C   C11       1.0  0.6329766255723328  0.7360127867636449  0.4379597278332952  1.0000
  C   C12       1.0  0.3670322613931418  0.2640033400280544  0.5620525519528599  1.0000
  C   C13       1.0  0.4899979547205291  0.8886195355959144  0.33414774060418034  1.0000
  C   C14       1.0  0.5100015544495093  0.1113777709520036  0.6658627753111119  1.0000
  C   C15       1.0  0.5991588849673377  0.016215315115843502  0.3211974410935028  1.0000
  C   C16       1.0  0.4008434787126943  0.9837775230387323  0.6788065557282721  1.0000
  C   C17       1.0  0.8267178967082671  0.03604165476731679  0.22443266461834097  1.0000
  C   C18       1.0  0.17326545687754452  0.9639224845786245  0.7755455928171812  1.0000
  C   C19       1.0  0.0587439654198008  0.985603222895918  0.13268255567168546  1.0000
  C   C20       1.0  0.9412443511947044  0.014390879711982106  0.8673142959853236  1.0000
  C   C21       1.0  0.1479815319474369  0.8733307590581133  0.08630826424496969  1.0000
  C   C22       1.0  0.852004500543579  0.1266622355716152  0.9136992931670846  1.0000
  C   C23       1.0  0.2901255247539041  0.9121064633199936  0.06316048353012596  1.0000
  C   C24       1.0  0.7098634146307815  0.087870922491021  0.9368480394356025  1.0000
  C   C25       1.0  0.3413674077963122  0.06126531098601617  0.0829123564541092  1.0000
  C   C26       1.0  0.6586273924839218  0.9387164885259761  0.9170836143835144  1.0000
  C   C27       1.0  0.11597374435486071  0.1344023492854589  0.1469625802909178  1.0000
  C   C28       1.0  0.8840211074097085  0.8655917048771684  0.853024401765971  1.0000
  C   C29       1.0  0.4991274836320229  0.42665817665883315  0.956853243700543  1.0000
  C   C30       1.0  0.5008796455036161  0.5733624500573882  0.04314026322656158  1.0000
  N   N1        1.0  0.7532396741966921  0.5393571357050533  0.7223013411351431  1.0000
  N   N2        1.0  0.24675860005736894  0.4606268609624138  0.2776909093173501  1.0000
  N   N3        1.0  0.6930946066971231  0.5980465951232573  0.4266854991586442  1.0000
  N   N4        1.0  0.3069183275705853  0.4019661680116612  0.5733179570034892  1.0000
  N   N5        1.0  0.5573714899679914  0.7526462773178153  0.34085503939386536  1.0000
  N   N6        1.0  0.44263558848565043  0.24736209899121053  0.659144922704769  1.0000
  N   N7        1.0  0.6915034039998886  0.966666689777696  0.22718174586545803  1.0000
  N   N8        1.0  0.3084993198266091  0.0333417301440022  0.7728180396753787  1.0000
  N   N9        1.0  0.9186129027354966  0.9447985617743128  0.15713659572624286  1.0000
  N   N10       1.0  0.0813860395248227  0.0552043395333399  0.8428587545543209  1.0000
  N   N11       1.0  0.2531517474879976  0.16858916512809688  0.12140590087308567  1.0000
  N   N12       1.0  0.7468485467581659  0.8314048302752468  0.8785838354902468  1.0000
  N   N13       1.0  0.8235103738871032  0.5530693839035052  0.09750250619453028  1.0000
  N   N14       1.0  0.17649809643953773  0.4469656796487128  0.9025001612342364  1.0000
  O   O1        1.0  0.6474151810981681  0.832285151249458  0.5289460555677934  1.0000
  O   O2        1.0  0.3525872867173235  0.1677088025448441  0.4710555925840367  1.0000
  O   O3        1.0  0.8640845863505646  0.16557113067695178  0.2764951556035058  1.0000
  O   O4        1.0  0.13590714293138012  0.8344596621534633  0.7234993536852699  1.0000
  O   O5        1.0  0.5708149310327358  0.4254353176788541  0.8680751622827145  1.0000
  O   O6        1.0  0.42918156951517966  0.5745764947783556  0.13192913592123995  1.0000
  O   O7        1.0  0.8660772662844919  0.5788064500514237  0.0019523944531698882  1.0000
  O   O8        1.0  0.1339380839972648  0.42126746551681993  0.9980653236322468  1.0000
  O   O9        1.0  0.74717769098541  0.4351619036366258  0.1003455795253814  1.0000
  O   O10       1.0  0.2528365476984931  0.5648531194799703  0.8996295764171193  1.0000
  O   O11       1.0  0.8565833175963107  0.6503037416326904  0.19040417632953677  1.0000
  O   O12       1.0  0.1434077361908805  0.34970810695214993  0.8096108801503801  1.0000
  O   O13       1.0  0.4250013861915392  0.3154489926350124  0.9780005188984119  1.0000
  O   O14       1.0  0.5749986439232301  0.6845538935260292  0.021997409130804568  1.0000
