data_image0
_chemical_formula_structural       Zn6H24C52I4O24
_chemical_formula_sum              "Zn6 H24 C52 I4 O24"
_cell_length_a       18.51377410515763
_cell_length_b       18.53424899121643
_cell_length_c       20.719075599746013
_cell_angle_alpha    63.40527811751584
_cell_angle_beta     63.43884115451918
_cell_angle_gamma    89.9775308657574

_space_group_name_H-M_alt    "P 1"
_space_group_IT_number       1

loop_
  _space_group_symop_operation_xyz
  'x, y, z'

loop_
  _atom_site_type_symbol
  _atom_site_label
  _atom_site_symmetry_multiplicity
  _atom_site_fract_x
  _atom_site_fract_y
  _atom_site_fract_z
  _atom_site_occupancy
  Zn  Zn1       1.0  0.42992807288668194  0.5000064204586608  0.9999888195208013  1.0000
  Zn  Zn2       1.0  0.54059543350202  0.04061148691739899  0.9188005627357754  1.0000
  Zn  Zn3       1.0  0.4593508717680948  0.9593728247275094  0.08121328235616691  1.0000
  Zn  Zn4       1.0  0.5701244660055738  0.4999959611634849  6.8556788192952645e-06  1.0000
  Zn  Zn5       1.0  0.9998199345099509  0.0701289570753759  0.9999897255520764  1.0000
  Zn  Zn6       1.0  0.9998077856141382  0.9298711503699835  0.99999601363519  1.0000
  H   H1        1.0  0.352711786011291  0.4088891759028853  0.49249127904419515  1.0000
  H   H2        1.0  0.829304482883984  0.582023576958484  0.5075235705656311  1.0000
  H   H3        1.0  0.8144088431262023  0.5832717709120133  0.5981544659140569  1.0000
  H   H4        1.0  0.728765279608503  0.5402231163302246  0.597894639235136  1.0000
  H   H5        1.0  0.4237409305611949  0.4048894642510845  0.4018337398849424  1.0000
  H   H6        1.0  0.34251318568922073  0.4562250707728239  0.4021193108086861  1.0000
  H   H7        1.0  0.8468748434524543  0.9003397110848114  0.507468742694769  1.0000
  H   H8        1.0  0.7462913512935717  0.8578444331380269  0.5978482611593133  1.0000
  H   H9        1.0  0.8266641631514562  0.8053578390658203  0.5981310216270328  1.0000
  H   H10       1.0  0.3386041699276633  0.09041283722412902  0.49251493506951494  1.0000
  H   H11       1.0  0.32842058549484693  0.13841801562781342  0.40215141913422064  1.0000
  H   H12       1.0  0.41387371924335525  0.1826398649817875  0.4018596218515995  1.0000
  H   H13       1.0  0.4298144898811885  0.23735093935583504  0.5089193774650694  1.0000
  H   H14       1.0  0.35813916152495306  0.24135016961582087  0.5991606710786214  1.0000
  H   H15       1.0  0.3538898468272934  0.14564596453507042  0.5991931338581012  1.0000
  H   H16       1.0  0.9386003320546908  0.7442834928362032  0.49106934794340856  1.0000
  H   H17       1.0  0.9524885524530763  0.7431945164317567  0.4008119232647758  1.0000
  H   H18       1.0  0.9577549978151938  0.8388396742068523  0.40080598339013557  1.0000
  H   H19       1.0  0.06951393629639574  0.26226167075543577  0.4918303069303248  1.0000
  H   H20       1.0  0.14510084294666115  0.3542618486491024  0.40135580880717464  1.0000
  H   H21       1.0  0.14086057010140965  0.2582537915199979  0.4013706087887954  1.0000
  H   H22       1.0  0.5613991829809354  0.7560948711826685  0.5081820167401716  1.0000
  H   H23       1.0  0.5417138908128722  0.6613175264002962  0.5986563097513979  1.0000
  H   H24       1.0  0.5470102512579162  0.7572797977719785  0.5986366094623746  1.0000
  C   C1        1.0  0.5000095930318977  0.6397182936964327  2.2772571092858572e-05  1.0000
  C   C2        1.0  0.6630697960341652  0.6631297120798224  0.6737080589332648  1.0000
  C   C3        1.0  0.9254303630368954  0.772283616441534  0.43941151397405054  1.0000
  C   C4        1.0  0.13407634733937365  0.2866233801492442  0.43971293365600417  1.0000
  C   C5        1.0  0.5738080895664553  0.7279075943703857  0.5602994352308456  1.0000
  C   C6        1.0  0.33678317731735075  0.3367943745456826  0.32628513199810527  1.0000
  C   C7        1.0  0.16322162583532673  0.16304381098466092  0.6738665631964479  1.0000
  C   C8        1.0  0.8370957608925454  0.8369503002165429  0.32611299615921735  1.0000
  C   C9        1.0  0.5000055052391733  0.7174396553775465  4.018191781781332e-05  1.0000
  C   C10       1.0  0.5000228930962152  0.28253901793494424  0.9999886611029609  1.0000
  C   C11       1.0  0.4999736197602049  0.36027081633276486  0.9999931104693116  1.0000
  C   C12       1.0  0.5000709575198458  0.7830686261915574  0.999958095210772  1.0000
  C   C13       1.0  0.4999605710161888  0.21692461551533168  4.8633315252243344e-05  1.0000
  C   C14       1.0  0.8601512522112105  0.999983136424234  5.910492667702527e-06  1.0000
  C   C15       1.0  0.08057164356513628  0.08028673309870293  0.8392006853938055  1.0000
  C   C16       1.0  0.9197287863478609  0.9196516130908563  0.16078367863408258  1.0000
  C   C17       1.0  0.1396277035348774  2.092177804509255e-05  1.2083775722303057e-05  1.0000
  C   C18       1.0  0.6390429773124142  0.9999302841356081  9.823097150261817e-05  1.0000
  C   C19       1.0  0.5000010845395765  0.860688230054329  0.9999316247571457  1.0000
  C   C20       1.0  0.49988697307331637  0.13930368873222687  6.399089293290683e-05  1.0000
  C   C21       1.0  0.4197084384028288  0.4194510669816011  0.1609143910803041  1.0000
  C   C22       1.0  0.5805677335199065  0.5805046328147867  0.8390750286241301  1.0000
  C   C23       1.0  0.36078316486775464  5.628450882281637e-05  0.9999283624384177  1.0000
  C   C24       1.0  0.7823504429714845  5.071305132248366e-06  1.1048245014027059e-05  1.0000
  C   C25       1.0  0.7166772547717459  0.9999553734114883  7.421010422340541e-05  1.0000
  C   C26       1.0  0.21743913275519602  0.9999814709016661  2.7646503717277846e-05  1.0000
  C   C27       1.0  0.3054718542112128  0.2328576705904054  0.5281104422733804  1.0000
  C   C28       1.0  0.28312650707906084  3.7944846674579386e-05  0.9999556004234262  1.0000
  C   C29       1.0  0.20450382463342723  0.29712258375498374  0.5272483561055239  1.0000
  C   C30       1.0  0.732401278883849  0.8247259717384022  0.47271648684124296  1.0000
  C   C31       1.0  0.19925224617229287  0.17869498406105322  0.5273069808334157  1.0000
  C   C32       1.0  0.7258892184320658  0.7064005517293381  0.4727165964238934  1.0000
  C   C33       1.0  0.8335202558304505  0.76024044838924  0.4718639420527992  1.0000
  C   C34       1.0  0.30181303948466387  0.3227454947033692  0.4717964554677464  1.0000
  C   C35       1.0  0.7742233581348262  0.7941528159163909  0.5281577955391725  1.0000
  C   C36       1.0  0.29645423306279656  0.20230619428078714  0.47185545062581724  1.0000
  C   C37       1.0  0.7675859749333757  0.6738103877185537  0.5281611120451755  1.0000
  C   C38       1.0  0.37492515557162426  0.374739439269355  0.25029014030281616  1.0000
  C   C39       1.0  0.6252171006045872  0.6251504244887299  0.7497017450335262  1.0000
  C   C40       1.0  0.12553029045238176  0.12505440884378782  0.7497773607785517  1.0000
  C   C41       1.0  0.8752929308453122  0.8749081289385927  0.2502006670069293  1.0000
  C   C42       1.0  0.19397437533383055  0.2675201972547825  0.47123691322036626  1.0000
  C   C43       1.0  0.665204902717257  0.7395015302863114  0.5287668241325106  1.0000
  C   C44       1.0  0.29252281585475987  0.29294956961849994  0.4141758293717217  1.0000
  C   C45       1.0  0.7066424590421863  0.7071226675505217  0.5858205073677284  1.0000
  C   C46       1.0  0.2065461941550525  0.20695166514245492  0.586191832032668  1.0000
  C   C47       1.0  0.7927379339171525  0.7931822472180059  0.4137843757711223  1.0000
  C   C48       1.0  0.3583251224411158  0.4023867317678197  0.440340314356824  1.0000
  C   C49       1.0  0.7999676358580887  0.8418838299979255  0.559610808181226  1.0000
  C   C50       1.0  0.34716017688691636  0.1507793531811785  0.44037278052336865  1.0000
  C   C51       1.0  0.7860747016205922  0.5904236138866779  0.5596629837335597  1.0000
  C   C52       1.0  0.3649445880919659  0.2132628828824038  0.5605699104202914  1.0000
  I   I1        1.0  0.13259149737879036  0.37058811801549035  0.571452910553539  1.0000
  I   I2        1.0  0.7056176100958069  0.9428938513965619  0.428551863645261  1.0000
  I   I3        1.0  0.11900320716622302  0.0658272876006763  0.5715553637192058  1.0000
  I   I4        1.0  0.6889140218667864  0.6384521225686371  0.42845098828556866  1.0000
  O   O1        1.0  0.43816686443825165  0.609430482263498  0.999994829652536  1.0000
  O   O2        1.0  0.561801464768891  0.3905979004896095  1.0344724877564568e-05  1.0000
  O   O3        1.0  0.5618717610283569  0.6093769169255338  3.6586379543671006e-05  1.0000
  O   O4        1.0  0.3759643275969042  0.43748295469813314  0.12488641023440288  1.0000
  O   O5        1.0  0.5007785301152269  0.5625050433794814  0.8750821328758248  1.0000
  O   O6        1.0  0.4994928221541813  0.43745416143914173  0.12497616848418854  1.0000
  O   O7        1.0  0.624367626744025  0.5625454096857537  0.8750444058987911  1.0000
  O   O8        1.0  0.4380959232978159  0.39058467019615517  0.9999769711870812  1.0000
  O   O9        1.0  0.89044903606257  0.06176490297421102  1.572989901182272e-05  1.0000
  O   O10       1.0  0.8904620244957829  0.9381717824077145  0.9999919386354817  1.0000
  O   O11       1.0  0.06257274430038255  0.12404010337996857  0.8750923934698349  1.0000
  O   O12       1.0  0.9375993929905777  0.999308196315084  0.12490017355311521  1.0000
  O   O13       1.0  0.06254777335875165  0.0006271887314712271  0.8750728525472552  1.0000
  O   O14       1.0  0.9375742941788879  0.8758887565319711  0.12489966526784699  1.0000
  O   O15       1.0  0.10934551441954452  0.06184599795865609  2.2677101881598423e-05  1.0000
  O   O16       1.0  0.1093457805530137  0.9382459532653229  0.9999914852124334  1.0000
  O   O17       1.0  0.5727845117923496  0.9642415265051694  0.07146290781236062  1.0000
  O   O18       1.0  0.6441640087965086  0.03562068853449336  0.9287359114247876  1.0000
  O   O19       1.0  0.4642650851536275  0.8555340464396081  0.07127724419942182  1.0000
  O   O20       1.0  0.5356366149631101  0.9268978373048495  0.9285698622405503  1.0000
  O   O21       1.0  0.46415327441332727  0.0730952155879123  0.07142401936041409  1.0000
  O   O22       1.0  0.5355383655855948  0.14446470963673658  0.9287146532425794  1.0000
  O   O23       1.0  0.35565131971458913  0.9643546292938223  0.07129199291391333  1.0000
  O   O24       1.0  0.42703152553246343  0.035749382357849656  0.9285612041076731  1.0000
