data_image0
_chemical_formula_structural       Zn2H38C38N2O16
_chemical_formula_sum              "Zn2 H38 C38 N2 O16"
_cell_length_a       10.875342019695342
_cell_length_b       10.744987387491124
_cell_length_c       10.861251215542348
_cell_angle_alpha    83.94970667071426
_cell_angle_beta     84.66385315653929
_cell_angle_gamma    89.63433921747766

_space_group_name_H-M_alt    "P 1"
_space_group_IT_number       1

loop_
  _space_group_symop_operation_xyz
  'x, y, z'

loop_
  _atom_site_type_symbol
  _atom_site_label
  _atom_site_symmetry_multiplicity
  _atom_site_fract_x
  _atom_site_fract_y
  _atom_site_fract_z
  _atom_site_occupancy
  Zn  Zn1       1.0  0.3348719369457953  0.5393382131721864  0.5177143293262887  1.0000
  Zn  Zn2       1.0  0.6041631129215476  0.5191813992804342  0.4909886327423011  1.0000
  H   H1        1.0  0.4147959650021988  0.06741249988964876  0.6932507265610824  1.0000
  H   H2        1.0  0.6696254821872714  0.966239541881798  0.3201317401469908  1.0000
  H   H3        1.0  0.3248021538641837  0.9778677617961197  0.4843517857546686  1.0000
  H   H4        1.0  0.7605197952665605  0.061599140537737206  0.5368801429451439  1.0000
  H   H5        1.0  0.8193351841630871  0.8996379048643137  0.4610259132972844  1.0000
  H   H6        1.0  0.3239088849079721  0.28638041646211576  0.578384763243065  1.0000
  H   H7        1.0  0.8284231719540076  0.20304481492167534  0.33024770116190894  1.0000
  H   H8        1.0  0.1705393142213438  0.9248556718530169  0.4087064546919805  1.0000
  H   H9        1.0  0.7348817691612838  0.9885632742336341  0.7915460094470178  1.0000
  H   H10       1.0  0.5796145999253212  0.9883622096941026  0.8586892151102891  1.0000
  H   H11       1.0  0.6788428779121886  0.8622287640732511  0.9005969796624246  1.0000
  H   H12       1.0  0.5356383966229785  0.7965256450230529  0.7520949388421982  1.0000
  H   H13       1.0  0.6884044423271617  0.7967041465918643  0.6848223117654797  1.0000
  H   H14       1.0  0.4823134855302199  0.022690852576602097  0.16958140220023676  1.0000
  H   H15       1.0  0.3312876179833281  0.04946191134881419  0.2392458962442916  1.0000
  H   H16       1.0  0.3980142522078935  0.15706030442886743  0.1167797009585314  1.0000
  H   H17       1.0  0.40392011922493515  0.2405067978991013  0.3239944071641574  1.0000
  H   H18       1.0  0.5536945049120873  0.22358894606324495  0.249523001736776  1.0000
  H   H19       1.0  0.6080758999981698  0.2127202170713716  0.9475299971616097  1.0000
  H   H20       1.0  0.5356623850528308  0.25773245813378043  0.8100985278265824  1.0000
  H   H21       1.0  0.695576013346411  0.2195735901037779  0.7999223502670744  1.0000
  H   H22       1.0  0.6718711860993096  0.45004560564564855  0.7684410485006906  1.0000
  H   H23       1.0  0.7413976259352065  0.4076119515926138  0.9049083807199523  1.0000
  H   H24       1.0  0.12568241947990091  0.46518166555215856  0.07041296884140283  1.0000
  H   H25       1.0  0.1743574757976205  0.4101716423547829  0.21758132627303436  1.0000
  H   H26       1.0  0.0494275728595639  0.5187058549549945  0.20570103488561392  1.0000
  H   H27       1.0  0.24890693183041182  0.6255791056859153  0.2442414835777527  1.0000
  H   H28       1.0  0.19104466144610646  0.6848717379554472  0.1046868652149797  1.0000
  H   H29       1.0  0.745564949390939  0.5960741222152138  0.15953167674627622  1.0000
  H   H30       1.0  0.8588860828406696  0.4783146685307715  0.14078573360832536  1.0000
  H   H31       1.0  0.7948738236608861  0.555371160009514  0.00842575795501691  1.0000
  H   H32       1.0  0.6532907829470531  0.3867492864330515  0.22009946513830414  1.0000
  H   H33       1.0  0.7051542763674234  0.3353217028658833  0.07615471458291978  1.0000
  H   H34       1.0  0.3693657057349497  0.8401438917142133  0.8543263664983414  1.0000
  H   H35       1.0  0.20762043418837806  0.8639384630317366  0.8570354784801069  1.0000
  H   H36       1.0  0.27772725319469055  0.8277732359854327  0.9982037218639803  1.0000
  H   H37       1.0  0.2606925904521447  0.6567833569790408  0.7893790362596819  1.0000
  H   H38       1.0  0.16666369384972773  0.639653824817799  0.9286092997962997  1.0000
  C   C1        1.0  0.4520105397162198  0.5113655931837542  0.1370657520236875  1.0000
  C   C2        1.0  0.4534400679601731  0.5294679599114503  0.8775575896027663  1.0000
  C   C3        1.0  0.45037040490962005  0.5316538312025472  0.7390081156422995  1.0000
  C   C4        1.0  0.4537000363987147  0.5058372733315295  0.2757915765374293  1.0000
  C   C5        1.0  0.5610443714826302  0.2752854790394323  0.5336812371305656  1.0000
  C   C6        1.0  0.5176277365743686  0.761394207820473  0.475094586526005  1.0000
  C   C7        1.0  0.4715230380196117  0.04432739252922597  0.6101240413497707  1.0000
  C   C8        1.0  0.6150211581048666  0.9908381770276193  0.4042094035573813  1.0000
  C   C9        1.0  0.42212364079143333  0.995686679835245  0.49345392562438667  1.0000
  C   C10       1.0  0.6649084036718023  0.040072069742471704  0.5220258635546742  1.0000
  C   C11       1.0  0.577759986728509  0.9442399528596822  0.6084231718097045  1.0000
  C   C12       1.0  0.5083745017377836  0.09015737334880922  0.4058215636470095  1.0000
  C   C13       1.0  0.5264133889126371  0.8963281592357152  0.488950550326436  1.0000
  C   C14       1.0  0.5597289505349892  0.1393671358301134  0.5256621987669449  1.0000
  C   C15       1.0  0.9507866372406111  0.6345759287008336  0.43231191161498833  1.0000
  C   C16       1.0  0.08609011425829752  0.4272826832975199  0.48095316578793057  1.0000
  C   C17       1.0  0.965303149231815  0.42129249067298974  0.4455911181755852  1.0000
  C   C18       1.0  0.07002109927126549  0.642297495760083  0.471205231433359  1.0000
  C   C19       1.0  0.5531738261884129  0.4696101273280534  0.9352974472370335  1.0000
  C   C20       1.0  0.35085557721140503  0.567279868509374  0.07919594753557391  1.0000
  C   C21       1.0  0.5558076165221522  0.46678695360655087  0.0653163181237346  1.0000
  C   C22       1.0  0.35588346640676594  0.5849818946535876  0.9480010262208438  1.0000
  C   C23       1.0  0.8807146293584722  0.7519635571152463  0.39372090355468714  1.0000
  C   C24       1.0  0.1686123688486987  0.3133211825630013  0.49339966402675384  1.0000
  C   C25       1.0  0.9107720325119218  0.29399204058261574  0.43780679402141226  1.0000
  C   C26       1.0  0.1267872950681621  0.7649563097173483  0.4933710246770673  1.0000
  C   C27       1.0  0.6141085904749417  0.8588403870233777  0.7173212787570549  1.0000
  C   C28       1.0  0.6540770947704785  0.9285099486413129  0.8227738417491326  1.0000
  C   C29       1.0  0.4719815389000104  0.17095372078265572  0.2941332417042801  1.0000
  C   C30       1.0  0.4182229049459067  0.0955398793039492  0.1997440410719094  1.0000
  C   C31       1.0  0.6544590296761825  0.40277009825482685  0.8622033417262217  1.0000
  C   C32       1.0  0.6216717370168182  0.2652619688945562  0.8546794666080261  1.0000
  C   C33       1.0  0.23219192996728566  0.6019655566641761  0.151775568049672  1.0000
  C   C34       1.0  0.1400093714491035  0.49256850322936446  0.1627506545593675  1.0000
  C   C35       1.0  0.6717421546964317  0.4176553611890626  0.121138787715104  1.0000
  C   C36       1.0  0.7737861590655797  0.5178681976613719  0.1062356777570272  1.0000
  C   C37       1.0  0.2598385400024696  0.6682470527350192  0.8879378495087878  1.0000
  C   C38       1.0  0.2796053586481051  0.8077322285196686  0.9009004084882477  1.0000
  N   N1        1.0  0.13635605391160507  0.5381318712002284  0.49577706244257774  1.0000
  N   N2        1.0  0.8978987664147837  0.5241374753465778  0.4218430450185693  1.0000
  O   O1        1.0  0.34614820710175553  0.5131187071534599  0.6973711012662137  1.0000
  O   O2        1.0  0.5563040618169666  0.5267445578827292  0.31657980336223807  1.0000
  O   O3        1.0  0.3535553846443235  0.48224664055026517  0.3473956508555318  1.0000
  O   O4        1.0  0.5504384813632868  0.5515317693071183  0.6696636273415139  1.0000
  O   O5        1.0  0.45683554744010024  0.3268348598455973  0.5567073655592482  1.0000
  O   O6        1.0  0.6211465006199575  0.7046620881719364  0.465077423606438  1.0000
  O   O7        1.0  0.41009046625958945  0.7128524476579019  0.4777396458038228  1.0000
  O   O8        1.0  0.6606411064414175  0.34068526613560124  0.5099483610116736  1.0000
  O   O9        1.0  0.8466490571821764  0.7754785115984006  0.29060143218388396  1.0000
  O   O10       1.0  0.8678966624292529  0.8255994815998803  0.4872567281197888  1.0000
  O   O11       1.0  0.1739533110019309  0.23664793981559742  0.4175007999013546  1.0000
  O   O12       1.0  0.23289550944591747  0.31657153006487704  0.59054007639687  1.0000
  O   O13       1.0  0.9122830310189798  0.21039160142932187  0.5225938415316237  1.0000
  O   O14       1.0  0.8667282969855494  0.28575024600235815  0.3274103814942748  1.0000
  O   O15       1.0  0.15767515649991987  0.7845673793665708  0.5941749763562996  1.0000
  O   O16       1.0  0.13614777568212594  0.8456763590793347  0.38900928995017386  1.0000
