data_image0
_chemical_formula_structural       Cd4H20C20I8N4O4
_chemical_formula_sum              "Cd4 H20 C20 I8 N4 O4"
_cell_length_a       6.913160719103382
_cell_length_b       10.988348071701203
_cell_length_c       13.401661473009229
_cell_angle_alpha    107.47405515236524
_cell_angle_beta     89.986317115849
_cell_angle_gamma    90.01118317112193

_space_group_name_H-M_alt    "P 1"
_space_group_IT_number       1

loop_
  _space_group_symop_operation_xyz
  'x, y, z'

loop_
  _atom_site_type_symbol
  _atom_site_label
  _atom_site_symmetry_multiplicity
  _atom_site_fract_x
  _atom_site_fract_y
  _atom_site_fract_z
  _atom_site_occupancy
  Cd  Cd1       1.0  0.24504746840100466  0.07788007714081857  0.053421988111004695  1.0000
  Cd  Cd2       1.0  0.7450514662952371  0.9221842089119149  0.4465973406255301  1.0000
  Cd  Cd3       1.0  0.7549793186045477  0.922108275277672  0.9465587376028424  1.0000
  Cd  Cd4       1.0  0.25497821398992926  0.077816564830151  0.5533842663407498  1.0000
  H   H1        1.0  0.49790939653247074  0.19583806035754492  0.8304947187535349  1.0000
  H   H2        1.0  0.9978447629355001  0.8042002617957137  0.6694994769545062  1.0000
  H   H3        1.0  0.5020494043733023  0.8041406488778762  0.16949553271730622  1.0000
  H   H4        1.0  0.0021545415415857995  0.19581370812377943  0.3305048498808175  1.0000
  H   H5        1.0  0.6109902568002282  0.4145431769673848  0.8300953327933271  1.0000
  H   H6        1.0  0.1110193821515253  0.5854724725015714  0.6698475964777515  1.0000
  H   H7        1.0  0.38900615487174406  0.5854582619236551  0.1699215166763892  1.0000
  H   H8        1.0  0.8889712435106674  0.41454623052455003  0.33016239760699756  1.0000
  H   H9        1.0  0.8053316328509794  0.5463071525597556  0.9819500524996982  1.0000
  H   H10       1.0  0.3054003605885995  0.45355157214894576  0.5180935221871366  1.0000
  H   H11       1.0  0.19468069082988385  0.45370477001804216  0.018070920717107686  1.0000
  H   H12       1.0  0.694588818832436  0.5464584283991626  0.481928463680994  1.0000
  H   H13       1.0  0.8842765839445476  0.453454387707488  0.1282936700151467  1.0000
  H   H14       1.0  0.3842174525261797  0.5464823013497904  0.3718132755902559  1.0000
  H   H15       1.0  0.1157559907666865  0.5465489437033852  0.8717258886155292  1.0000
  H   H16       1.0  0.6157948699358824  0.45349534807925085  0.6281901339846385  1.0000
  H   H17       1.0  0.7572450758152555  0.2337949736694327  0.1166765633921472  1.0000
  H   H18       1.0  0.2572450159034431  0.7661402040630487  0.38333245966929036  1.0000
  H   H19       1.0  0.2427614599170056  0.7661866683319682  0.8833062103290601  1.0000
  H   H20       1.0  0.7427615194925749  0.23383671637867562  0.6166431584748083  1.0000
  C   C1        1.0  0.5835030867820236  0.25871093601668343  0.8930638173379961  1.0000
  C   C2        1.0  0.08349698215788239  0.7413174060717862  0.6069396123086719  1.0000
  C   C3        1.0  0.4164788587012112  0.7412686619536328  0.10693486240763403  1.0000
  C   C4        1.0  0.9164936430946681  0.2587119501152486  0.3930536568531835  1.0000
  C   C5        1.0  0.6487966353475727  0.37833640379913897  0.8948181857863914  1.0000
  C   C6        1.0  0.1487616637840361  0.6216758372758306  0.6051645790789095  1.0000
  C   C7        1.0  0.351199776689583  0.6216678302404686  0.1052075739239342  1.0000
  C   C8        1.0  0.8512173898472212  0.3783466811475762  0.39484637496520497  1.0000
  C   C9        1.0  0.7568282059476843  0.4511691878659505  0.9796595335551147  1.0000
  C   C10       1.0  0.2568164998185694  0.5487226276776127  0.5203798972111073  1.0000
  C   C11       1.0  0.24319424317690164  0.5488523736116874  0.02035192052518648  1.0000
  C   C12       1.0  0.7431987164849545  0.4512807512060206  0.4796337061226765  1.0000
  C   C13       1.0  0.7995030637252185  0.40046826735277113  0.06076473644105112  1.0000
  C   C14       1.0  0.2994447840696992  0.5995156748299094  0.4392967890600801  1.0000
  C   C15       1.0  0.2005569941225858  0.5995275432896675  0.9392394978875345  1.0000
  C   C16       1.0  0.7005660917144353  0.40048408860418044  0.5606912823424679  1.0000
  C   C17       1.0  0.7317532506330692  0.2804991721373823  0.056936522408747685  1.0000
  C   C18       1.0  0.23182959108577708  0.7194894321503325  0.44309866234294754  1.0000
  C   C19       1.0  0.2681939782686483  0.7195025434698364  0.9430460783109355  1.0000
  C   C20       1.0  0.7681783918777328  0.28050932215366225  0.5568958716752164  1.0000
  I   I1        1.0  0.9415620088627251  0.9526145759827284  0.14241993324827712  1.0000
  I   I2        1.0  0.44148889174063294  0.047397350118593785  0.3575772526822902  1.0000
  I   I3        1.0  0.0584806899454904  0.04736127117821809  0.8575703343067788  1.0000
  I   I4        1.0  0.5585104120389204  0.9526062226180514  0.642412523339992  1.0000
  I   I5        1.0  0.276748379996384  0.3172328797566308  0.1949850218522116  1.0000
  I   I6        1.0  0.7767542588450808  0.6827340333550039  0.3049991746699163  1.0000
  I   I7        1.0  0.723227780935204  0.6827770832594593  0.8050414334678067  1.0000
  I   I8        1.0  0.22323491938659856  0.31725896470247505  0.6949976468489183  1.0000
  N   N1        1.0  0.6251489190047719  0.21265327372164922  0.9738246438964352  1.0000
  N   N2        1.0  0.1251676020094905  0.7873686686263568  0.5261862428319972  1.0000
  N   N3        1.0  0.3748257935891743  0.7873196757424737  0.026168635763156128  1.0000
  N   N4        1.0  0.874846167204147  0.21263004344294964  0.4738135031467721  1.0000
  O   O1        1.0  0.5563736581175077  0.09799800409952296  0.9711261858922882  1.0000
  O   O2        1.0  0.05633141611195209  0.9020084474815847  0.528847627009327  1.0000
  O   O3        1.0  0.4436010548382542  0.9019998180569998  0.028865133632329794  1.0000
  O   O4        1.0  0.9436418503902004  0.09802103540950916  0.4711300062707124  1.0000
