data_image0
_chemical_formula_structural       Hf6H34C120Br30N18O32
_chemical_formula_sum              "Hf6 H34 C120 Br30 N18 O32"
_cell_length_a       19.693674706328984
_cell_length_b       19.710971600837308
_cell_length_c       19.759181815744185
_cell_angle_alpha    91.92761592148315
_cell_angle_beta     92.73890425472578
_cell_angle_gamma    91.6050860692072

_space_group_name_H-M_alt    "P 1"
_space_group_IT_number       1

loop_
  _space_group_symop_operation_xyz
  'x, y, z'

loop_
  _atom_site_type_symbol
  _atom_site_label
  _atom_site_symmetry_multiplicity
  _atom_site_fract_x
  _atom_site_fract_y
  _atom_site_fract_z
  _atom_site_occupancy
  Hf  Hf1       1.0  0.8099283371989827  0.9586632387944438  0.8656755545138283  1.0000
  Hf  Hf2       1.0  0.7758850774008579  0.8592873771792783  0.004207094913283483  1.0000
  Hf  Hf3       1.0  0.9766662630936623  0.9876814140663871  0.9306804335024949  1.0000
  Hf  Hf4       1.0  0.9113517167738152  0.8208634841084079  0.9028471125637337  1.0000
  Hf  Hf5       1.0  0.8398161583189321  0.024764782316488303  0.03151968425383699  1.0000
  Hf  Hf6       1.0  0.9434649487743626  0.887184414409774  0.06833804341067658  1.0000
  H   H1        1.0  0.7727706607499626  0.8188359058948439  0.864988896800824  1.0000
  H   H2        1.0  0.8761514654733205  0.08378176036866593  0.9098511877244347  1.0000
  H   H3        1.0  0.0370639151222676  0.8649743160428115  0.9675698847127663  1.0000
  H   H4        1.0  0.8221853874879771  0.9236867003704109  0.127675648948113  1.0000
  H   H5        1.0  0.2651356395240541  0.7996528319047871  0.7921479277255017  1.0000
  H   H6        1.0  0.08028100883699102  0.9561869502719988  0.7356307538800877  1.0000
  H   H7        1.0  0.42381618095420504  0.8997425393314418  0.8468411824046667  1.0000
  H   H8        1.0  0.6488121308400494  0.8583911325187831  0.7555873978281368  1.0000
  H   H9        1.0  0.32453820929487887  0.9601788347818998  0.0923863606174322  1.0000
  H   H10       1.0  0.09943468090038012  0.006106295612433102  0.1823211593771887  1.0000
  H   H11       1.0  0.5326587999329178  0.08596862483958741  0.21158305627204751  1.0000
  H   H12       1.0  0.6194469745156753  0.8681335850311244  0.12488671972160856  1.0000
  H   H13       1.0  0.4686956843674536  0.0018996001069169007  0.4235474839433095  1.0000
  H   H14       1.0  0.284120728841927  0.8602647222230505  0.5121176416175217  1.0000
  H   H15       1.0  0.558090360489615  0.2349321977977611  0.957131177065378  1.0000
  H   H16       1.0  0.779755259747489  0.20266804130762497  0.8533530674139554  1.0000
  H   H17       1.0  0.7253802699144601  0.4879587982482152  0.8620957190496056  1.0000
  H   H18       1.0  0.7152367061408357  0.673773392156342  0.0350563299507769  1.0000
  H   H19       1.0  0.0871668253652729  0.14657351250051684  0.0696020930506691  1.0000
  H   H20       1.0  0.0071160880797478  0.36558883294804906  0.9849647306899953  1.0000
  H   H21       1.0  0.0160786413838139  0.5060738077228848  0.012541970454201095  1.0000
  H   H22       1.0  0.13466458913630672  0.7302485563566352  0.0413272276942891  1.0000
  H   H23       1.0  0.43536104922444724  0.31676136700261287  0.9358838146259884  1.0000
  H   H24       1.0  0.32019571151646886  0.526117828005603  0.9997239836469518  1.0000
  H   H25       1.0  0.7362306880162565  0.7884764688113962  0.22029096770515366  1.0000
  H   H26       1.0  0.9137631855374265  0.6350299205545655  0.3046665051196911  1.0000
  H   H27       1.0  0.7480220655828306  0.6596029520836314  0.6166894058503374  1.0000
  H   H28       1.0  0.9073232806219877  0.8600122794132121  0.6418931042751765  1.0000
  H   H29       1.0  0.9262617103701417  0.05427370568520471  0.41341999334638757  1.0000
  H   H30       1.0  0.9358705310900604  0.14475994871443734  0.1841651828723911  1.0000
  H   H31       1.0  0.8622267942814332  0.0080862322624426  0.6712431168621933  1.0000
  H   H32       1.0  0.9801896632970328  0.23127798978883635  0.6544667177946764  1.0000
  H   H33       1.0  0.8156982365482291  0.34589759103572965  0.542662500174167  1.0000
  H   H34       1.0  0.9459007553605617  0.5084173240099122  0.40929609383010046  1.0000
  C   C1        1.0  0.9247992988352535  0.1876466950265936  0.5353546993872698  1.0000
  C   C2        1.0  0.913823314481043  0.28487979775366784  0.4789315799569849  1.0000
  C   C3        1.0  0.9318729127674602  0.1860714092435388  0.420679795678808  1.0000
  C   C4        1.0  0.8240518112641125  0.6553563015520683  0.3955991507687386  1.0000
  C   C5        1.0  0.8237457886267239  0.67209755887842  0.5092454755922091  1.0000
  C   C6        1.0  0.8434007664251338  0.5677601676451048  0.46464891131597597  1.0000
  C   C7        1.0  0.1457051630488095  0.4906216905423123  0.020139654343836397  1.0000
  C   C8        1.0  0.23522842075841066  0.4238433138764537  0.9991407487372683  1.0000
  C   C9        1.0  0.13495000511844069  0.37596773147628687  0.027228425189633802  1.0000
  C   C10       1.0  0.6118300134631839  0.3510598617613497  0.9210305525894568  1.0000
  C   C11       1.0  0.5233388675141841  0.4172450940298162  0.9479994244348545  1.0000
  C   C12       1.0  0.6302467455904903  0.4628628418044229  0.9467193589708315  1.0000
  C   C13       1.0  0.44845653559817583  0.9778619008722701  0.23574379342949917  1.0000
  C   C14       1.0  0.3845544668798482  0.9566332608782916  0.32499696881858137  1.0000
  C   C15       1.0  0.33383801116967493  0.9820761752086258  0.22373878677957038  1.0000
  C   C16       1.0  0.30037593567476517  0.8830825373367476  0.6978363331153901  1.0000
  C   C17       1.0  0.4152567430314705  0.8831089358329933  0.7136252529133316  1.0000
  C   C18       1.0  0.3670281579307684  0.9063694621859355  0.6107393870886426  1.0000
  C   C19       1.0  0.9175056293230383  0.04725655116816802  0.7883473299677419  1.0000
  C   C20       1.0  0.6631197069668104  0.8921185515396747  0.8831070475838914  1.0000
  C   C21       1.0  0.8404777531660981  0.8376149877798301  0.7563339178473996  1.0000
  C   C22       1.0  0.7427815390630953  0.09515128389192284  0.9226526830217808  1.0000
  C   C23       1.0  0.8411700604496419  0.7901967595485433  0.1417637119184363  1.0000
  C   C24       1.0  0.08641342475357308  0.9630647422556041  0.0554824879836815  1.0000
  C   C25       1.0  0.7914675750309783  0.7116782567435538  0.9397610492709704  1.0000
  C   C26       1.0  0.6994118018232954  0.9672348338168534  0.0932730904383874  1.0000
  C   C27       1.0  0.9650104015512042  0.1318071134304049  0.006760281766034394  1.0000
  C   C28       1.0  0.048723333088588616  0.879895427010283  0.8369275375196992  1.0000
  C   C29       1.0  0.0008128259060953042  0.7428614072418613  0.011153648615966499  1.0000
  C   C30       1.0  0.9167737055506819  0.013976338568213004  0.1757823171041508  1.0000
  C   C31       1.0  0.2231096112242952  0.8318804811121157  0.778014614235218  1.0000
  C   C32       1.0  0.23257735310285452  0.8788971929478113  0.7271229479310009  1.0000
  C   C33       1.0  0.17890793420734502  0.9219935742233081  0.710082973031156  1.0000
  C   C34       1.0  0.1195062085117016  0.91936786287706  0.7454362621795454  1.0000
  C   C35       1.0  0.1103015004691201  0.872206522102353  0.7958400712363485  1.0000
  C   C36       1.0  0.16233475792115834  0.8272625572595519  0.8109022785778066  1.0000
  C   C37       1.0  0.4734479282998906  0.8890525321175959  0.8276029805232739  1.0000
  C   C38       1.0  0.4773811975040729  0.8756038583046577  0.7575253906950365  1.0000
  C   C39       1.0  0.5414530133399963  0.8605515252216662  0.7326438157408646  1.0000
  C   C40       1.0  0.5991186512673465  0.8662481378642186  0.7758545339878679  1.0000
  C   C41       1.0  0.595426754407903  0.8821071975914594  0.8452780277860156  1.0000
  C   C42       1.0  0.531165439830815  0.8908319963545496  0.8713685706049006  1.0000
  C   C43       1.0  0.274946077554695  0.9718785554530956  0.11111954226397099  1.0000
  C   C44       1.0  0.27115824168563313  0.9889564562051595  0.1805093090946102  1.0000
  C   C45       1.0  0.207209004904982  0.0051226299842995005  0.2050372642778484  1.0000
  C   C46       1.0  0.14919385877306723  0.9976382528031424  0.1622427760140184  1.0000
  C   C47       1.0  0.152981103969843  0.9776638821662684  0.09382197237267319  1.0000
  C   C48       1.0  0.21700505394832698  0.9670930270943858  0.06789261434790458  1.0000
  C   C49       1.0  0.5520591686602218  0.03779357742295281  0.1934623846549215  1.0000
  C   C50       1.0  0.5153860937820128  0.977640345391798  0.2034177062857054  1.0000
  C   C51       1.0  0.5412495611417326  0.9161471552970469  0.1798487254581644  1.0000
  C   C52       1.0  0.6006173911341081  0.9156296623891439  0.1451179293216356  1.0000
  C   C53       1.0  0.6377487957483795  0.9759872524639025  0.13400124595894167  1.0000
  C   C54       1.0  0.6133414637987046  0.0375087999169637  0.1603218511869926  1.0000
  C   C55       1.0  0.4283141047720563  0.970582246960014  0.44338724471916174  1.0000
  C   C56       1.0  0.37903751239009154  0.9406583576945026  0.39719974528769336  1.0000
  C   C57       1.0  0.3267555117469243  0.9000199146638156  0.42274834771092873  1.0000
  C   C58       1.0  0.324417466158188  0.8915856044154397  0.49215836945285923  1.0000
  C   C59       1.0  0.373522850869108  0.9217862479603204  0.5384533656765313  1.0000
  C   C60       1.0  0.4258826974825568  0.9623073830758674  0.512879699398482  1.0000
  C   C61       1.0  0.6069604426987495  0.22725897799617206  0.9349175956017105  1.0000
  C   C62       1.0  0.6401609805373668  0.28352043831768015  0.9076639118981262  1.0000
  C   C63       1.0  0.701287068734942  0.2729013786552629  0.8750140250437325  1.0000
  C   C64       1.0  0.7315398462527015  0.2099727192986194  0.8770828281729095  1.0000
  C   C65       1.0  0.7013311113898836  0.15646034506785614  0.9103794385638365  1.0000
  C   C66       1.0  0.6368119818297018  0.16427931335768878  0.935744917348984  1.0000
  C   C67       1.0  0.723066805869536  0.5295063898357101  0.8996030160650789  1.0000
  C   C68       1.0  0.6772352470534884  0.5229866806688082  0.9513101053480212  1.0000
  C   C69       1.0  0.6770808711582249  0.5744587145636545  0.002247246496466495  1.0000
  C   C70       1.0  0.7167057725048452  0.6329718863137686  0.9967506358639752  1.0000
  C   C71       1.0  0.7591456635197814  0.6420711464278953  0.9421334314724916  1.0000
  C   C72       1.0  0.7643923086972961  0.5876543610878431  0.894854593010308  1.0000
  C   C73       1.0  0.06903356231833871  0.194976557679695  0.05198856724144459  1.0000
  C   C74       1.0  0.0036700668155447004  0.19786796072536825  0.0211927153102778  1.0000
  C   C75       1.0  0.9806651860206229  0.26042621886717404  0.9993759554794791  1.0000
  C   C76       1.0  0.0238901501997262  0.3175841359599191  0.004615350549521201  1.0000
  C   C77       1.0  0.09057870438722661  0.314507934474257  0.0328448185276713  1.0000
  C   C78       1.0  0.111638631072779  0.2526134152907888  0.05931351009478899  1.0000
  C   C79       1.0  0.04181306131572881  0.5556549734056022  0.0173671874027761  1.0000
  C   C80       1.0  0.11324262286682092  0.5576116873067606  0.024521372523636793  1.0000
  C   C81       1.0  0.14620817919966103  0.6219212410757964  0.0342045390350592  1.0000
  C   C82       1.0  0.10845243024924399  0.6809570217110236  0.033596269406096696  1.0000
  C   C83       1.0  0.037749783936575895  0.6781617731648525  0.0222795904912303  1.0000
  C   C84       1.0  0.004569761924145199  0.6141485860525719  0.015794761894902396  1.0000
  C   C85       1.0  0.40969197966573034  0.3627042317317121  0.9507581997921618  1.0000
  C   C86       1.0  0.449481507847146  0.42322163384729095  0.9580780915913961  1.0000
  C   C87       1.0  0.41530072625341313  0.4833905977232576  0.974370419024389  1.0000
  C   C88       1.0  0.34626016907838425  0.4799603400062795  0.986200253897266  1.0000
  C   C89       1.0  0.3072390363703761  0.4190655457647807  0.981345003637827  1.0000
  C   C90       1.0  0.3403716341533709  0.359650672369142  0.960913818055964  1.0000
  C   C91       1.0  0.7759954987148419  0.7560190895725615  0.23983312065345785  1.0000
  C   C92       1.0  0.8337268170491754  0.7468074730689268  0.20202680357514421  1.0000
  C   C93       1.0  0.8835482028652707  0.7024922568687729  0.22600808645292858  1.0000
  C   C94       1.0  0.8756771078940417  0.6700505418479852  0.28664854289055336  1.0000
  C   C95       1.0  0.8208222214260344  0.6835995537984872  0.3270680888929077  1.0000
  C   C96       1.0  0.7701045190748347  0.7263248861202387  0.3023275329616907  1.0000
  C   C97       1.0  0.7817426011979763  0.7044071087148894  0.6219481929690858  1.0000
  C   C98       1.0  0.8243893115750043  0.7194116819799563  0.5692397817613893  1.0000
  C   C99       1.0  0.8678083512351905  0.7773101770461752  0.5760934833181537  1.0000
  C   C100      1.0  0.8708135774579588  0.8174235951174399  0.63571631267709  1.0000
  C   C101      1.0  0.8290904987727999  0.8015795389730587  0.6884255608877581  1.0000
  C   C102      1.0  0.7830721463891877  0.7461978074583728  0.6800348679518322  1.0000
  C   C103      1.0  0.9302573439014735  0.07356708957181722  0.36273720317996794  1.0000
  C   C104      1.0  0.9358999147126497  0.14466435903433716  0.3568258686680537  1.0000
  C   C105      1.0  0.9404583971591478  0.1696506118609662  0.2908680805182371  1.0000
  C   C106      1.0  0.935718854353361  0.12474079492096024  0.23487750357930537  1.0000
  C   C107      1.0  0.9287698667365375  0.05432751399666101  0.2412205551314486  1.0000
  C   C108      1.0  0.9273936989582554  0.028899522461820513  0.3066080806773499  1.0000
  C   C109      1.0  0.8909002249332616  0.05557773290074411  0.6664092110494408  1.0000
  C   C110      1.0  0.9251918851890507  0.08507050080073951  0.7244599130981939  1.0000
  C   C111      1.0  0.9586700480423217  0.14840475427023142  0.719495715596004  1.0000
  C   C112      1.0  0.956544121576911  0.18097987565030144  0.6578873916504193  1.0000
  C   C113      1.0  0.9240517646672471  0.1504882606542638  0.5993484138767897  1.0000
  C   C114      1.0  0.8911426151068014  0.08664612895072571  0.60441864060612  1.0000
  C   C115      1.0  0.844622378950902  0.38189992032032205  0.5139032999059054  1.0000
  C   C116      1.0  0.9000691431885456  0.3586569830487037  0.4785697138603169  1.0000
  C   C117      1.0  0.9376319515329355  0.405827388805804  0.4425204118186627  1.0000
  C   C118      1.0  0.9171891753058857  0.47256980802665544  0.4383950277386929  1.0000
  C   C119      1.0  0.8607535911773496  0.4954743439717151  0.4723219757060447  1.0000
  C   C120      1.0  0.8253017151812542  0.44929151530415384  0.5112990609864169  1.0000
  Br  Br1       1.0  0.15456253613335486  0.7633307957112196  0.8804601973778078  1.0000
  Br  Br2       1.0  0.18480228422502884  0.9912377709932588  0.6457617945689478  1.0000
  Br  Br3       1.0  0.5202271289585881  0.9100145429272006  0.965195758301455  1.0000
  Br  Br4       1.0  0.5555938087394026  0.828421001656551  0.6427394891046916  1.0000
  Br  Br5       1.0  0.2266538909720239  0.9390784889342997  0.9759173641338634  1.0000
  Br  Br6       1.0  0.19412738287760334  0.040155690449566406  0.2940312155997304  1.0000
  Br  Br7       1.0  0.6582915944149407  0.12316112847501876  0.15362560137247525  1.0000
  Br  Br8       1.0  0.4943673865312022  0.8322374055063622  0.1926737622174244  1.0000
  Br  Br9       1.0  0.49210678535857966  0.012621542070952804  0.5685221822985085  1.0000
  Br  Br10      1.0  0.26058788308363023  0.8499633577127172  0.3667960910158071  1.0000
  Br  Br11      1.0  0.5896445792405415  0.08789121470270801  0.9690016372456539  1.0000
  Br  Br12      1.0  0.7453889194997315  0.33867731692880204  0.8226719258414619  1.0000
  Br  Br13      1.0  0.8245852457642826  0.5881158285503646  0.8228073697493058  1.0000
  Br  Br14      1.0  0.627901618978555  0.5656610881051307  0.08196648852234738  1.0000
  Br  Br15      1.0  0.19567091842390033  0.24352075742837806  0.1088871204414659  1.0000
  Br  Br16      1.0  0.8924711480007659  0.2683304242180427  0.9571508472396602  1.0000
  Br  Br17      1.0  0.9086250789444464  0.6038699664884748  0.007612526045413415  1.0000
  Br  Br18      1.0  0.2414275214403574  0.6355719101964471  0.052185874480997506  1.0000
  Br  Br19      1.0  0.29657212163314745  0.273620392256369  0.9412141199874141  1.0000
  Br  Br20      1.0  0.45444341096052904  0.5728195024103189  0.980419641667943  1.0000
  Br  Br21      1.0  0.6903903158170906  0.7429303497830306  0.3498717197793226  1.0000
  Br  Br22      1.0  0.9627577455159795  0.6824677639423414  0.1793963249529753  1.0000
  Br  Br23      1.0  0.7212881083141555  0.7276953141553906  0.7489313210674808  1.0000
  Br  Br24      1.0  0.9294834867765828  0.8008282688136038  0.5089797925720703  1.0000
  Br  Br25      1.0  0.9146482442441197  0.9345586702312404  0.3213979623702414  1.0000
  Br  Br26      1.0  0.9531387789778235  0.2621727368387497  0.2697004380267316  1.0000
  Br  Br27      1.0  0.8389702239800486  0.04191696525524691  0.5316525483422224  1.0000
  Br  Br28      1.0  0.002752846784972002  0.1949186619069608  0.7958655204492401  1.0000
  Br  Br29      1.0  0.7467633675320825  0.47411066119017437  0.5575545649235207  1.0000
  Br  Br30      1.0  0.020627767314564904  0.3833882206182509  0.40345349409576414  1.0000
  N   N1        1.0  0.9140040441930637  0.254868154477613  0.5389976058866848  1.0000
  N   N2        1.0  0.9208084768391701  0.25289753287754735  0.4186480458920768  1.0000
  N   N3        1.0  0.9361229247074476  0.15182474305394322  0.47866842809541765  1.0000
  N   N4        1.0  0.814465712879432  0.6984962590381942  0.4480026518837405  1.0000
  N   N5        1.0  0.8342026494944434  0.6062717904459874  0.5207081579778645  1.0000
  N   N6        1.0  0.8420931465824636  0.5904382783755864  0.40117114574276497  1.0000
  N   N7        1.0  0.2098837838078538  0.48682941806159635  0.0015926968973331997  1.0000
  N   N8        1.0  0.200142947669363  0.3671366862697882  0.012732164087438502  1.0000
  N   N9        1.0  0.10553501286039339  0.4361990789467357  0.032426409831302294  1.0000
  N   N10       1.0  0.544971918405203  0.3551352577706127  0.929674974741367  1.0000
  N   N11       1.0  0.5645242789873564  0.47238021039103023  0.9580308289210678  1.0000
  N   N12       1.0  0.6567322684656604  0.4037538681408251  0.9281316292249143  1.0000
  N   N13       1.0  0.44751984790333665  0.9639649585057485  0.30162678510842506  1.0000
  N   N14       1.0  0.3267962303718975  0.9643134634911947  0.2879141726830667  1.0000
  N   N15       1.0  0.3941363642604401  0.9890318716851073  0.1946712868937936  1.0000
  N   N16       1.0  0.35439356036460623  0.874364548154127  0.7407319332253974  1.0000
  N   N17       1.0  0.42388526908220564  0.9021233509553499  0.6499693676633953  1.0000
  N   N18       1.0  0.3037327595608019  0.8954879453135053  0.6317638549054578  1.0000
  O   O1        1.0  0.9670355212091621  0.043087393945889105  0.8312856602871648  1.0000
  O   O2        1.0  0.6758429279177136  0.8646494382415854  0.9391177327942798  1.0000
  O   O3        1.0  0.8127578350590312  0.8937571897919061  0.767982135619846  1.0000
  O   O4        1.0  0.7507755804813954  0.05362555033586602  0.8735485719049549  1.0000
  O   O5        1.0  0.7697776651819056  0.09344415553765373  0.9825913663155035  1.0000
  O   O6        1.0  0.8789957808528328  0.8054346567883857  0.7971094758428307  1.0000
  O   O7        1.0  0.7049974704939431  0.9279057738107214  0.8503980293075343  1.0000
  O   O8        1.0  0.8578983253516198  0.020576056359786307  0.7929219839176296  1.0000
  O   O9        1.0  0.7919961056806386  0.9535355906154805  0.9669669813317084  1.0000
  O   O10       1.0  0.9055611654427909  0.9223277344716652  0.8829164767488535  1.0000
  O   O11       1.0  0.801886543822029  0.8496070403733073  0.8937593025813726  1.0000
  O   O12       1.0  0.8754715054091166  0.0378291454400141  0.9260039980190059  1.0000
  O   O13       1.0  0.7897572069067564  0.7978927957650801  0.1016821286733958  1.0000
  O   O14       1.0  0.07345927880660948  0.9893262060342349  0.9988536563391152  1.0000
  O   O15       1.0  0.8440524957997512  0.7239260762350883  0.9073155153992474  1.0000
  O   O16       1.0  0.7416474070916549  0.016007410774619802  0.0866338955441179  1.0000
  O   O17       1.0  0.9086626160232426  0.12036967239971828  0.03335279448594969  1.0000
  O   O18       1.0  0.0073410354472188055  0.8304317969576903  0.8432000058894005  1.0000
  O   O19       1.0  0.0012614134177085026  0.7881186355092782  0.058253390061693694  1.0000
  O   O20       1.0  0.9455046578332045  0.9582401991344445  0.16478320847691208  1.0000
  O   O21       1.0  0.9733746456536353  0.7465399437597997  0.9514676038777948  1.0000
  O   O22       1.0  0.8758479755453125  0.04317985473540632  0.1343413945619858  1.0000
  O   O23       1.0  0.7592456390768446  0.7563046211091803  0.9736109463097546  1.0000
  O   O24       1.0  0.04482396703578931  0.9399287195361341  0.8629921288752341  1.0000
  O   O25       1.0  0.9955279884282859  0.0915961666273546  0.9670764695971599  1.0000
  O   O26       1.0  0.7051320404936945  0.9069586779353853  0.06759955630366218  1.0000
  O   O27       1.0  0.8996749626412138  0.8194446855214326  0.13831709815674026  1.0000
  O   O28       1.0  0.0467826384779571  0.9235578465134329  0.0867251493054582  1.0000
  O   O29       1.0  0.931103478540237  0.977668150335788  0.021307724885581084  1.0000
  O   O30       1.0  0.8773897566736722  0.8384930326480177  0.998011553508718  1.0000
  O   O31       1.0  0.9911682338057163  0.8817620284875505  0.9670982219599794  1.0000
  O   O32       1.0  0.8378158646035345  0.9233860992103761  0.08186556681603459  1.0000
