data_image0
_chemical_formula_structural       Zn2H22C40N4O8
_chemical_formula_sum              "Zn2 H22 C40 N4 O8"
_cell_length_a       7.681253327745927
_cell_length_b       10.337252793479205
_cell_length_c       10.781094414438812
_cell_angle_alpha    114.48622735515856
_cell_angle_beta     88.94043832056809
_cell_angle_gamma    89.84875523105777

_space_group_name_H-M_alt    "P 1"
_space_group_IT_number       1

loop_
  _space_group_symop_operation_xyz
  'x, y, z'

loop_
  _atom_site_type_symbol
  _atom_site_label
  _atom_site_symmetry_multiplicity
  _atom_site_fract_x
  _atom_site_fract_y
  _atom_site_fract_z
  _atom_site_occupancy
  Zn  Zn1       1.0  0.9712694791231938  0.4610711821447779  0.30489185907072164  1.0000
  Zn  Zn2       1.0  0.028729016515569594  0.5389341199081912  0.695110422849737  1.0000
  H   H1        1.0  0.8713236309432587  0.13321005185012774  0.13663280462902344  1.0000
  H   H2        1.0  0.1286840308286941  0.866791930852031  0.8633653826397917  1.0000
  H   H3        1.0  0.6956517674599282  0.9942512717615553  0.9246838805997794  1.0000
  H   H4        1.0  0.30434794963306194  0.005744508844273399  0.0753184342871549  1.0000
  H   H5        1.0  0.5813497928693963  0.12097454728105107  0.789956233337712  1.0000
  H   H6        1.0  0.418647340049951  0.8790233699584813  0.21004598690461732  1.0000
  H   H7        1.0  0.5651728423022319  0.35036734311314177  0.7552352349035089  1.0000
  H   H8        1.0  0.4348387610302211  0.6496335105089912  0.24476064805803324  1.0000
  H   H9        1.0  0.6268847641893983  0.6074215695191114  0.841608005410464  1.0000
  H   H10       1.0  0.3731215393069434  0.3925783427527491  0.15839217070521971  1.0000
  H   H11       1.0  0.7458906554896174  0.829624514118606  0.02620427969009836  1.0000
  H   H12       1.0  0.25411167014762986  0.17037655573769672  0.9738000672952366  1.0000
  H   H13       1.0  0.8952037768649816  0.9439329078112662  0.2527151370057934  1.0000
  H   H14       1.0  0.10480378882795802  0.05606276889216839  0.7472852560389711  1.0000
  H   H15       1.0  0.9834981403105091  0.7880081512502525  0.36942016298963387  1.0000
  H   H16       1.0  0.0165028952044821  0.21198547678378074  0.6305803891928078  1.0000
  H   H17       1.0  0.4571123151869473  0.3737347307527583  0.36693025255487993  1.0000
  H   H18       1.0  0.5428848323266495  0.6262589207280554  0.6330693939862612  1.0000
  H   H19       1.0  0.2230868748800248  0.021356101183407396  0.41315423695476033  1.0000
  H   H20       1.0  0.7768999195672208  0.9786482368376924  0.5868467844991798  1.0000
  H   H21       1.0  0.7508651084719701  0.14463741014510834  0.5442521395537908  1.0000
  H   H22       1.0  0.24913721361023985  0.8553594082046839  0.4557505670115487  1.0000
  C   C1        1.0  0.8156416441799763  0.18283747352685958  0.07391668690228669  1.0000
  C   C2        1.0  0.18436342986328919  0.8171623943024996  0.9260797653019279  1.0000
  C   C3        1.0  0.7187361881156279  0.10734340141311799  0.9566809722320001  1.0000
  C   C4        1.0  0.28126882970224887  0.8926543834196036  0.043317459605787874  1.0000
  C   C5        1.0  0.6560676266286407  0.17746423655239593  0.8814059506849076  1.0000
  C   C6        1.0  0.3439348260536407  0.822536733538449  0.1185918633320923  1.0000
  C   C7        1.0  0.6897741182054703  0.3234885574408181  0.9229195982936317  1.0000
  C   C8        1.0  0.31022966838180815  0.6765070571961471  0.07707428942268972  1.0000
  C   C9        1.0  0.6335847082725792  0.40455831791394553  0.850514334861863  1.0000
  C   C10       1.0  0.36642162974481346  0.5954394401002432  0.1494831544814375  1.0000
  C   C11       1.0  0.6661617080951244  0.546743656093241  0.8985984891105401  1.0000
  C   C12       1.0  0.3338445909574119  0.4532509417954742  0.10139963648014563  1.0000
  C   C13       1.0  0.7543059990958199  0.6197787903933899  0.02430055302667702  1.0000
  C   C14       1.0  0.24570032343856243  0.38022217050288976  0.9756990999128161  1.0000
  C   C15       1.0  0.7857632727996774  0.767472205697544  0.08173047994176123  1.0000
  C   C16       1.0  0.21423910550792158  0.23252669564887896  0.9182702469900049  1.0000
  C   C17       1.0  0.8667215408679423  0.8305462470376808  0.20606229125208123  1.0000
  C   C18       1.0  0.1332834242795897  0.16945370630492818  0.7939397606392831  1.0000
  C   C19       1.0  0.9186401876352405  0.7445333266667616  0.2717077410015774  1.0000
  C   C20       1.0  0.08136222608217737  0.2554644832986241  0.7282907092628008  1.0000
  C   C21       1.0  0.7833149803850716  0.3915882298458654  0.04491615802181303  1.0000
  C   C22       1.0  0.2166887716811559  0.6084095390487718  0.9550804164668917  1.0000
  C   C23       1.0  0.8126004356366251  0.5423108087068796  0.09786398794328467  1.0000
  C   C24       1.0  0.18740454677143248  0.4576880675068861  0.9021367205618913  1.0000
  C   C25       1.0  0.76551601519715  0.36927373855948525  0.4836972187389818  1.0000
  C   C26       1.0  0.23447734217157998  0.6307283681200884  0.5163001365949069  1.0000
  C   C27       1.0  0.6171462892827151  0.2682172723652199  0.45937130041906465  1.0000
  C   C28       1.0  0.38284837280252054  0.7317880103779116  0.5406272760165222  1.0000
  C   C29       1.0  0.46614864992494637  0.2868862062007053  0.3983858468212062  1.0000
  C   C30       1.0  0.5338472579851298  0.7131169809794569  0.6016147000346591  1.0000
  C   C31       1.0  0.3248847850316352  0.19690689368324846  0.3828142840189698  1.0000
  C   C32       1.0  0.6751137486832306  0.8031005056185591  0.6171869515491081  1.0000
  C   C33       1.0  0.15759193568124624  0.21885356572073533  0.32208684683963906  1.0000
  C   C34       1.0  0.8424118243838236  0.7811537690635573  0.6779134185940661  1.0000
  C   C35       1.0  0.33791884767828156  0.08683022993952957  0.4254988043565504  1.0000
  C   C36       1.0  0.6620744924299159  0.9131729538688801  0.5744998943635266  1.0000
  C   C37       1.0  0.4918564042857129  0.06099208225921868  0.4808814154592723  1.0000
  C   C38       1.0  0.5081329181097871  0.9390080361315396  0.519121680272839  1.0000
  C   C39       1.0  0.6295426227446229  0.15588806406692868  0.49908289339320794  1.0000
  C   C40       1.0  0.37044934093867704  0.8441130635633838  0.5009187274549303  1.0000
  N   N1        1.0  0.8452013080552234  0.3213149378019722  0.11645470671722787  1.0000
  N   N2        1.0  0.1548024267504715  0.6786839082215009  0.8835432111576649  1.0000
  N   N3        1.0  0.8940177481952388  0.6045581650569005  0.21861063556586652  1.0000
  N   N4        1.0  0.10598464826165353  0.3954407220373141  0.781389158084707  1.0000
  O   O1        1.0  0.7686701737529589  0.4436715773567882  0.41430952246648894  1.0000
  O   O2        1.0  0.23132182445139196  0.5563273960158526  0.585689411609266  1.0000
  O   O3        1.0  0.874294401389257  0.3746084446093717  0.5728667208120868  1.0000
  O   O4        1.0  0.12570017083829296  0.6253979722714147  0.4271369321344593  1.0000
  O   O5        1.0  0.1627881883088094  0.32103914778796383  0.2822032654156316  1.0000
  O   O6        1.0  0.8372038444166066  0.6789576713270051  0.7177929818877473  1.0000
  O   O7        1.0  0.0305326655870672  0.13982551655146838  0.3125365650581458  1.0000
  O   O8        1.0  0.9694592392045538  0.8601703394523241  0.6874658051085659  1.0000
