data_image0
_chemical_formula_structural       Zn16C96S16O52F32
_chemical_formula_sum              "Zn16 C96 S16 O52 F32"
_cell_length_a       19.7279540308622
_cell_length_b       19.76403952532423
_cell_length_c       33.49604381568427
_cell_angle_alpha    78.88601363548594
_cell_angle_beta     78.99427364180873
_cell_angle_gamma    63.8046179400408

_space_group_name_H-M_alt    "P 1"
_space_group_IT_number       1

loop_
  _space_group_symop_operation_xyz
  'x, y, z'

loop_
  _atom_site_type_symbol
  _atom_site_label
  _atom_site_symmetry_multiplicity
  _atom_site_fract_x
  _atom_site_fract_y
  _atom_site_fract_z
  _atom_site_occupancy
  Zn  Zn1       1.0  0.05620923919239122  0.4010750317272027  0.47863999017685893  1.0000
  Zn  Zn2       1.0  0.9833062007199448  0.48300199117342374  0.5601159964916677  1.0000
  Zn  Zn3       1.0  0.05946287986764531  0.5608081402513175  0.4828102537430752  1.0000
  Zn  Zn4       1.0  0.900792989024865  0.5552693272787577  0.47885728355178964  1.0000
  Zn  Zn5       1.0  0.6936982100761001  0.3489382706197757  0.2713746064140565  1.0000
  Zn  Zn6       1.0  0.6905098533839509  0.18925681330301083  0.2671888459297378  1.0000
  Zn  Zn7       1.0  0.7678655264839593  0.26649657248473335  0.1898175645907756  1.0000
  Zn  Zn8       1.0  0.8485652448805469  0.1947627061274344  0.27169317030628537  1.0000
  Zn  Zn9       1.0  0.26670735245578925  0.7670165579230993  0.6899091039024086  1.0000
  Zn  Zn10      1.0  0.34918376105214594  0.694702302982655  0.7711683368563911  1.0000
  Zn  Zn11      1.0  0.19370550560894637  0.8489151312079952  0.7714050683049365  1.0000
  Zn  Zn12      1.0  0.1905001720725821  0.6892399181948858  0.7672043546847575  1.0000
  Zn  Zn13      1.0  0.5594750887455575  0.06081356055109665  0.9828153804976054  1.0000
  Zn  Zn14      1.0  0.4014474295767699  0.055175223574117555  0.9782951163196285  1.0000
  Zn  Zn15      1.0  0.5562227866069449  0.9010478699264082  0.9786567050412316  1.0000
  Zn  Zn16      1.0  0.48225371025090175  0.983488955223265  0.060163248782068024  1.0000
  C   C1        1.0  0.06129811508800742  0.31645556796489416  0.5615775874655426  1.0000
  C   C2        1.0  0.06872509024378101  0.5690317727816491  0.5686643876701255  1.0000
  C   C3        1.0  0.1836756916713612  0.43956479236597074  0.4387793508088578  1.0000
  C   C4        1.0  0.9376599153541891  0.6837917885918755  0.43876579295860546  1.0000
  C   C5        1.0  0.9314613631375366  0.4309446478461539  0.4314058715652607  1.0000
  C   C6        1.0  0.8164980461426836  0.5609932451362877  0.5617403865859387  1.0000
  C   C7        1.0  0.5662156615188679  0.31052119345153534  0.31123259843491974  1.0000
  C   C8        1.0  0.681639120294584  0.18094832615012985  0.18127499273637676  1.0000
  C   C9        1.0  0.6891401083306619  0.4332799170718501  0.1883552148927805  1.0000
  C   C10       1.0  0.9343473243401875  0.1883839970883302  0.18908646799142298  1.0000
  C   C11       1.0  0.8182960738138406  0.3191783060547662  0.3187413692143011  1.0000
  C   C12       1.0  0.8120949127986353  0.06610445435873638  0.31135201586218386  1.0000
  C   C13       1.0  0.43346352033348984  0.6891289507535843  0.6882837789328775  1.0000
  C   C14       1.0  0.3185582921141832  0.8189623895483463  0.8186000676306476  1.0000
  C   C15       1.0  0.18884752399988264  0.933499501075005  0.6884463990067359  1.0000
  C   C16       1.0  0.06620659124249781  0.8105170734701728  0.8112343957421189  1.0000
  C   C17       1.0  0.18128911501893447  0.6810289764224604  0.6813408484548873  1.0000
  C   C18       1.0  0.3123289300779177  0.5661937230115156  0.8112244381909335  1.0000
  C   C19       1.0  0.43785966054854  0.18387575182575217  0.9386415549515233  1.0000
  C   C20       1.0  0.4316843369595206  0.9307513770195823  0.9312606964262288  1.0000
  C   C21       1.0  0.6836710789447197  0.9395629216129816  0.9387800440531819  1.0000
  C   C22       1.0  0.56095631069595  0.8166730832883785  0.06165734198856395  1.0000
  C   C23       1.0  0.5683955985868465  0.06911520474599811  0.0687117633287571  1.0000
  C   C24       1.0  0.31576917922502207  0.06165127174857322  0.060919536729798614  1.0000
  C   C25       1.0  0.9026946545697146  0.40248277081072775  0.40264436753564325  1.0000
  C   C26       1.0  0.84713295709971  0.3477303427946054  0.3474082704034203  1.0000
  C   C27       1.0  0.8311847232621262  0.4454273240400039  0.38835566775347263  1.0000
  C   C28       1.0  0.9186526167469611  0.3047595673373988  0.36169759513599337  1.0000
  C   C29       1.0  0.804405258547  0.4190101511893828  0.36171207524726867  1.0000
  C   C30       1.0  0.9454314877114245  0.33119713523123523  0.3883357268442111  1.0000
  C   C31       1.0  0.09745162378181502  0.5975497239954493  0.5973697819526933  1.0000
  C   C32       1.0  0.15256314081877062  0.6525097364603807  0.6526376245586859  1.0000
  C   C33       1.0  0.14032603093518503  0.6403870846761276  0.583073643583738  1.0000
  C   C34       1.0  0.10969956631845434  0.6096668569072887  0.6669299018637888  1.0000
  C   C35       1.0  0.16690841594355993  0.6669364285317059  0.6097391698399903  1.0000
  C   C36       1.0  0.08311375313372342  0.5831246136088521  0.6402642683029427  1.0000
  C   C37       1.0  0.3046028340372332  0.4527402767000764  0.40076928194235956  1.0000
  C   C38       1.0  0.4452621618940001  0.2973326364918164  0.3491884680159743  1.0000
  C   C39       1.0  0.25820903888521235  0.41461017240512593  0.4138933236715517  1.0000
  C   C40       1.0  0.4916637430758188  0.3354622347693663  0.3360940833534443  1.0000
  C   C41       1.0  0.37692317400301795  0.33952487146403587  0.3727940434203489  1.0000
  C   C42       1.0  0.37292313864335835  0.41053014305752095  0.3771608484671063  1.0000
  C   C43       1.0  0.7248890304906939  0.576827485991707  0.6287891665110408  1.0000
  C   C44       1.0  0.5250044776439682  0.6732811270107174  0.6212203425219016  1.0000
  C   C45       1.0  0.7419184968300528  0.5858993087763976  0.5864830450744165  1.0000
  C   C46       1.0  0.5080217590929125  0.6641614679381787  0.6635221356705543  1.0000
  C   C47       1.0  0.6039218870564299  0.6416368293209584  0.6082146367565429  1.0000
  C   C48       1.0  0.645965329103575  0.6084966147252684  0.6417901436128233  1.0000
  C   C49       1.0  0.07691531959102352  0.22473530180364773  0.6286791834025038  1.0000
  C   C50       1.0  0.1731804628682809  0.025147614859626785  0.6213240535376698  1.0000
  C   C51       1.0  0.08595486428014713  0.24188887002168255  0.5863715184152481  1.0000
  C   C52       1.0  0.16408908386258503  0.008047702249690761  0.6636284992067871  1.0000
  C   C53       1.0  0.14158987708422902  0.10399287074095297  0.6082334415950399  1.0000
  C   C54       1.0  0.10852870344086094  0.14588732794406664  0.6417586466224208  1.0000
  C   C55       1.0  0.8451083037311735  0.8011072950689307  0.3972284946205278  1.0000
  C   C56       1.0  0.9047727084656149  0.9487735426153632  0.3528196925440881  1.0000
  C   C57       1.0  0.9130587676470939  0.7582289752228986  0.41385015200051367  1.0000
  C   C58       1.0  0.8367779947680135  0.9916126166330698  0.3362053921343032  1.0000
  C   C59       1.0  0.9084823077858318  0.8791455592351056  0.3751024825691331  1.0000
  C   C60       1.0  0.8415135283633081  0.8706384942377026  0.37488408624244574  1.0000
  C   C61       1.0  0.6526740382864846  0.15253599229936288  0.15260316133321788  1.0000
  C   C62       1.0  0.5973532506972463  0.0975155595806782  0.09739706806286817  1.0000
  C   C63       1.0  0.6669195506267016  0.16688757893528822  0.10970027611706712  1.0000
  C   C64       1.0  0.5831128586957279  0.08316545707905473  0.14029803650282696  1.0000
  C   C65       1.0  0.6402694128132398  0.1403245157271086  0.08306605178001548  1.0000
  C   C66       1.0  0.609755035972647  0.10972512539227333  0.1669349965006433  1.0000
  C   C67       1.0  0.6732384300115231  0.5251563891304583  0.12124573807528799  1.0000
  C   C68       1.0  0.5768623323964875  0.724715248909106  0.12874244619762015  1.0000
  C   C69       1.0  0.6642163133298383  0.5078937185667411  0.1635396062340746  1.0000
  C   C70       1.0  0.5858235027819633  0.7420348487289627  0.08644748725088647  1.0000
  C   C71       1.0  0.6085357561099017  0.6458365624297213  0.1417700612800843  1.0000
  C   C72       1.0  0.6416042704901345  0.6040357646599189  0.10820718910471779  1.0000
  C   C73       1.0  0.08069840843602093  0.12478575953154089  0.1768319532677296  1.0000
  C   C74       1.0  0.16940689144900037  0.12505873725432784  0.07315511458195799  1.0000
  C   C75       1.0  0.008754963368033901  0.16357348899003196  0.1641706425993519  1.0000
  C   C76       1.0  0.24136196131913584  0.08637218081562983  0.08582075403871409  1.0000
  C   C77       1.0  0.11040804794687631  0.1393184609411122  0.1060856132971111  1.0000
  C   C78       1.0  0.1397135447046196  0.11038996696092333  0.1439005978178614  1.0000
  C   C79       1.0  0.3472743457300781  0.8474599049440525  0.8473596066548055  1.0000
  C   C80       1.0  0.4028292515917685  0.9022266364423854  0.9025841259305095  1.0000
  C   C81       1.0  0.3045119213768289  0.9187443507079819  0.8616729655415867  1.0000
  C   C82       1.0  0.44554554814435937  0.8309178877166086  0.88830116798799  1.0000
  C   C83       1.0  0.3312907657996008  0.9451855016348315  0.8883139903956733  1.0000
  C   C84       1.0  0.4187666313652515  0.8044983723763367  0.8616622513350976  1.0000
  C   C85       1.0  0.40487228540941816  0.4489049075759794  0.8528015020930013  1.0000
  C   C86       1.0  0.34521082421510846  0.3012402163286436  0.8971915999175762  1.0000
  C   C87       1.0  0.3369128257738439  0.49176907775509426  0.836170142207088  1.0000
  C   C88       1.0  0.4132022699776032  0.258369656959381  0.9137965817084747  1.0000
  C   C89       1.0  0.3415892048068585  0.3707969303421235  0.8748592622356526  1.0000
  C   C90       1.0  0.40856307678895126  0.3792930069864152  0.8750866692886349  1.0000
  C   C91       1.0  0.945256965846703  0.7973289094263263  0.8491927130777838  1.0000
  C   C92       1.0  0.8046010534493818  0.9527377146810139  0.9007718315755611  1.0000
  C   C93       1.0  0.9916556955584  0.8354586505481264  0.8361001170224398  1.0000
  C   C94       1.0  0.7582038265190223  0.9146100445360046  0.9138986676822967  1.0000
  C   C95       1.0  0.8729207834482227  0.9105303992148418  0.8771631511371965  1.0000
  C   C96       1.0  0.8769168338525547  0.8395267888329838  0.8727968974574694  1.0000
  S   S1        1.0  0.29839977227788245  0.32519615769351873  0.3972182713047586  1.0000
  S   S2        1.0  0.45145991956979276  0.4248677308469763  0.352777174700627  1.0000
  S   S3        1.0  0.6602819438564895  0.6340018990751015  0.5617710931551514  1.0000
  S   S4        1.0  0.5896372788433127  0.6160563130883003  0.6882372646697447  1.0000
  S   S5        1.0  0.13396646257510272  0.1604184797021374  0.5617503588121195  1.0000
  S   S6        1.0  0.11608322160560654  0.08950801993074005  0.6882450638070168  1.0000
  S   S7        1.0  0.9742862321352421  0.8032416079399094  0.40214737146440166  1.0000
  S   S8        1.0  0.7756412766727295  0.9465196337605727  0.3478760396455628  1.0000
  S   S9        1.0  0.6161591203800115  0.5892960114978789  0.18821861181072563  1.0000
  S   S10       1.0  0.6339000647077314  0.6606286512219979  0.061761420642738984  1.0000
  S   S11       1.0  0.012550517299608505  0.18319141776327535  0.11099899323323112  1.0000
  S   S12       1.0  0.2375626107958198  0.06669717539067217  0.1389886422376492  1.0000
  S   S13       1.0  0.2757424800305302  0.44670349729386055  0.8478459303711645  1.0000
  S   S14       1.0  0.4743823249236102  0.30341312779027846  0.9021227598743806  1.0000
  S   S15       1.0  0.9514570077252815  0.9248656550050636  0.8527786002980166  1.0000
  S   S16       1.0  0.7983934417606876  0.8251975724368137  0.8972196867799268  1.0000
  O   O1        1.0  0.00017421412474050046  0.49981246210649016  0.4998760562102404  1.0000
  O   O2        1.0  0.07820599043114383  0.31558326170688383  0.5227243160804775  1.0000
  O   O3        1.0  0.03093220348922901  0.5306707410511464  0.5850791523024127  1.0000
  O   O4        1.0  0.1556858547531377  0.5057073023995784  0.4498957208746716  1.0000
  O   O5        1.0  0.025724190085483708  0.3746083812864781  0.5806885218480031  1.0000
  O   O6        1.0  0.15390426735174864  0.3917409802873305  0.44688188444973054  1.0000
  O   O7        1.0  0.08468379816966382  0.5857757718238117  0.530523463556861  1.0000
  O   O8        1.0  0.004332270715501401  0.6570751265565917  0.4497696721794994  1.0000
  O   O9        1.0  0.8876033062514497  0.495958375294954  0.44245472962190746  1.0000
  O   O10       1.0  0.8911493641520353  0.6528564426944357  0.4471449754630044  1.0000
  O   O11       1.0  0.9969571950731082  0.38751951975820714  0.4421644819602761  1.0000
  O   O12       1.0  0.8748649358854553  0.5255399304801356  0.5808545938818097  1.0000
  O   O13       1.0  0.8154169005188551  0.5775908959311521  0.5228677071304233  1.0000
  O   O14       1.0  0.7497416048778407  0.25029343565087464  0.2500208661944896  1.0000
  O   O15       1.0  0.5959829650326611  0.3583573269423752  0.3031491636819084  1.0000
  O   O16       1.0  0.6653678492567892  0.16447180017129173  0.21939738292547867  1.0000
  O   O17       1.0  0.7250588721070843  0.3750818707870634  0.16927307607267036  1.0000
  O   O18       1.0  0.5942635494570468  0.24438811342695005  0.3000945187825508  1.0000
  O   O19       1.0  0.6720798441908473  0.4342388912464158  0.2271872484593658  1.0000
  O   O20       1.0  0.719926988710732  0.2188555162918177  0.1648637899078764  1.0000
  O   O21       1.0  0.8765721279460338  0.22386252518823813  0.16912532496203167  1.0000
  O   O22       1.0  0.8619708020283172  0.2539342885910825  0.3079701253016722  1.0000
  O   O23       1.0  0.933866166651754  0.17259340373819743  0.22783663547424737  1.0000
  O   O24       1.0  0.7529225949317252  0.36267776786682027  0.3078128407673262  1.0000
  O   O25       1.0  0.7455710262441926  0.09278131157553549  0.3001533495002775  1.0000
  O   O26       1.0  0.8584952530748142  0.09714700407298689  0.3032161125268544  1.0000
  O   O27       1.0  0.24980193162126346  0.7501964779770488  0.7501530645407399  1.0000
  O   O28       1.0  0.37510916018072754  0.7246044994832485  0.6691535183257784  1.0000
  O   O29       1.0  0.36242477143410684  0.7539428463286408  0.8075715285314189  1.0000
  O   O30       1.0  0.17199419503652547  0.9343659491549302  0.7273021167901845  1.0000
  O   O31       1.0  0.4345446141761614  0.6725560752182956  0.7271534424513675  1.0000
  O   O32       1.0  0.22440049741926066  0.8753680737013094  0.6693127134440361  1.0000
  O   O33       1.0  0.2530408446194913  0.8623794733312091  0.8078497784795572  1.0000
  O   O34       1.0  0.09595510149549112  0.8583672415345872  0.8031517703714355  1.0000
  O   O35       1.0  0.16533898248017925  0.6642700820208771  0.7194797858043316  1.0000
  O   O36       1.0  0.0942430827974619  0.7443944191198851  0.8000970124863969  1.0000
  O   O37       1.0  0.21907756233201078  0.7193879453257775  0.6649085840196277  1.0000
  O   O38       1.0  0.35882895665113784  0.5971396338185496  0.802892116871156  1.0000
  O   O39       1.0  0.24571678258131877  0.5928756374296852  0.8001566681020549  1.0000
  O   O40       1.0  0.5002801505797124  0.9997242298539388  0.9999613394942344  1.0000
  O   O41       1.0  0.5044344408396955  0.1571833123554639  0.9497906950203684  1.0000
  O   O42       1.0  0.38800050587392587  0.9959992003897894  0.942032218069933  1.0000
  O   O43       1.0  0.6538842892103035  0.891751739454328  0.9468807785273157  1.0000
  O   O44       1.0  0.3914716511848866  0.15283026492321727  0.9468083787378562  1.0000
  O   O45       1.0  0.6556742303109362  0.005716596501763035  0.9498937708429338  1.0000
  O   O46       1.0  0.4970406772723948  0.8872475466684044  0.942207699325799  1.0000
  O   O47       1.0  0.5781137169208536  0.8157125615887608  0.02282859800271808  1.0000
  O   O48       1.0  0.5301106611299035  0.031207479584011728  0.085107478642314  1.0000
  O   O49       1.0  0.5250006827175043  0.8748841855274774  0.08072147365798801  1.0000
  O   O50       1.0  0.584693034529977  0.08558181520930204  0.030589096903213375  1.0000
  O   O51       1.0  0.3161899068289458  0.07751193741263049  0.022170957214385112  1.0000
  O   O52       1.0  0.3735586796267186  0.026174174624678373  0.08086253932985699  1.0000
  F   F1        1.0  0.7844937796333513  0.5145241990718431  0.3995020222691608  1.0000
  F   F2        1.0  0.9653742478463345  0.23572798886773647  0.3505183196525081  1.0000
  F   F3        1.0  0.7351940159401168  0.4658484430922058  0.3505116683028787  1.0000
  F   F4        1.0  0.014661130007432605  0.2843565589652854  0.39951444287058274  1.0000
  F   F5        1.0  0.15816797245494746  0.6581885479612521  0.5428713742475537  1.0000
  F   F6        1.0  0.09185031208088652  0.5918308141765746  0.7071361737134582  1.0000
  F   F7        1.0  0.20709667163633588  0.7070941884800203  0.591957314605807  1.0000
  F   F8        1.0  0.0429323370148254  0.5429588402998816  0.6580462569859122  1.0000
  F   F9        1.0  0.707088114037184  0.20707265538884914  0.09187129478797827  1.0000
  F   F10       1.0  0.5429477412835128  0.042978486815698526  0.15812147555678988  1.0000
  F   F11       1.0  0.658083580362792  0.15811811979823162  0.042856037385611535  1.0000
  F   F12       1.0  0.5919278627870598  0.0919060469772432  0.2071465448279781  1.0000
  F   F13       1.0  0.23531653161339966  0.965614699510368  0.8504667060319093  1.0000
  F   F14       1.0  0.5148023091430929  0.7841165012081103  0.8994722438463613  1.0000
  F   F15       1.0  0.2846173200987608  0.014261117522245549  0.8994597816069642  1.0000
  F   F16       1.0  0.4654951561065844  0.7354479910386044  0.8504789153551328  1.0000
  F   F17       1.0  0.2879796622537043  0.5224558465402037  0.4091684609197729  1.0000
  F   F18       1.0  0.461986017115315  0.2275987582324461  0.3407776135926142  1.0000
  F   F19       1.0  0.7766795748435771  0.5419230939909732  0.6553467384496301  1.0000
  F   F20       1.0  0.4732178808859759  0.7082003701497113  0.5946607069796457  1.0000
  F   F21       1.0  0.04211549588504941  0.2763815331508468  0.6551825480534532  1.0000
  F   F22       1.0  0.20799520934493643  0.9735054460254345  0.5948234811116322  1.0000
  F   F23       1.0  0.7877847953145789  0.7801677174012693  0.4013650770328211  1.0000
  F   F24       1.0  0.9620385663906748  0.9697617039742636  0.3487058634459217  1.0000
  F   F25       1.0  0.708066185007617  0.47355917643214696  0.09470258618432581  1.0000
  F   F26       1.0  0.5420447922616278  0.7763091747750507  0.15528932151721614  1.0000
  F   F27       1.0  0.0946174227645784  0.10262004997805718  0.2160105158720498  1.0000
  F   F28       1.0  0.15546476995475442  0.14734578315259472  0.0339839522186338  1.0000
  F   F29       1.0  0.46217568116498614  0.46986854780013215  0.8486928348027831  1.0000
  F   F30       1.0  0.2879300225940329  0.28027249997498405  0.9013254146611871  1.0000
  F   F31       1.0  0.9619785352910172  0.7275964845957713  0.8407834414073534  1.0000
  F   F32       1.0  0.7879771153911932  0.022454044750787633  0.9091742023751337  1.0000
