data_image0
_chemical_formula_structural       Gd4H40C64N8O32
_chemical_formula_sum              "Gd4 H40 C64 N8 O32"
_cell_length_a       12.57286458049521
_cell_length_b       14.580577511245938
_cell_length_c       16.120847961973958
_cell_angle_alpha    116.88844664603869
_cell_angle_beta     97.63985103550885
_cell_angle_gamma    89.96213324688429

_space_group_name_H-M_alt    "P 1"
_space_group_IT_number       1

loop_
  _space_group_symop_operation_xyz
  'x, y, z'

loop_
  _atom_site_type_symbol
  _atom_site_label
  _atom_site_symmetry_multiplicity
  _atom_site_fract_x
  _atom_site_fract_y
  _atom_site_fract_z
  _atom_site_occupancy
  Gd  Gd1       1.0  0.4625253676080873  0.3963024250102549  0.36756940036649144  1.0000
  Gd  Gd2       1.0  0.0373539111640824  0.02858066313157788  0.6325176546624505  1.0000
  Gd  Gd3       1.0  0.5374759395959002  0.6036925146572826  0.6324267772763861  1.0000
  Gd  Gd4       1.0  0.9626370112038954  0.97142246557506  0.3674743021630959  1.0000
  H   H1        1.0  0.9172578026944861  0.10637199303408812  0.9303275092673431  1.0000
  H   H2        1.0  0.9580729459521745  0.366464304976219  0.8769603621869492  1.0000
  H   H3        1.0  0.3092055235496147  0.45725652485199214  0.2515508423228424  1.0000
  H   H4        1.0  0.23495546160989275  0.44258893317410747  0.3171396648679518  1.0000
  H   H5        1.0  0.9449927640071321  0.7015798983387144  0.30848097650169126  1.0000
  H   H6        1.0  0.808072525349118  0.7252893666652797  0.549289411073758  1.0000
  H   H7        1.0  0.9016966265718339  0.48383044551084714  0.03310309005696149  1.0000
  H   H8        1.0  0.7405235318203367  0.45088483523090167  0.2846296781667447  1.0000
  H   H9        1.0  0.860263910656151  0.2241666440882853  0.08731071547931889  1.0000
  H   H10       1.0  0.4210154975454543  0.11900743547239043  0.3352645623034504  1.0000
  H   H11       1.0  0.5825361777917522  0.17616957900241204  0.06986641263502241  1.0000
  H   H12       1.0  0.542383997286798  0.48969144646964935  0.12308586754494398  1.0000
  H   H13       1.0  0.19117002890195067  0.20534000389070425  0.7483646852612935  1.0000
  H   H14       1.0  0.26492647875531355  0.12433967578532183  0.6827808620822111  1.0000
  H   H15       1.0  0.554156587080179  0.39237827066727954  0.6910438170541084  1.0000
  H   H16       1.0  0.6916230823347861  0.1756068810840858  0.45043373916600166  1.0000
  H   H17       1.0  0.5987676030007733  0.45061531883247596  0.9668816736488495  1.0000
  H   H18       1.0  0.7587500215973434  0.16540773241980833  0.7149859374878247  1.0000
  H   H19       1.0  0.6395149581077249  0.1366285426380781  0.9128976745251973  1.0000
  H   H20       1.0  0.07863346264087306  0.7835576639766232  0.6649785518504243  1.0000
  H   H21       1.0  0.08277943066256202  0.8936142995990438  0.06968266597355915  1.0000
  H   H22       1.0  0.041931343521788685  0.6335139942759014  0.12302996762586803  1.0000
  H   H23       1.0  0.690786247608635  0.5427480661220868  0.7484549234287171  1.0000
  H   H24       1.0  0.7650403775949713  0.5574161990199471  0.6828674477546528  1.0000
  H   H25       1.0  0.05499382872618237  0.2984134767219118  0.6915096567336149  1.0000
  H   H26       1.0  0.19191890939923437  0.27470152265934195  0.4506995435389882  1.0000
  H   H27       1.0  0.09832425222388959  0.5161539863551782  0.9668888933103901  1.0000
  H   H28       1.0  0.25947954773543097  0.5490945192776592  0.7153555299876259  1.0000
  H   H29       1.0  0.139788521398863  0.7758263079499059  0.9127047137618405  1.0000
  H   H30       1.0  0.5789987148875892  0.8809894847424076  0.6647344770742336  1.0000
  H   H31       1.0  0.417514856819956  0.823849128757857  0.9301624656102305  1.0000
  H   H32       1.0  0.457575137061454  0.5102988902180384  0.8768991817258112  1.0000
  H   H33       1.0  0.8088174287444545  0.794669256814082  0.25162875842682547  1.0000
  H   H34       1.0  0.7350773917921457  0.8756847974245474  0.3172194730431456  1.0000
  H   H35       1.0  0.4458302280090933  0.6076074123110118  0.3089553059954894  1.0000
  H   H36       1.0  0.308373035339855  0.8243924632444576  0.5495606387404662  1.0000
  H   H37       1.0  0.4011864360309119  0.5493839334236769  0.033106866023125285  1.0000
  H   H38       1.0  0.24123365345867143  0.8345832569544172  0.28500690846441756  1.0000
  H   H39       1.0  0.36053839085624156  0.8633858775904671  0.08712615726949476  1.0000
  H   H40       1.0  0.921332070137929  0.21652592018772765  0.3350868419684616  1.0000
  C   C1        1.0  0.6904832579788831  0.5417142957428213  0.4615600300648167  1.0000
  C   C2        1.0  0.9811475595559004  0.16180954036595083  0.8059541714214973  1.0000
  C   C3        1.0  0.9424193315077144  0.2303552701168741  0.8961450844727706  1.0000
  C   C4        1.0  0.9136920117643399  0.1889932825840503  0.9540129007302055  1.0000
  C   C5        1.0  0.9367341469683267  0.33653827728296176  0.9239835404337171  1.0000
  C   C6        1.0  0.9374071360609261  0.8282441187733767  0.4955660613347276  1.0000
  C   C7        1.0  0.8818094879169676  0.7247651839604571  0.4353688983668034  1.0000
  C   C8        1.0  0.894735570336394  0.6695329577437619  0.3406156798557447  1.0000
  C   C9        1.0  0.818106675132327  0.6820544146518941  0.4756239842841907  1.0000
  C   C10       1.0  0.7653514466130673  0.5843916209410693  0.4206707114776904  1.0000
  C   C11       1.0  0.8467933751695682  0.5693070470822548  0.28743448757057866  1.0000
  C   C12       1.0  0.8807532106492885  0.3600049632897324  0.06947636114028198  1.0000
  C   C13       1.0  0.9059161025030844  0.4013898193092659  0.01005206663865715  1.0000
  C   C14       1.0  0.7802843528920534  0.5274686028134427  0.3269470388788207  1.0000
  C   C15       1.0  0.8824900188432494  0.2535528007791541  0.040197501575171705  1.0000
  C   C16       1.0  0.355872239546727  0.1290101151146317  0.2853680642142322  1.0000
  C   C17       1.0  0.8092592159380062  0.07960946891290618  0.5382542089794738  1.0000
  C   C18       1.0  0.518723622374935  0.356238348356321  0.19414335038322145  1.0000
  C   C19       1.0  0.5575447543766215  0.3344025883435648  0.10393897059965698  1.0000
  C   C20       1.0  0.5861190102085273  0.23505308298138064  0.04611530867629198  1.0000
  C   C21       1.0  0.5634971379932878  0.412638978211085  0.07603790191259915  1.0000
  C   C22       1.0  0.5624671473192747  0.332355372472108  0.5040838568149439  1.0000
  C   C23       1.0  0.6177093156555813  0.28886118257688037  0.5642888778754552  1.0000
  C   C24       1.0  0.6044729614068557  0.32818653806139514  0.6589484451430891  1.0000
  C   C25       1.0  0.6814752074176553  0.2058870706825287  0.524057884549549  1.0000
  C   C26       1.0  0.7340660604656435  0.16298516406538247  0.5789794091057061  1.0000
  C   C27       1.0  0.6524271687700177  0.28112629881748313  0.712167818309311  1.0000
  C   C28       1.0  0.6192210316686229  0.29031485978445914  0.9305087078455331  1.0000
  C   C29       1.0  0.5943346038529639  0.39124945125916333  0.9899382495685031  1.0000
  C   C30       1.0  0.7190390887285574  0.1997676942215846  0.672680236408297  1.0000
  C   C31       1.0  0.6173591657823962  0.21322386809336524  0.9599116900794229  1.0000
  C   C32       1.0  0.14396481104045472  0.8433540968275964  0.7145693143568294  1.0000
  C   C33       1.0  0.3095099920716818  0.4582803723787947  0.5384234716244336  1.0000
  C   C34       1.0  0.018851676818421488  0.8381766028158921  0.19403934682943452  1.0000
  C   C35       1.0  0.057603888467880886  0.76962981479668  0.1038583674822248  1.0000
  C   C36       1.0  0.08634095001450245  0.8109930336866145  0.045993407424937446  1.0000
  C   C37       1.0  0.06328393902517597  0.6634459675995503  0.07601440113603532  1.0000
  C   C38       1.0  0.06258737012637282  0.17175445635509584  0.5044275327691778  1.0000
  C   C39       1.0  0.1181860628722333  0.27522579522830876  0.5646217224984085  1.0000
  C   C40       1.0  0.1052560928285189  0.33045443423587517  0.6593736289750323  1.0000
  C   C41       1.0  0.18188456763906657  0.31793828009605807  0.5243636928029004  1.0000
  C   C42       1.0  0.2346427809375129  0.41559945536705817  0.5793122849326693  1.0000
  C   C43       1.0  0.15320631076814098  0.43068046920026853  0.7125550122058896  1.0000
  C   C44       1.0  0.1192818659518338  0.6399836642087494  0.9305276530689071  1.0000
  C   C45       1.0  0.09410835833627118  0.5985954725977151  0.9899462053818481  1.0000
  C   C46       1.0  0.2197128782620794  0.47251372783004786  0.6730372464543775  1.0000
  C   C47       1.0  0.1175540869172735  0.7464354606232889  0.9598093050234411  1.0000
  C   C48       1.0  0.6441275923163444  0.8709839201671202  0.7146410747413652  1.0000
  C   C49       1.0  0.1907314430662268  0.9203898609868162  0.46174242250167197  1.0000
  C   C50       1.0  0.48127012717589673  0.6437651145768655  0.8058551332478672  1.0000
  C   C51       1.0  0.44246134907408663  0.6656017644649593  0.8960651331333479  1.0000
  C   C52       1.0  0.41391532959728744  0.7649573151461412  0.9538966262469799  1.0000
  C   C53       1.0  0.4364918557520454  0.5873594135614935  0.9239570050400372  1.0000
  C   C54       1.0  0.43753562561363424  0.6676471040821212  0.49591679786104237  1.0000
  C   C55       1.0  0.38229340350577706  0.7111411250502686  0.43571083607459116  1.0000
  C   C56       1.0  0.39552207849439464  0.6718076924358344  0.341049283500915  1.0000
  C   C57       1.0  0.31852485743015535  0.794116650065135  0.47593936746182647  1.0000
  C   C58       1.0  0.2659229581646584  0.837010295219713  0.421013331850247  1.0000
  C   C59       1.0  0.3475631268803738  0.7188641010849537  0.28782757634529316  1.0000
  C   C60       1.0  0.3807899369063889  0.7096894884197127  0.06949620264301601  1.0000
  C   C61       1.0  0.4056576013124128  0.608749238347734  0.0100569823002202  1.0000
  C   C62       1.0  0.28094707354902226  0.800220754967981  0.3273116279602704  1.0000
  C   C63       1.0  0.3826720759238  0.7867871903369092  0.0401024227241677  1.0000
  C   C64       1.0  0.8559476459395228  0.1567676914123837  0.2855385329010076  1.0000
  N   N1        1.0  0.8711185354632746  0.5148719925677342  0.19460738756622217  1.0000
  N   N2        1.0  0.8550199750519238  0.4180622356659214  0.16083159800106012  1.0000
  N   N3        1.0  0.628066819391215  0.31954664667436794  0.8049990974189426  1.0000
  N   N4        1.0  0.6448604517247104  0.25683850229187033  0.8390985330461261  1.0000
  N   N5        1.0  0.1288891483622621  0.4851185805051442  0.8053844691526137  1.0000
  N   N6        1.0  0.1450084578455701  0.5819245001726969  0.8391673821276626  1.0000
  N   N7        1.0  0.3719202052902516  0.6804426661837653  0.19499441024910874  1.0000
  N   N8        1.0  0.3551516152237681  0.743158418899675  0.1609043449296762  1.0000
  O   O1        1.0  0.6409129831277056  0.45499514293891963  0.4065081080379613  1.0000
  O   O2        1.0  0.6801929548777182  0.5955166491271485  0.5479169048180381  1.0000
  O   O3        1.0  0.9852469398478194  0.06526718394515992  0.7807576064835543  1.0000
  O   O4        1.0  0.010564547625264703  0.2006273909668793  0.7544982839203129  1.0000
  O   O5        1.0  0.9596734418030264  0.8591865251924347  0.5836643736865668  1.0000
  O   O6        1.0  0.9627707897918253  0.8847520125839168  0.45805353322459297  1.0000
  O   O7        1.0  0.29276672862057745  0.41376275327170486  0.28033267440530096  1.0000
  O   O8        1.0  0.34213069215049785  0.2083445833138811  0.2822709364999056  1.0000
  O   O9        1.0  0.8588476900519879  0.04802578909380625  0.5934048981375213  1.0000
  O   O10       1.0  0.8198182575208149  0.04721894769495085  0.4519744324586553  1.0000
  O   O11       1.0  0.5146109864244294  0.2849443493264303  0.21940191130507702  1.0000
  O   O12       1.0  0.48922438931458595  0.446540589943929  0.24550354374200362  1.0000
  O   O13       1.0  0.5403922735108607  0.2753399658277261  0.4159570675373061  1.0000
  O   O14       1.0  0.5372136937089707  0.4264383451212339  0.5416223265762738  1.0000
  O   O15       1.0  0.2072164477752736  0.1329512010442072  0.7198161892649253  1.0000
  O   O16       1.0  0.15776546629339797  0.9255996582002625  0.7173318599742586  1.0000
  O   O17       1.0  0.3590857079780321  0.5449941043083513  0.5934800329838196  1.0000
  O   O18       1.0  0.3197959564927473  0.4044820467582254  0.45206519774524867  1.0000
  O   O19       1.0  0.014729230876376691  0.9347156364815064  0.21922391071394282  1.0000
  O   O20       1.0  0.9894330274917778  0.7993638479898593  0.24549878252143015  1.0000
  O   O21       1.0  0.0403209395092077  0.14080985123314343  0.4163254749318739  1.0000
  O   O22       1.0  0.037213110412643906  0.11524988113799843  0.5419402127544686  1.0000
  O   O23       1.0  0.7072258222834124  0.5862394310293054  0.7196706871971726  1.0000
  O   O24       1.0  0.6578806043809492  0.7916445375953884  0.7177256642199195  1.0000
  O   O25       1.0  0.14114222387041045  0.9519796691764527  0.40659786555986693  1.0000
  O   O26       1.0  0.1801755706865436  0.952781751677833  0.5480228259016896  1.0000
  O   O27       1.0  0.48537528012814596  0.7150588394099628  0.7805923803241582  1.0000
  O   O28       1.0  0.5107725045543957  0.5534671749497946  0.7544977327649676  1.0000
  O   O29       1.0  0.45961313640364654  0.7246592367572546  0.5840441850437726  1.0000
  O   O30       1.0  0.4627877192624297  0.5735623460195853  0.4583803838932709  1.0000
  O   O31       1.0  0.7927716823570349  0.8670588895877814  0.28016421188144847  1.0000
  O   O32       1.0  0.8421849221255542  0.07448458439497331  0.28271170668873685  1.0000
