data_image0
_chemical_formula_structural       Zn4H22C60I3N19O6
_chemical_formula_sum              "Zn4 H22 C60 I3 N19 O6"
_cell_length_a       18.212908781758745
_cell_length_b       19.89820158934875
_cell_length_c       19.271503513543333
_cell_angle_alpha    115.23743070903454
_cell_angle_beta     99.42409295607285
_cell_angle_gamma    112.40053445443152

_space_group_name_H-M_alt    "P 1"
_space_group_IT_number       1

loop_
  _space_group_symop_operation_xyz
  'x, y, z'

loop_
  _atom_site_type_symbol
  _atom_site_label
  _atom_site_symmetry_multiplicity
  _atom_site_fract_x
  _atom_site_fract_y
  _atom_site_fract_z
  _atom_site_occupancy
  Zn  Zn1       1.0  0.9931002586315926  0.6063331260093818  0.11890521235092412  1.0000
  Zn  Zn2       1.0  0.9979087932385864  0.3971609690912672  0.899058096372862  1.0000
  Zn  Zn3       1.0  0.11312934399044376  0.6110131365602243  0.9815550156766407  1.0000
  Zn  Zn4       1.0  0.8687709131970891  0.390608289842433  0.9987405793418773  1.0000
  H   H1        1.0  0.83576915431113  0.6068578039449051  0.013808673708623974  1.0000
  H   H2        1.0  0.8942525398317898  0.3950046586629625  0.7473867820747275  1.0000
  H   H3        1.0  0.6966842776157093  0.3628709942390246  0.04967867026250152  1.0000
  H   H4        1.0  0.017604230527723485  0.3271146233323634  0.7128860793564797  1.0000
  H   H5        1.0  0.8475669292355049  0.6413707892416057  0.18488470320030354  1.0000
  H   H6        1.0  0.136754986771578  0.6201874825589899  0.26125021805434306  1.0000
  H   H7        1.0  0.1389270266428965  0.37666994483745947  0.0007009060630877476  1.0000
  H   H8        1.0  0.2794148443200867  0.8309782271431061  0.12706883837898883  1.0000
  H   H9        1.0  0.7948441921172247  0.1878198714900563  0.9550483839995323  1.0000
  H   H10       1.0  0.9845560867648188  0.20892163941380207  0.843947549045126  1.0000
  H   H11       1.0  0.9798003275609871  0.34281241056865497  0.09380577106575315  1.0000
  H   H12       1.0  0.28295735023070273  0.6536876392126914  0.1162080122999142  1.0000
  H   H13       1.0  0.6177083427692267  0.22536674637810716  0.4701732526001266  1.0000
  H   H14       1.0  0.48480385253233743  0.10018500017301331  0.34727029734698794  1.0000
  H   H15       1.0  0.3490661983232357  0.0845319147225538  0.5084568812497282  1.0000
  H   H16       1.0  0.48207571868751126  0.20978619384264624  0.6316576546983229  1.0000
  H   H17       1.0  0.24918657921120516  0.5852629355447336  0.4822520929908124  1.0000
  H   H18       1.0  0.05772630880058219  0.31257428898599937  0.4578105710456769  1.0000
  H   H19       1.0  0.04890029353727952  0.3171722974899468  0.33041661503349934  1.0000
  H   H20       1.0  0.7526406290223876  0.8143370637490366  0.9402802429478855  1.0000
  H   H21       1.0  0.7609263783168811  0.9355443680233576  0.9269831291493276  1.0000
  H   H22       1.0  0.9490492529753778  0.8171340535715571  0.8409550235823533  1.0000
  C   C1        1.0  0.885652103617673  0.6151667442049488  0.9889219140911933  1.0000
  C   C2        1.0  0.8580321208339752  0.39107810945436233  0.7863443285540442  1.0000
  C   C3        1.0  0.15093629683020285  0.536096112201186  0.8201165623199246  1.0000
  C   C4        1.0  0.7456110380844194  0.4299471907415935  0.07976853116385738  1.0000
  C   C5        1.0  0.05765166045368626  0.3964589526525232  0.7553063578825673  1.0000
  C   C6        1.0  0.8223779998495857  0.5724684046350106  0.14782633289566863  1.0000
  C   C7        1.0  0.7608973661371365  0.3730487084472714  0.842735012500363  1.0000
  C   C8        1.0  0.9766088549667059  0.6452951121740896  0.9298905938444263  1.0000
  C   C9        1.0  0.9041311177263509  0.6522570724370597  0.9413191630849059  1.0000
  C   C10       1.0  0.7703916388771148  0.36618345869466407  0.7687137060696331  1.0000
  C   C11       1.0  0.11791436950472439  0.4566571222600048  0.7440917928415091  1.0000
  C   C12       1.0  0.7406701168790589  0.5042138035735775  0.1258459231791562  1.0000
  C   C13       1.0  0.0912480667445834  0.5543670461290662  0.21013848085466696  1.0000
  C   C14       1.0  0.16106666962330957  0.4437630077677711  0.02233348677981444  1.0000
  C   C15       1.0  0.22969060335225305  0.806466688262148  0.14822188469093317  1.0000
  C   C16       1.0  0.8430801025050981  0.2067741713247884  0.9303319425743127  1.0000
  C   C17       1.0  0.9403144564956915  0.21761853675455708  0.8736383041797637  1.0000
  C   C18       1.0  0.14481635612323618  0.7854501427385401  0.2148966316295287  1.0000
  C   C19       1.0  0.010548660239528766  0.4122910405446731  0.12467211314972096  1.0000
  C   C20       1.0  0.2347747136121968  0.5857543822624225  0.08194419936073416  1.0000
  C   C21       1.0  0.07700702465565709  0.47679492656708794  0.20411130623337928  1.0000
  C   C22       1.0  0.24449786599924989  0.5162490303385707  0.07497953948457331  1.0000
  C   C23       1.0  0.2226310784278097  0.8501939920379726  0.2246214433815865  1.0000
  C   C24       1.0  0.884584412409822  0.1629500720572423  0.8932122863022229  1.0000
  C   C25       1.0  0.6687348057803321  0.5084896396971673  0.13861737797525114  1.0000
  C   C26       1.0  0.6030717309652401  0.5113743531191304  0.14242047692808765  1.0000
  C   C27       1.0  0.5303744850917482  0.5138941914086246  0.14099411614012058  1.0000
  C   C28       1.0  0.46243322701545236  0.5155138773792913  0.1345137597076587  1.0000
  C   C29       1.0  0.38848549949073424  0.5167073539134465  0.12169933284791058  1.0000
  C   C30       1.0  0.3206800297817054  0.5172662121593137  0.1042745062372461  1.0000
  C   C31       1.0  0.4846072343012651  0.1250837480991507  0.40970574666580734  1.0000
  C   C32       1.0  0.40853766203942143  0.08281205540269101  0.41970900862217053  1.0000
  C   C33       1.0  0.4078522882725649  0.11624013500854602  0.5005827534834851  1.0000
  C   C34       1.0  0.4819296327643201  0.18596466425047714  0.5691303061530847  1.0000
  C   C35       1.0  0.5596425388990768  0.22485434481149721  0.5596299927265633  1.0000
  C   C36       1.0  0.5586978308099121  0.1948444472247957  0.4782883995864113  1.0000
  C   C37       1.0  0.3378179324021104  0.005011594704797101  0.3510225849872556  1.0000
  C   C38       1.0  0.6370595081347047  0.2865861697234351  0.6309984809671222  1.0000
  C   C39       1.0  0.7027012311110923  0.3295956571765757  0.694052202094973  1.0000
  C   C40       1.0  0.28081642287828157  0.9337664025186074  0.292153233211259  1.0000
  C   C41       1.0  0.21392269746097264  0.5201402559182  0.5456830830828636  1.0000
  C   C42       1.0  0.15875062261547865  0.4450156887397441  0.5426654726499223  1.0000
  C   C43       1.0  0.10073484943497132  0.3715498737965958  0.46236160939265153  1.0000
  C   C44       1.0  0.09524504133723606  0.3743799408073514  0.3912232124027142  1.0000
  C   C45       1.0  0.14657328510791953  0.4519170127345262  0.39627784117013926  1.0000
  C   C46       1.0  0.2075247060022676  0.524454432775535  0.475139363073346  1.0000
  C   C47       1.0  0.1525550761049885  0.4442331873549038  0.6141998428660288  1.0000
  C   C48       1.0  0.13219299490896214  0.4585518130057977  0.325720876716403  1.0000
  C   C49       1.0  0.11080568532211288  0.466490779822422  0.26742205824365334  1.0000
  C   C50       1.0  0.13656742793438065  0.44527691685587456  0.6736870428499985  1.0000
  C   C51       1.0  0.8017494255040913  0.9090136378099062  0.9081327280080559  1.0000
  C   C52       1.0  0.8600563512397486  0.946762732840803  0.877693787485896  1.0000
  C   C53       1.0  0.911970069691705  0.9109152201183336  0.8520723494678606  1.0000
  C   C54       1.0  0.9077911389980143  0.8431957817048784  0.8592285374801137  1.0000
  C   C55       1.0  0.851181723310077  0.8082782969149563  0.8924288068108694  1.0000
  C   C56       1.0  0.7970893498237074  0.8414442573212781  0.9155391170165927  1.0000
  C   C57       1.0  0.86694770024382  0.019370812096113403  0.8770315305211229  1.0000
  C   C58       1.0  0.8554197877686815  0.7450963233096317  0.905613602946424  1.0000
  C   C59       1.0  0.8708680171208412  0.6965271189387752  0.9197581359832017  1.0000
  C   C60       1.0  0.8742796529961723  0.08521470768845768  0.8824290313472789  1.0000
  I   I1        1.0  0.9989450380332554  0.9618324761876876  0.8046362750656614  1.0000
  I   I2        1.0  0.2520171878093861  0.6536760647862464  0.8559727001196011  1.0000
  I   I3        1.0  0.6478898829123665  0.3455307121483955  0.8629912845668671  1.0000
  N   N1        1.0  0.9431884144451033  0.5905494805011386  0.004188575395453008  1.0000
  N   N2        1.0  0.8957394288819314  0.4093531087354735  0.8631771883822098  1.0000
  N   N3        1.0  0.11131124936010646  0.523789174790636  0.8701295336342981  1.0000
  N   N4        1.0  0.8227965242595302  0.4526160791793004  0.07410444098658081  1.0000
  N   N5        1.0  0.05450706945899944  0.4366441557396429  0.8301802216691174  1.0000
  N   N6        1.0  0.8704996731599691  0.5409970508188167  0.11634077835129367  1.0000
  N   N7        1.0  0.8360104480713133  0.39843599117978806  0.8981554900063317  1.0000
  N   N8        1.0  0.9980261003984763  0.6078472468259617  0.9672253034736686  1.0000
  N   N9        1.0  0.03627313240035323  0.5363492478555401  0.14068100592276517  1.0000
  N   N10       1.0  0.10781989871626509  0.46897436136750775  0.9994359626583248  1.0000
  N   N11       1.0  0.16291412575222342  0.7245801648293835  0.10033414067009956  1.0000
  N   N12       1.0  0.8718916229202875  0.2807770321590368  0.9325709298002068  1.0000
  N   N13       1.0  0.9322704164806338  0.2876459377141103  0.8973953030645491  1.0000
  N   N14       1.0  0.11088721063385512  0.7113526321161102  0.14095652689439916  1.0000
  N   N15       1.0  0.9867062158447693  0.44916471881062137  0.08807116363388433  1.0000
  N   N16       1.0  0.15292516417285648  0.5561244038400234  0.03619168136084028  1.0000
  N   N17       1.0  0.09916388964288092  0.7881478805641323  0.26752865289667943  1.0000
  N   N18       1.0  0.2795561266498296  0.5986867587231827  0.6258223333605598  1.0000
  N   N19       1.0  0.033441499724659665  0.6829526677307313  0.8983287085543453  1.0000
  O   O1        1.0  0.12805355450029762  0.8543360734886393  0.33626202802148  1.0000
  O   O2        1.0  0.02734458965729669  0.7196160544968893  0.24020883968527323  1.0000
  O   O3        1.0  0.2992628659739437  0.6691069374929768  0.6331018930900997  1.0000
  O   O4        1.0  0.3117961288040404  0.5895187939485709  0.6806245986519954  1.0000
  O   O5        1.0  0.012418804155522841  0.7125604415698632  0.8589364346637611  1.0000
  O   O6        1.0  0.105815170646295  0.6867141248752873  0.9151854428157122  1.0000
