data_image0
_chemical_formula_structural       Co6H60C78N6O33
_chemical_formula_sum              "Co6 H60 C78 N6 O33"
_cell_length_a       10.934431277213891
_cell_length_b       10.934474402385803
_cell_length_c       27.56447869510091
_cell_angle_alpha    90.00120910612871
_cell_angle_beta     89.99833761581493
_cell_angle_gamma    120.00130230881666

_space_group_name_H-M_alt    "P 1"
_space_group_IT_number       1

loop_
  _space_group_symop_operation_xyz
  'x, y, z'

loop_
  _atom_site_type_symbol
  _atom_site_label
  _atom_site_symmetry_multiplicity
  _atom_site_fract_x
  _atom_site_fract_y
  _atom_site_fract_z
  _atom_site_occupancy
  Co  Co1       1.0  0.9217280460846028  0.7471785641955223  0.0280444264585782  1.0000
  Co  Co2       1.0  0.25282258503769833  0.17455285182173705  0.3613835816204514  1.0000
  Co  Co3       1.0  0.8254324190313227  0.07828131818251911  0.6947121445453917  1.0000
  Co  Co4       1.0  0.7471875312417781  0.9217409479373945  0.9719497370871082  1.0000
  Co  Co5       1.0  0.17455247704572227  0.2528241302384658  0.6386132557055717  1.0000
  Co  Co6       1.0  0.07828093105259641  0.8254474836030994  0.3052912010852751  1.0000
  H   H1        1.0  0.23693395867629624  0.7999310475298387  0.2173128237227004  1.0000
  H   H2        1.0  0.20011307500454473  0.43698024346224446  0.5506230986225944  1.0000
  H   H3        1.0  0.5630296350572763  0.7630983626648348  0.8839640683542598  1.0000
  H   H4        1.0  0.7998771325301561  0.23688775346602156  0.7826953920199241  1.0000
  H   H5        1.0  0.4369763841422198  0.20006411929868764  0.44936651649499737  1.0000
  H   H6        1.0  0.7630833559325367  0.5630194647186857  0.1160313586902788  1.0000
  H   H7        1.0  0.32897634990550984  0.4725955454701349  0.2579530858470775  1.0000
  H   H8        1.0  0.5274015037732129  0.8563727868620535  0.5912858109895183  1.0000
  H   H9        1.0  0.14363725286641224  0.671041919675659  0.9246020907303957  1.0000
  H   H10       1.0  0.4725518391541782  0.32894202806838996  0.7420529596067169  1.0000
  H   H11       1.0  0.8563737030654225  0.5274049935830408  0.4087305671357128  1.0000
  H   H12       1.0  0.6710541665348801  0.14363878474475933  0.0753894225537337  1.0000
  H   H13       1.0  0.03884751524132204  0.5533697385199686  0.33775707420417683  1.0000
  H   H14       1.0  0.4466180832016562  0.4854662888951466  0.6710827137419813  1.0000
  H   H15       1.0  0.5145154535897306  0.9611155293897157  0.004423782734868099  1.0000
  H   H16       1.0  0.5533642622065074  0.03886886945196724  0.6622340627791914  1.0000
  H   H17       1.0  0.48549862614156325  0.4466129965856781  0.328914419739327  1.0000
  H   H18       1.0  0.9611373365920742  0.5145395920920209  0.9955764886427685  1.0000
  H   H19       1.0  0.26730183580822603  0.7228494999043991  0.13937687822915018  1.0000
  H   H20       1.0  0.27717824008681174  0.5444561279219329  0.47269019631018944  1.0000
  H   H21       1.0  0.45556010863544566  0.7327031030252159  0.8060240324032363  1.0000
  H   H22       1.0  0.7228224247606293  0.2672815373637151  0.8606346758419647  1.0000
  H   H23       1.0  0.5444578550912951  0.2771628985649742  0.5273161802654441  1.0000
  H   H24       1.0  0.7327055971602123  0.4555445695529629  0.1939745131406312  1.0000
  H   H25       1.0  0.430525170764824  0.7785220572997249  0.070315188784889  1.0000
  H   H26       1.0  0.2214924121214566  0.6520164477084408  0.4036372394029398  1.0000
  H   H27       1.0  0.3479918720775003  0.5694666754352795  0.7369673384459359  1.0000
  H   H28       1.0  0.7785123916272172  0.4305259298625616  0.9296902172122115  1.0000
  H   H29       1.0  0.6520466341598165  0.2215075054032171  0.5963690557351953  1.0000
  H   H30       1.0  0.5694531776879971  0.34797266940120875  0.2630294554050465  1.0000
  H   H31       1.0  0.7060204556932704  0.6990144522650683  0.15950088164935033  1.0000
  H   H32       1.0  0.3010214578624116  0.00700963959494065  0.49284055810412036  1.0000
  H   H33       1.0  0.9929903738361362  0.2939900721774083  0.8261682242199981  1.0000
  H   H34       1.0  0.6989797120487893  0.7059903444006893  0.8404944216050791  1.0000
  H   H35       1.0  0.007018657438649736  0.3010189813869247  0.5071568292111266  1.0000
  H   H36       1.0  0.2939733707300859  0.992994451787311  0.17382399925227793  1.0000
  H   H37       1.0  0.5450551096197744  0.6442281489379555  0.22929466344750435  1.0000
  H   H38       1.0  0.35580359971220354  0.9008120251088345  0.5626247336483843  1.0000
  H   H39       1.0  0.09919467651805286  0.4549646081913039  0.8959573307011368  1.0000
  H   H40       1.0  0.644169469098756  0.544999514542923  0.7707100480377844  1.0000
  H   H41       1.0  0.9008045130461395  0.3557831547395269  0.4373733418886231  1.0000
  H   H42       1.0  0.454968966003122  0.09919428473953931  0.1040382192839147  1.0000
  H   H43       1.0  0.0150746559421933  0.010713004907238104  0.9711875614963219  1.0000
  H   H44       1.0  0.9892945580079697  0.0043253413792571326  0.30452139787576016  1.0000
  H   H45       1.0  0.9956396270398076  0.9849485182086969  0.6378570005889513  1.0000
  H   H46       1.0  0.010716795595968201  0.015040238467662403  0.0288142592531102  1.0000
  H   H47       1.0  0.0043019931809453954  0.9893096575258369  0.6954850718787425  1.0000
  H   H48       1.0  0.9849561351591166  0.995663031755392  0.3621490086352351  1.0000
  H   H49       1.0  0.04568604829563583  0.8747383762523953  0.11419783042317277  1.0000
  H   H50       1.0  0.12528075999556884  0.17096124225066237  0.4475393853317015  1.0000
  H   H51       1.0  0.8290663557169612  0.9543158090181979  0.78087232589629  1.0000
  H   H52       1.0  0.8746908152915012  0.045684519073887694  0.8857938800432874  1.0000
  H   H53       1.0  0.17098066497478465  0.125303503822316  0.5524645506720489  1.0000
  H   H54       1.0  0.9543298461019916  0.8290407306738533  0.21913689482607876  1.0000
  H   H55       1.0  0.1626728394743465  0.9065514479855138  0.07116545897726918  1.0000
  H   H56       1.0  0.09344028308293417  0.256113560464776  0.40450482843919383  1.0000
  H   H57       1.0  0.7438925938252298  0.8373365424698564  0.7378386811017917  1.0000
  H   H58       1.0  0.9065621753634902  0.16268379864176563  0.9288274688532636  1.0000
  H   H59       1.0  0.25608453342884024  0.09342288521169458  0.5955001123760013  1.0000
  H   H60       1.0  0.8373334899696093  0.7438820910613094  0.26216614078470707  1.0000
  C   C1        1.0  0.21994514086749464  0.7103846178146613  0.23949834630853664  1.0000
  C   C2        1.0  0.2896472120959288  0.5095439093689863  0.572814854048552  1.0000
  C   C3        1.0  0.49046402489281626  0.7800763112759628  0.9061518077028479  1.0000
  C   C4        1.0  0.7103422219078084  0.2199096787076019  0.7605056831582075  1.0000
  C   C5        1.0  0.5095451736400493  0.289610346001574  0.42718067408504357  1.0000
  C   C6        1.0  0.7800700129868474  0.490459541116188  0.09384334375742748  1.0000
  C   C7        1.0  0.29453664854867867  0.6392765038285475  0.23045409638547196  1.0000
  C   C8        1.0  0.3607444608424685  0.6552499568955383  0.5637758850496013  1.0000
  C   C9        1.0  0.34476270275208504  0.705480509699079  0.8971069968835363  1.0000
  C   C10       1.0  0.6392328294966633  0.2945009549402543  0.7695528299075176  1.0000
  C   C11       1.0  0.6552434168984503  0.3607192848979965  0.436227647043701  1.0000
  C   C12       1.0  0.7054829600346295  0.34475698685905365  0.10288922578154569  1.0000
  C   C13       1.0  0.2745088142938883  0.5322663709958774  0.26286214015759407  1.0000
  C   C14       1.0  0.46773630867541255  0.7422335714215932  0.5961912655111232  1.0000
  C   C15       1.0  0.25777062043148663  0.7255020625974354  0.9295148692699513  1.0000
  C   C16       1.0  0.5322267362864821  0.27448066239237096  0.7371438971336273  1.0000
  C   C17       1.0  0.7422377347223588  0.46773083025236445  0.4038188551471862  1.0000
  C   C18       1.0  0.7255117536884086  0.2577744333370618  0.07047928176857708  1.0000
  C   C19       1.0  0.18231245928712528  0.5000671200640595  0.301956690835233  1.0000
  C   C20       1.0  0.4999221319751826  0.6822374369159122  0.6352864352680072  1.0000
  C   C21       1.0  0.31775834475241294  0.817672188427075  0.9686141437345765  1.0000
  C   C22       1.0  0.5000446588051659  0.18230391974124432  0.6980440998538098  1.0000
  C   C23       1.0  0.682254293555012  0.49992308380224443  0.3647208266979547  1.0000
  C   C24       1.0  0.8176883321412876  0.3177703221501533  0.0313804941073812  1.0000
  C   C25       1.0  0.11125934656724475  0.575405164215944  0.307595831076263  1.0000
  C   C26       1.0  0.42459254271225416  0.5358471172741092  0.6409214070908291  1.0000
  C   C27       1.0  0.4641510441780596  0.8887214456333441  0.9742563682093603  1.0000
  C   C28       1.0  0.5753857177469186  0.11126014643859625  0.6924009622674063  1.0000
  C   C29       1.0  0.5358603186975018  0.4245766939846051  0.35907894703234416  1.0000
  C   C30       1.0  0.8887348054881912  0.46416177799156355  0.0257404679351367  1.0000
  C   C31       1.0  0.1637292073115263  0.38937900186533636  0.33794576901324547  1.0000
  C   C32       1.0  0.6105992025042467  0.774352095686858  0.6712796090370503  1.0000
  C   C33       1.0  0.22564536416762607  0.8362533335024268  0.004603775790165801  1.0000
  C   C34       1.0  0.3893522937458798  0.16371464894680804  0.6620570384555718  1.0000
  C   C35       1.0  0.7743712303618511  0.6106156274137721  0.3287327765473123  1.0000
  C   C36       1.0  0.8362696562010116  0.22565982591330433  0.9953898890895869  1.0000
  C   C37       1.0  0.39305611941582447  0.6777132279334808  0.18924449452072165  1.0000
  C   C38       1.0  0.3223168528862672  0.7153329145459894  0.5225653478808638  1.0000
  C   C39       1.0  0.28467597711470216  0.6069618144230091  0.8558988228704152  1.0000
  C   C40       1.0  0.6776714564155455  0.3930145763731335  0.8107629423975736  1.0000
  C   C41       1.0  0.7153272708266202  0.3222935721543439  0.4774352479477954  1.0000
  C   C42       1.0  0.606962696237133  0.2846680538790667  0.144099099820032  1.0000
  C   C43       1.0  0.36417077610682486  0.7186073459856531  0.1442797152232842  1.0000
  C   C44       1.0  0.28141867792314945  0.6455668627054226  0.477598360656529  1.0000
  C   C45       1.0  0.35444816173920657  0.6358367973648029  0.8109319744247399  1.0000
  C   C46       1.0  0.7185782626815608  0.36414822578042577  0.8557287912146376  1.0000
  C   C47       1.0  0.64556709631632  0.28140578973426517  0.5224056739071088  1.0000
  C   C48       1.0  0.6358383348987645  0.354437466732172  0.18906543066809425  1.0000
  C   C49       1.0  0.45530083285011375  0.7490359387330658  0.10512203855103758  1.0000
  C   C50       1.0  0.2509873555387118  0.7062741512408978  0.4384480403464082  1.0000
  C   C51       1.0  0.2937367795887554  0.5447012734227884  0.771777565020578  1.0000
  C   C52       1.0  0.749013698194517  0.4552858613599472  0.8948808353439758  1.0000
  C   C53       1.0  0.7062849779532672  0.25098498086001114  0.5615573978344202  1.0000
  C   C54       1.0  0.5446939696250439  0.2937239786663498  0.22821935281999825  1.0000
  C   C55       1.0  0.5782167905070494  0.740078049425776  0.11012120693603578  1.0000
  C   C56       1.0  0.2599363229358359  0.8381410015600892  0.4434524445388348  1.0000
  C   C57       1.0  0.1618592166671533  0.42178453068247995  0.7767813504900403  1.0000
  C   C58       1.0  0.7400588101653157  0.5782034644935837  0.8898796741975941  1.0000
  C   C59       1.0  0.8381557283608744  0.2599385337631547  0.5565469680995249  1.0000
  C   C60       1.0  0.4217719920722375  0.16185557904891826  0.22321233938309595  1.0000
  C   C61       1.0  0.6090176389618378  0.7029569676490584  0.15534465723941784  1.0000
  C   C62       1.0  0.2970743294404345  0.9060646237184999  0.48867883749881  1.0000
  C   C63       1.0  0.0939381767617036  0.39099073537118306  0.8220082976340635  1.0000
  C   C64       1.0  0.7029241077447708  0.6089917649438519  0.8446555082662568  1.0000
  C   C65       1.0  0.9060698202282325  0.2970625096303724  0.5113200474878994  1.0000
  C   C66       1.0  0.39098224554086874  0.09393990354077189  0.17798554714089923  1.0000
  C   C67       1.0  0.5180006452146629  0.6717385438069672  0.19442034037666636  1.0000
  C   C68       1.0  0.32829449337607713  0.8462549406355108  0.5277515208763646  1.0000
  C   C69       1.0  0.15375188588767233  0.4820142582554539  0.861082173299067  1.0000
  C   C70       1.0  0.671693630721812  0.5179577595375238  0.8055818308669201  1.0000
  C   C71       1.0  0.8462509876092668  0.32827254330764805  0.4722492229118202  1.0000
  C   C72       1.0  0.4820121490791466  0.1537490366248663  0.1389146997989528  1.0000
  C   C73       1.0  0.6745707730805535  0.7668704852451995  0.06793494956804838  1.0000
  C   C74       1.0  0.2331523194440808  0.9077121714511666  0.4012703398473575  1.0000
  C   C75       1.0  0.09228622474312687  0.325441094489868  0.7345966209357044  1.0000
  C   C76       1.0  0.7668611256977728  0.6745691147249888  0.9320613848880438  1.0000
  C   C77       1.0  0.9077280394682177  0.23315978297399942  0.5987282800935815  1.0000
  C   C78       1.0  0.3254183111097718  0.09228545081933259  0.2653958782203532  1.0000
  N   N1        1.0  0.13097947783240482  0.6802353688046525  0.277167501774322  1.0000
  N   N2        1.0  0.3197788740950783  0.4507312920892162  0.6104864693065791  1.0000
  N   N3        1.0  0.5492684870262182  0.8690197346418246  0.9438267786285194  1.0000
  N   N4        1.0  0.6802116664023856  0.1309693582538714  0.7228316356047981  1.0000
  N   N5        1.0  0.4507397077161386  0.3197502907031905  0.3895072898977644  1.0000
  N   N6        1.0  0.8690193186603422  0.549272665098883  0.056170317703625  1.0000
  O   O1        1.0  0.7834471377564685  0.7552559094161571  0.0756688665852678  1.0000
  O   O2        1.0  0.24474037353790834  0.02819316390612417  0.4090120679984395  1.0000
  O   O3        1.0  0.9717810733919237  0.2165752769596384  0.74233150115694  1.0000
  O   O4        1.0  0.7552665151211145  0.7834577965688543  0.924323687327451  1.0000
  O   O5        1.0  0.02822285018049088  0.24478400224802505  0.5909904534661549  1.0000
  O   O6        1.0  0.2165325846061633  0.971796380260031  0.2576597889149355  1.0000
  O   O7        1.0  0.640318683324608  0.7963418227875678  0.027272066737950195  1.0000
  O   O8        1.0  0.2037019738914196  0.8440010463468256  0.3606055882660542  1.0000
  O   O9        1.0  0.15601802504873763  0.3596850449654596  0.6939346453947337  1.0000
  O   O10       1.0  0.7963216578276899  0.6403157363128785  0.9727253636340905  1.0000
  O   O11       1.0  0.8439995630228622  0.20368282698208898  0.6393920894944927  1.0000
  O   O12       1.0  0.3596713916468132  0.15600077935274476  0.3060613277544134  1.0000
  O   O13       1.0  0.21861252528913874  0.3143267660744657  0.32575626356157966  1.0000
  O   O14       1.0  0.6856628521345628  0.9042885909263351  0.6590893942165079  1.0000
  O   O15       1.0  0.0957141357462632  0.7813926530614809  0.9924118379134724  1.0000
  O   O16       1.0  0.31430332082036466  0.21860233874502916  0.6742443988412106  1.0000
  O   O17       1.0  0.9042985678241563  0.6856938685647764  0.3409259348684515  1.0000
  O   O18       1.0  0.7813960117304363  0.09572667950546092  0.007579577506881198  1.0000
  O   O19       1.0  0.09815025142557234  0.37852547527250385  0.3772205603769549  1.0000
  O   O20       1.0  0.6214497501713581  0.7196333100326131  0.7105552281658944  1.0000
  O   O21       1.0  0.28036769325161276  0.9018129130207485  0.043881822559093585  1.0000
  O   O22       1.0  0.3784969220733317  0.0981340489238535  0.6227805531042135  1.0000
  O   O23       1.0  0.7196446149481801  0.6214457884768978  0.2894550495014769  1.0000
  O   O24       1.0  0.9018392618709045  0.28038658477142087  0.9561127418931575  1.0000
  O   O25       1.0  0.960728473580012  0.960733339003831  0.9999988552372583  1.0000
  O   O26       1.0  0.039283436634249796  3.162233220200714e-06  0.3333352998302316  1.0000
  O   O27       1.0  0.9999864131483349  0.03929007449601604  0.6666665503088749  1.0000
  O   O28       1.0  0.06857818273357447  0.9022152911828981  0.08048594812496647  1.0000
  O   O29       1.0  0.09780301269297813  0.16637332136435393  0.4138233052529969  1.0000
  O   O30       1.0  0.833642434869546  0.9314383657171208  0.7471556220414185  1.0000
  O   O31       1.0  0.9022012737056571  0.06857838404536695  0.9195049575454347  1.0000
  O   O32       1.0  0.16634438366085652  0.09778698430808674  0.5861723371118117  1.0000
  O   O33       1.0  0.9314298085301616  0.8336396718850028  0.2528445579813408  1.0000
