data_image0
_chemical_formula_structural       Na2H24C12S2O17
_chemical_formula_sum              "Na2 H24 C12 S2 O17"
_cell_length_a       6.142274179449741
_cell_length_b       9.645572784184967
_cell_length_c       9.92773783451956
_cell_angle_alpha    78.69340304999992
_cell_angle_beta     76.17046692384434
_cell_angle_gamma    71.97050277385118

_space_group_name_H-M_alt    "P 1"
_space_group_IT_number       1

loop_
  _space_group_symop_operation_xyz
  'x, y, z'

loop_
  _atom_site_type_symbol
  _atom_site_label
  _atom_site_symmetry_multiplicity
  _atom_site_fract_x
  _atom_site_fract_y
  _atom_site_fract_z
  _atom_site_occupancy
  Na  Na1       1.0  0.612171182966577  0.8758772885394777  0.35545430147726637  1.0000
  Na  Na2       1.0  0.38434387291039956  0.12429528607846407  0.6414774408097872  1.0000
  H   H1        1.0  0.2031253351285329  0.9412869567013259  0.23570823767057197  1.0000
  H   H2        1.0  0.8138129268754426  0.5781079206959915  0.3249984098954642  1.0000
  H   H3        1.0  0.2647743567135307  0.6891445440781254  0.06466009921843612  1.0000
  H   H4        1.0  0.1879352428470399  0.7218027611536895  0.3757567203546374  1.0000
  H   H5        1.0  0.6262231128942233  0.6149856138600426  0.1567226292997646  1.0000
  H   H6        1.0  0.4228804252952615  0.42241161917390707  0.40538646987852206  1.0000
  H   H7        1.0  0.39568276000862573  0.43185602729826655  0.09829819980279812  1.0000
  H   H8        1.0  0.25636730906431643  0.33399541505026054  0.24834268439682472  1.0000
  H   H9        1.0  0.7033538221658091  0.9061510044725337  0.046270739816094475  1.0000
  H   H10       1.0  0.9077695350210604  0.743240949549829  0.986140025078406  1.0000
  H   H11       1.0  0.9961838569669227  0.908727916433044  0.963323030804354  1.0000
  H   H12       1.0  0.9485448602301503  0.05650575089902082  0.7560644015396395  1.0000
  H   H13       1.0  0.26233023077561785  0.42121525247505776  0.6808676526344188  1.0000
  H   H14       1.0  0.6362044188159216  0.29946606263062864  0.9423392222174771  1.0000
  H   H15       1.0  0.8109549673787129  0.27846038555455976  0.6272098733077345  1.0000
  H   H16       1.0  0.977646158622477  0.3854800079109779  0.8458483323117466  1.0000
  H   H17       1.0  0.7687946075048514  0.5710569367270323  0.5968660189070862  1.0000
  H   H18       1.0  0.5465605558573616  0.5604377930647358  0.909526465186126  1.0000
  H   H19       1.0  0.4061931825311337  0.6596191136214171  0.7670785349291126  1.0000
  H   H20       1.0  0.301560271443762  0.06183633264458881  0.9623449946874633  1.0000
  H   H21       1.0  0.1987009861393645  0.25164111045975796  0.9874550620680582  1.0000
  H   H22       1.0  0.447857127491254  0.13491968631122828  0.0567907694306768  1.0000
  H   H23       1.0  0.1728962002506194  0.061401670748203685  0.4244639884046253  1.0000
  H   H24       1.0  0.1709650274289274  0.9495012124013869  0.5619317173930655  1.0000
  C   C1        1.0  0.15755775610347914  0.6942497479385707  0.17150772624793834  1.0000
  C   C2        1.0  0.2928998315312298  0.7228152183146648  0.26869878449281986  1.0000
  C   C3        1.0  0.5223382501129663  0.6019181250673566  0.26379504060129483  1.0000
  C   C4        1.0  0.48334899782049945  0.4488492825094923  0.29235822277603074  1.0000
  C   C5        1.0  0.31174072966183525  0.4345052877436189  0.20958467716805987  1.0000
  C   C6        1.0  0.8865561623449029  0.8425380030945958  0.032005275637381134  1.0000
  C   C7        1.0  0.6081468263557283  0.2980874916345329  0.8363354002682829  1.0000
  C   C8        1.0  0.8415577158101971  0.2743406075299503  0.7333173634582055  1.0000
  C   C9        1.0  0.9472145532003681  0.39661602089540776  0.7383076381019935  1.0000
  C   C10       1.0  0.7777901868586317  0.5477540911627229  0.7087149305002287  1.0000
  C   C11       1.0  0.5351386993992691  0.5591452426126509  0.8003174205076039  1.0000
  C   C12       1.0  0.35419270373693484  0.15796362194042496  0.969962352201961  1.0000
  S   S1        1.0  0.7674412802680094  0.1803924072974112  0.31952874243226875  1.0000
  S   S2        1.0  0.8113168227652849  0.8195434766068529  0.6693439331888842  1.0000
  O   O1        1.0  0.10426577598786221  0.5553507315101811  0.22178478591637685  1.0000
  O   O2        1.0  0.9489764250656947  0.8040021935169008  0.1687804604514938  1.0000
  O   O3        1.0  0.34705520689657743  0.8599832650448391  0.22010859384500484  1.0000
  O   O4        1.0  0.6457155284573801  0.6177083278327158  0.36225655524687295  1.0000
  O   O5        1.0  0.7147399245482193  0.3518856932460962  0.24938201767302115  1.0000
  O   O6        1.0  0.6432203781149326  0.112289123853337  0.2552884154690319  1.0000
  O   O7        1.0  0.6872099324415616  0.18115999010581155  0.47049847789364935  1.0000
  O   O8        1.0  0.02264082215546639  0.13069127674866374  0.27737860757424226  1.0000
  O   O9        1.0  0.4515022321378197  0.43782972952236315  0.7929926961584574  1.0000
  O   O10       1.0  0.5069749848425787  0.18712623390268127  0.8386452562818507  1.0000
  O   O11       1.0  0.9984862216358791  0.1375766658365194  0.7750219279169746  1.0000
  O   O12       1.0  0.16411489050449282  0.3814170034724  0.6418014735897659  1.0000
  O   O13       1.0  0.8818318886969223  0.6495332942382602  0.7432652326930768  1.0000
  O   O14       1.0  0.5711652028534574  0.8849034919930289  0.7351564628440886  1.0000
  O   O15       1.0  0.8452540339925463  0.8137555332364456  0.5196245483407794  1.0000
  O   O16       1.0  0.9837376351907571  0.8756260783356707  0.7058206885500768  1.0000
  O   O17       1.0  0.2692657812746048  0.005548287219028198  0.4941892246510877  1.0000
