data_image0
_chemical_formula_structural       Ho2CuH16C32N4O26
_chemical_formula_sum              "Ho2 Cu1 H16 C32 N4 O26"
_cell_length_a       9.822841355056928
_cell_length_b       10.22902158804055
_cell_length_c       10.970522408414402
_cell_angle_alpha    70.25137338317533
_cell_angle_beta     84.94008824931122
_cell_angle_gamma    71.39869783670785

_space_group_name_H-M_alt    "P 1"
_space_group_IT_number       1

loop_
  _space_group_symop_operation_xyz
  'x, y, z'

loop_
  _atom_site_type_symbol
  _atom_site_label
  _atom_site_symmetry_multiplicity
  _atom_site_fract_x
  _atom_site_fract_y
  _atom_site_fract_z
  _atom_site_occupancy
  Ho  Ho1       1.0  0.4066808152269133  0.4056461673374371  0.41731197892693916  1.0000
  Ho  Ho2       1.0  0.5933180932274597  0.5943495709236898  0.5826895750892405  1.0000
  Cu  Cu1       1.0  0.5000000119528779  0.9999968587437638  0.500004640827704  1.0000
  H   H1        1.0  0.9198209825727234  0.3663938471906079  0.4812484925334814  1.0000
  H   H2        1.0  0.08017868623863231  0.6336128512592082  0.518742298203392  1.0000
  H   H3        1.0  0.8069254055222996  0.9700513762048716  0.6608277586267092  1.0000
  H   H4        1.0  0.19307497220712122  0.02995637140006121  0.33916994163546826  1.0000
  H   H5        1.0  0.2491788663450907  0.9569722481028008  0.6532292004299833  1.0000
  H   H6        1.0  0.750819791468686  0.043034424236275  0.3467662365396932  1.0000
  H   H7        1.0  0.46237692376335826  0.3731563911580054  0.9775934212500629  1.0000
  H   H8        1.0  0.5376257265325749  0.6268371302856297  0.022413994319883536  1.0000
  H   H9        1.0  0.3505582804309882  0.987831282588168  0.2037017951714402  1.0000
  H   H10       1.0  0.6494372506297452  0.012165501069318905  0.7963079059906517  1.0000
  H   H11       1.0  0.29342130534099914  0.14891822040078753  0.7887307766789958  1.0000
  H   H12       1.0  0.7065782852328939  0.8510752863006559  0.2112796213931815  1.0000
  H   H13       1.0  0.12739846187413661  0.579582063491671  0.27542130466987647  1.0000
  H   H14       1.0  0.8726034861860585  0.420410392899349  0.7245819404238034  1.0000
  H   H15       1.0  0.2275792430921086  0.6712343908898005  0.1919828531776772  1.0000
  H   H16       1.0  0.7724186432274748  0.32876134775643356  0.8080187819895599  1.0000
  C   C1        1.0  0.09573005270344478  0.16990321671841715  0.5602707498098454  1.0000
  C   C2        1.0  0.9042679274457017  0.8301056765820009  0.4397176691365342  1.0000
  C   C3        1.0  0.9499672598607775  0.24958545076237468  0.5339299659806328  1.0000
  C   C4        1.0  0.05003105132463057  0.7504223506044595  0.4660587664201684  1.0000
  C   C5        1.0  0.8459991411839526  0.17776901621240876  0.5683675164348472  1.0000
  C   C6        1.0  0.15400154753474743  0.8222376871514712  0.43162228013460435  1.0000
  C   C7        1.0  0.8861333113985309  0.0280652990394543  0.636266379764521  1.0000
  C   C8        1.0  0.11386570202262203  0.9719435673800021  0.3637265231125468  1.0000
  C   C9        1.0  0.029826733355783265  0.9535363884569107  0.6707319691108535  1.0000
  C   C10       1.0  0.9701729644815628  0.04647358540852761  0.32925780011166944  1.0000
  C   C11       1.0  0.13690688685348823  0.0205658908908219  0.6308012231229368  1.0000
  C   C12       1.0  0.863090408879465  0.9794418949636141  0.3691903294779806  1.0000
  C   C13       1.0  0.20328682664388248  0.2480160893480061  0.5057031932143657  1.0000
  C   C14       1.0  0.796710082228252  0.7519862323095907  0.49429100197715303  1.0000
  C   C15       1.0  0.6935559341232888  0.25784074130701384  0.525520813317172  1.0000
  C   C16       1.0  0.3064433478272408  0.7421604929459634  0.4744726200103031  1.0000
  C   C17       1.0  0.3828796027876821  0.268867745479298  0.8705231128484098  1.0000
  C   C18       1.0  0.6171210010112275  0.7311257820337148  0.12948355200730785  1.0000
  C   C19       1.0  0.41932212348763903  0.2850721846753217  0.9844147927818695  1.0000
  C   C20       1.0  0.5806811911082692  0.7149191476019895  0.015594162713277546  1.0000
  C   C21       1.0  0.406736461485835  0.1841588972984738  0.10485088127583  1.0000
  C   C22       1.0  0.5932685641159381  0.8158335314413706  0.895156685446409  1.0000
  C   C23       1.0  0.3534788012420976  0.0706935489007847  0.11143905412908589  1.0000
  C   C24       1.0  0.6465214759754333  0.9293010599474699  0.8885691233049041  1.0000
  C   C25       1.0  0.3059298154388586  0.0644033176720455  0.9986487965964769  1.0000
  C   C26       1.0  0.6940698041610321  0.9355934644450201  0.0013605799613642326  1.0000
  C   C27       1.0  0.3217836292342326  0.16052717079802656  0.8772419060640854  1.0000
  C   C28       1.0  0.6782166479833053  0.8394674380502282  0.1227662713699117  1.0000
  C   C29       1.0  0.41814660902964124  0.36013889250102693  0.7393054443590543  1.0000
  C   C30       1.0  0.5818546546143538  0.639852456444011  0.2607009343891632  1.0000
  C   C31       1.0  0.4507749616113586  0.18765356478226644  0.2313730027116207  1.0000
  C   C32       1.0  0.5492317727688488  0.812339965719282  0.7686322622213734  1.0000
  N   N1        1.0  0.06945669710886906  0.7961886553402878  0.7458232586782002  1.0000
  N   N2        1.0  0.930542334201064  0.2038235129906454  0.25416405760277877  1.0000
  N   N3        1.0  0.24260209142910594  0.9493776861562324  0.00961421369797927  1.0000
  N   N4        1.0  0.7573944974747492  0.05062235663426411  0.9903971238477566  1.0000
  O   O1        1.0  0.33561311937448585  0.1785752110743175  0.4927494620354621  1.0000
  O   O2        1.0  0.6643871936206055  0.8214260015968832  0.5072475422063504  1.0000
  O   O3        1.0  0.16485499116910773  0.3861145018513383  0.4684870512448001  1.0000
  O   O4        1.0  0.8351456662961497  0.6138889313960902  0.5315028538226514  1.0000
  O   O5        1.0  0.6413686026131203  0.3920857379926872  0.517295673171091  1.0000
  O   O6        1.0  0.35862590860950405  0.6079143850555727  0.48270213143151586  1.0000
  O   O7        1.0  0.6181151178636954  0.19411522587034113  0.4932968492435705  1.0000
  O   O8        1.0  0.3818889146985286  0.8058838229750619  0.5066968863885037  1.0000
  O   O9        1.0  0.9697892993143147  0.7429564327738517  0.784776847192276  1.0000
  O   O10       1.0  0.03020939650447469  0.25705683808899243  0.21520832960157313  1.0000
  O   O11       1.0  0.1987116934100754  0.7267098780498531  0.7640761048057525  1.0000
  O   O12       1.0  0.80128971097826  0.2733012028764605  0.23591044961117552  1.0000
  O   O13       1.0  0.38802237551624336  0.3322103387288564  0.6426602498672052  1.0000
  O   O14       1.0  0.6119764860233518  0.6677788222051788  0.3573479122593993  1.0000
  O   O15       1.0  0.48002201617130413  0.45274985885765073  0.7369789616670488  1.0000
  O   O16       1.0  0.5199839914020502  0.5472393205773116  0.26302498033672345  1.0000
  O   O17       1.0  0.4372526126460912  0.3071492801820881  0.24695764248210125  1.0000
  O   O18       1.0  0.5627534529792513  0.6928464500841187  0.753044256492991  1.0000
  O   O19       1.0  0.497880539309108  0.0587459570589246  0.3148254246515164  1.0000
  O   O20       1.0  0.5021221109868251  0.9412475643847104  0.6851819909184299  1.0000
  O   O21       1.0  0.24670933570666156  0.8560914426263437  0.11918032913715133  1.0000
  O   O22       1.0  0.7532855689898669  0.14391078441641275  0.880830462650799  1.0000
  O   O23       1.0  0.1878450293948078  0.9501434147844138  0.9120796423447288  1.0000
  O   O24       1.0  0.8121498663919483  0.049858833455019215  0.08792749737781949  1.0000
  O   O25       1.0  0.22631562294056817  0.5782974153569286  0.25752889281129393  1.0000
  O   O26       1.0  0.7736836165500734  0.4216972309706152  0.7424729746593143  1.0000
