data_image0
_chemical_formula_structural       Sr2H20C16S2O20
_chemical_formula_sum              "Sr2 H20 C16 S2 O20"
_cell_length_a       7.205436560006265
_cell_length_b       8.341809729796312
_cell_length_c       11.936568880204996
_cell_angle_alpha    110.46557516686755
_cell_angle_beta     90.00013256958214
_cell_angle_gamma    89.99988704119275

_space_group_name_H-M_alt    "P 1"
_space_group_IT_number       1

loop_
  _space_group_symop_operation_xyz
  'x, y, z'

loop_
  _atom_site_type_symbol
  _atom_site_label
  _atom_site_symmetry_multiplicity
  _atom_site_fract_x
  _atom_site_fract_y
  _atom_site_fract_z
  _atom_site_occupancy
  Sr  Sr1       1.0  0.7499988052341422  0.758531801505363  0.36265456407051744  1.0000
  Sr  Sr2       1.0  0.2500022783466633  0.3957192381163567  0.6374608261193657  1.0000
  H   H1        1.0  0.7499996202564319  0.744193694009525  0.05462525443747533  1.0000
  H   H2        1.0  0.24999975924080084  0.6892234448152479  0.9453401609906392  1.0000
  H   H3        1.0  0.9324533653404714  0.09628747903049371  0.31601303797116737  1.0000
  H   H4        1.0  0.0675952188489788  0.7801978947011109  0.6839167918493061  1.0000
  H   H5        1.0  0.43240448170187323  0.7801989700072767  0.6839164767930442  1.0000
  H   H6        1.0  0.567546953621914  0.09628639672104101  0.31601418899713  1.0000
  H   H7        1.0  0.0666726924195018  0.941392048721724  0.2563731231575517  1.0000
  H   H8        1.0  0.9333445105400031  0.6850529043117176  0.7435900032426304  1.0000
  H   H9        1.0  0.5666547231824736  0.6850531166769542  0.7435897984949805  1.0000
  H   H10       1.0  0.4333277837546063  0.941391829317027  0.25637416390977563  1.0000
  H   H11       1.0  0.8587339198950517  0.5958974807830302  0.5545589583697677  1.0000
  H   H12       1.0  0.1412663611122085  0.04108331555455181  0.4454670528773547  1.0000
  H   H13       1.0  0.3587341004971876  0.04108447619228882  0.44546665555038356  1.0000
  H   H14       1.0  0.6412661805076283  0.5958976067275971  0.55455883694286  1.0000
  H   H15       1.0  0.7499987281509347  0.46950744172983155  0.8770306593198711  1.0000
  H   H16       1.0  0.24999829652306724  0.5923326280066733  0.12309874685001185  1.0000
  H   H17       1.0  0.7500003662128734  0.16267747320966922  0.10054128930232052  1.0000
  H   H18       1.0  0.25000176935985513  0.0619368867666736  0.8994923810654356  1.0000
  H   H19       1.0  0.7500020738643088  0.919762183889411  0.7158544382215198  1.0000
  H   H20       1.0  0.2500032079417167  0.20373697771976404  0.2842075314061745  1.0000
  C   C1        1.0  0.7499958763767794  0.4794659913217459  0.11739165801041913  1.0000
  C   C2        1.0  0.2500000101201821  0.3615033751108499  0.8825735052656256  1.0000
  C   C3        1.0  0.7499997784034419  0.8531796315385378  0.9275694847423284  1.0000
  C   C4        1.0  0.24999782273477683  0.925317604038945  0.07241589658715959  1.0000
  C   C5        1.0  0.750003028322581  0.1945470956159099  0.7857549762139868  1.0000
  C   C6        1.0  0.2500014545548694  0.40859234342099177  0.214295187023211  1.0000
  C   C7        1.0  0.7500002768699119  0.34442671127165175  0.8871302992329292  1.0000
  C   C8        1.0  0.24999981795879483  0.4570949972269816  0.11291990482919093  1.0000
  C   C9        1.0  0.7499985972861937  0.3308866800493177  0.0008139600681217986  1.0000
  C   C10       1.0  0.25000165688382475  0.32983139440997905  0.9992268158854003  1.0000
  C   C11       1.0  0.7500001878268635  0.16966559860768637  0.011393967905419827  1.0000
  C   C12       1.0  0.2499976676442088  0.15801568007782416  0.9886766958361335  1.0000
  C   C13       1.0  0.7500020757050692  0.021119197074220605  0.9107038410609647  1.0000
  C   C14       1.0  0.249991838496598  0.110117569139625  0.08932533398506591  1.0000
  C   C15       1.0  0.7500018431226678  0.0335150941020075  0.7964162169996456  1.0000
  C   C16       1.0  0.24999885284100293  0.23686859767266807  0.2036346653411059  1.0000
  S   S1        1.0  0.750002732267383  0.2080562667576729  0.6389344769739225  1.0000
  S   S2        1.0  0.250000165700591  0.5690824228833834  0.36104305319722135  1.0000
  O   O1        1.0  0.7500027745977321  0.0302485432116129  0.5558360396572084  1.0000
  O   O2        1.0  0.2500004316823166  0.474562870704908  0.44419186715952463  1.0000
  O   O3        1.0  0.9178272784244684  0.3029907936378465  0.6312950788149507  1.0000
  O   O4        1.0  0.08216706885765752  0.6716217131141349  0.36860803202034026  1.0000
  O   O5        1.0  0.4178330593724128  0.6716240707020235  0.3686096900093716  1.0000
  O   O6        1.0  0.5821765541585293  0.30299354707258885  0.6312955259386114  1.0000
  O   O7        1.0  0.7499891564095478  0.44618604883996943  0.21234081737448923  1.0000
  O   O8        1.0  0.24999997390477094  0.2331370883881334  0.7876627781401453  1.0000
  O   O9        1.0  0.7499998682126332  0.6354181636936289  0.11991070450674367  1.0000
  O   O10       1.0  0.24999844365175514  0.5149343905984266  0.8799710711282245  1.0000
  O   O11       1.0  0.7499994555436943  0.8630805536492903  0.038854529698476  1.0000
  O   O12       1.0  0.2500010248961075  0.8238534108979465  0.9611255125597326  1.0000
  O   O13       1.0  0.7499997712568389  0.7132159501812653  0.8409958443250999  1.0000
  O   O14       1.0  0.2500049878490175  0.8719498148259464  0.1589651224321856  1.0000
  O   O15       1.0  0.9701613912051172  0.9860507591825894  0.3192201012947181  1.0000
  O   O16       1.0  0.0298585575805674  0.6667652805320117  0.6807381352768118  1.0000
  O   O17       1.0  0.4701413875757936  0.66676631212831  0.6807378623625341  1.0000
  O   O18       1.0  0.5298383138227932  0.9860510000728057  0.3192215274805222  1.0000
  O   O19       1.0  0.7499992614193473  0.5951482375186289  0.5045096035515257  1.0000
  O   O20       1.0  0.2500009647945305  0.09030207199108278  0.4955496917263957  1.0000
