data_image0
_chemical_formula_structural       Hg2H18C18S2N4O4
_chemical_formula_sum              "Hg2 H18 C18 S2 N4 O4"
_cell_length_a       8.033037318806187
_cell_length_b       9.131486837469804
_cell_length_c       9.219466530770077
_cell_angle_alpha    117.07026742273305
_cell_angle_beta     107.42151431341635
_cell_angle_gamma    96.7668766596106

_space_group_name_H-M_alt    "P 1"
_space_group_IT_number       1

loop_
  _space_group_symop_operation_xyz
  'x, y, z'

loop_
  _atom_site_type_symbol
  _atom_site_label
  _atom_site_symmetry_multiplicity
  _atom_site_fract_x
  _atom_site_fract_y
  _atom_site_fract_z
  _atom_site_occupancy
  Hg  Hg1       1.0  0.3273382756419707  0.7849046746861036  0.24815125842592076  1.0000
  Hg  Hg2       1.0  0.6726617772470149  0.2150948632360254  0.7518477982165379  1.0000
  H   H1        1.0  0.509256553054712  0.6268901773499636  0.9930955332581988  1.0000
  H   H2        1.0  0.49074167679675895  0.37311192114361796  0.0069031321886327  1.0000
  H   H3        1.0  0.7234036733128164  0.69978412130682  0.8782729487320752  1.0000
  H   H4        1.0  0.276593629865026  0.30021924937095423  0.12172497132487335  1.0000
  H   H5        1.0  0.8019402287130575  0.23804540943748262  0.23589850483615044  1.0000
  H   H6        1.0  0.1980634619070329  0.7619568200275636  0.764110235470035  1.0000
  H   H7        1.0  0.5796143071135589  0.141129717539151  0.3402819542952855  1.0000
  H   H8        1.0  0.4203876101055998  0.8588711904590342  0.6597235935552704  1.0000
  H   H9        1.0  0.9511775679003803  0.16805349634577746  0.036129155130282725  1.0000
  H   H10       1.0  0.048820813499816026  0.831948683163134  0.9638750082373447  1.0000
  H   H11       1.0  0.8418560083706055  0.9662059725423546  0.8339259160420481  1.0000
  H   H12       1.0  0.15814402519154666  0.03379746362114841  0.16607704144457358  1.0000
  H   H13       1.0  0.7217186459084955  0.4655901291048608  0.38925835458362457  1.0000
  H   H14       1.0  0.2782809078424791  0.5344080714840729  0.6107367295655663  1.0000
  H   H15       1.0  0.7311976029646274  0.5867043762456348  0.6088145439437653  1.0000
  H   H16       1.0  0.2688068214877149  0.41329256937238074  0.39118334381903  1.0000
  H   H17       1.0  0.8884454258862107  0.6728576964572852  0.5463077772866711  1.0000
  H   H18       1.0  0.1115537499657293  0.3271392316107153  0.4536877327058876  1.0000
  C   C1        1.0  0.5792334156553595  0.7611925265900723  0.04670040598432472  1.0000
  C   C2        1.0  0.42076440598733467  0.238808283179516  0.9532975857217209  1.0000
  C   C3        1.0  0.7001536645166198  0.8043036706068137  0.9825177165162843  1.0000
  C   C4        1.0  0.29984418743581637  0.19569715536584203  0.017481374773915103  1.0000
  C   C5        1.0  0.7846778145512303  0.9780236552533452  0.04921913384589534  1.0000
  C   C6        1.0  0.2153204759197322  0.0219784756463639  0.9507817307692578  1.0000
  C   C7        1.0  0.7419216309079817  0.10110374331726753  0.1811134806757337  1.0000
  C   C8        1.0  0.2580776771658507  0.8988971640074441  0.8188914280817842  1.0000
  C   C9        1.0  0.6192323584521375  0.0497127394591672  0.24014989064378506  1.0000
  C   C10       1.0  0.380768979682678  0.9502906970410765  0.7598533863893523  1.0000
  C   C11       1.0  0.9132441276566965  0.027946048734420994  0.9792971702894561  1.0000
  C   C12       1.0  0.0867550095415694  0.9720586758163492  0.020706141391436034  1.0000
  C   C13       1.0  0.8423705555358438  0.458507430341328  0.07866515234164943  1.0000
  C   C14       1.0  0.15762273451762343  0.5414752728167895  0.9213193282032108  1.0000
  C   C15       1.0  0.6149386314815929  0.683320154455963  0.4406601683793737  1.0000
  C   C16       1.0  0.3850648469702806  0.31668196158762657  0.5593408748377016  1.0000
  C   C17       1.0  0.7475208078713111  0.59562396942475  0.49864874701746936  1.0000
  C   C18       1.0  0.25247886711864  0.40437429597644586  0.5013507354683497  1.0000
  S   S1        1.0  0.06557290379969781  0.8017626963545584  0.3301827015913121  1.0000
  S   S2        1.0  0.9344251080453888  0.1982303979475901  0.6698129863471891  1.0000
  N   N1        1.0  0.5394251909585677  0.8818928928851052  0.17317669988332107  1.0000
  N   N2        1.0  0.46057533075868656  0.11810796616714471  0.8268252296682376  1.0000
  N   N3        1.0  0.9382652204916724  0.6012216769760245  0.1848146345472727  1.0000
  N   N4        1.0  0.06173848431050289  0.39878163057316135  0.815180484905639  1.0000
  O   O1        1.0  0.6377081413716612  0.8406785810432283  0.5455179064863459  1.0000
  O   O2        1.0  0.3622950804201608  0.1593223272916902  0.4544879609107326  1.0000
  O   O3        1.0  0.48428715555203183  0.5897896944701488  0.2859864225238554  1.0000
  O   O4        1.0  0.515719657533488  0.41021495108569883  0.7140133085153693  1.0000
