data_image0
_chemical_formula_structural       Na4H32C32O14
_chemical_formula_sum              "Na4 H32 C32 O14"
_cell_length_a       6.1689896820542405
_cell_length_b       7.492244202427849
_cell_length_c       17.466973445529504
_cell_angle_alpha    102.3548332502191
_cell_angle_beta     97.84473593496811
_cell_angle_gamma    89.97132058082602

_space_group_name_H-M_alt    "P 1"
_space_group_IT_number       1

loop_
  _space_group_symop_operation_xyz
  'x, y, z'

loop_
  _atom_site_type_symbol
  _atom_site_label
  _atom_site_symmetry_multiplicity
  _atom_site_fract_x
  _atom_site_fract_y
  _atom_site_fract_z
  _atom_site_occupancy
  Na  Na1       1.0  0.9624653690782521  0.3545298409396268  0.06357043781589772  1.0000
  Na  Na2       1.0  0.46253671283463393  0.7087442461336197  0.06357490387835442  1.0000
  Na  Na3       1.0  0.037537948089628494  0.645468713960213  0.9364286441190189  1.0000
  Na  Na4       1.0  0.5374668039567964  0.2912597828025767  0.936424128063635  1.0000
  H   H1        1.0  0.7436413812554148  0.9642130119461785  0.9551122565939423  1.0000
  H   H2        1.0  0.24381376860799256  0.9910996901431375  0.9552859113962952  1.0000
  H   H3        1.0  0.2563653079292791  0.035788280562734094  0.044886671232163194  1.0000
  H   H4        1.0  0.7561880131480335  0.008901593649973403  0.04471392505077889  1.0000
  H   H5        1.0  0.5600422777250101  0.32736403501807143  0.24381377993852033  1.0000
  H   H6        1.0  0.0598476250855384  0.915489715693724  0.2437375871087326  1.0000
  H   H7        1.0  0.4399611882816429  0.6726386332384992  0.7561845495492392  1.0000
  H   H8        1.0  0.940154055100926  0.0845088467401354  0.7562608444299029  1.0000
  H   H9        1.0  0.6486708829355122  0.12446237950408094  0.18307493737953  1.0000
  H   H10       1.0  0.14845692325164345  0.05784124962759311  0.1830625912636563  1.0000
  H   H11       1.0  0.3513276255607991  0.8755389130934932  0.8169241702369519  1.0000
  H   H12       1.0  0.8515446581777155  0.9421545663927304  0.8169367232143898  1.0000
  H   H13       1.0  0.217144524776522  0.5389996002278964  0.2349623514471162  1.0000
  H   H14       1.0  0.717594037444762  0.6954000215841063  0.2351338512592704  1.0000
  H   H15       1.0  0.7828603334281111  0.4609961756701039  0.7650405516713477  1.0000
  H   H16       1.0  0.2824127504970448  0.3046040173383346  0.7648641936274245  1.0000
  H   H17       1.0  0.44513681774408537  0.6145235104515407  0.3674285997207321  1.0000
  H   H18       1.0  0.945767325479835  0.7529681835797958  0.3675779703196724  1.0000
  H   H19       1.0  0.5548599613417196  0.38547498689438  0.6325758880965466  1.0000
  H   H20       1.0  0.0542344569793087  0.2470330939497387  0.6324224380893638  1.0000
  H   H21       1.0  0.3259961881003831  0.5043815347311879  0.48119058556972044  1.0000
  H   H22       1.0  0.8262016408744158  0.9771039464307947  0.4811795519447912  1.0000
  H   H23       1.0  0.6739925097572621  0.495619702853361  0.5188137710604863  1.0000
  H   H24       1.0  0.1737950846141629  0.0228932152897841  0.5188219455704086  1.0000
  H   H25       1.0  0.9897747334727569  0.30611065594198555  0.45871017952892146  1.0000
  H   H26       1.0  0.4892770608939045  0.1522943220277426  0.45848709667548354  1.0000
  H   H27       1.0  0.010215597147620801  0.6938906116899731  0.5412913957257858  1.0000
  H   H28       1.0  0.5107212486819748  0.8477014902699053  0.5415126328958948  1.0000
  H   H29       1.0  0.7679505530530831  0.22633542392438954  0.32782888237680646  1.0000
  H   H30       1.0  0.2673985514528424  0.10053915193470432  0.32763929575595085  1.0000
  H   H31       1.0  0.23204146252103894  0.7736672219074661  0.6721717578805482  1.0000
  H   H32       1.0  0.7326013944013354  0.8994566590924933  0.6723605122497389  1.0000
  C   C1        1.0  0.4927292724360298  0.31893827581148326  0.1202074920157727  1.0000
  C   C2        1.0  0.9927490307912451  0.8006557125985766  0.12014301458586371  1.0000
  C   C3        1.0  0.5072760280662505  0.6810698777381461  0.8797897219894537  1.0000
  C   C4        1.0  0.0072574072820117  0.1993387514579226  0.8798546888169838  1.0000
  C   C5        1.0  0.6384188314833634  0.2739625537488451  0.1909299177644854  1.0000
  C   C6        1.0  0.13832025744513027  0.9161623053558119  0.19088715806732642  1.0000
  C   C7        1.0  0.36158790778299715  0.7260401057032625  0.8090691405538805  1.0000
  C   C8        1.0  0.8616830590196328  0.08383625580759713  0.8091113519056279  1.0000
  C   C9        1.0  0.976078720986969  0.3824427034070582  0.2732627167992163  1.0000
  C   C10       1.0  0.4760420921774795  0.8900875170180883  0.2732454311406727  1.0000
  C   C11       1.0  0.023922961308834093  0.6175558402360863  0.7267374306253132  1.0000
  C   C12       1.0  0.5239612249904012  0.10991103788175142  0.7267536507942437  1.0000
  C   C13       1.0  0.1700531098062186  0.48826018876381017  0.2845007520628187  1.0000
  C   C14       1.0  0.6702700730926238  0.7957107877410652  0.2845840768327221  1.0000
  C   C15       1.0  0.8299451560160023  0.5117342002184984  0.7155039946739734  1.0000
  C   C16       1.0  0.3297333449417009  0.20429049478159567  0.7154158380486777  1.0000
  C   C17       1.0  0.2961271819464598  0.5303736126584725  0.3589531799126178  1.0000
  C   C18       1.0  0.7964398776926415  0.8283836452906145  0.3590415906191069  1.0000
  C   C19       1.0  0.7038646826795513  0.46962493860736737  0.6410464969060001  1.0000
  C   C20       1.0  0.20356190265715665  0.171617651029635  0.6409571019040499  1.0000
  C   C21       1.0  0.23059758339975633  0.4678898409815345  0.4224911145006017  1.0000
  C   C22       1.0  0.7307122419608872  0.954538329410923  0.42247989604769737  1.0000
  C   C23       1.0  0.7693925518157414  0.5321059150326378  0.57751394251882  1.0000
  C   C24       1.0  0.26928785413828377  0.0454615824458671  0.577520303434774  1.0000
  C   C25       1.0  0.0411065713189274  0.3583870055399458  0.410151770852913  1.0000
  C   C26       1.0  0.5408548924155594  0.0513940985542973  0.4100348933993132  1.0000
  C   C27       1.0  0.9588802829026334  0.6416088281779792  0.5898462657543033  1.0000
  C   C28       1.0  0.45914366545930807  0.9486085672500482  0.5899637727474669  1.0000
  C   C29       1.0  0.9135783811114137  0.31369778851846064  0.3358028994994342  1.0000
  C   C30       1.0  0.413296370393894  0.021373655322158003  0.3356899783437584  1.0000
  C   C31       1.0  0.08641670880197687  0.6862993682089924  0.6641990915434164  1.0000
  C   C32       1.0  0.5867054106590144  0.9786276347345223  0.6643092861413535  1.0000
  O   O1        1.0  0.8542882771633201  0.35465528710030014  0.1994262833417935  1.0000
  O   O2        1.0  0.35422944986618177  0.8438855065365088  0.19943144558505568  1.0000
  O   O3        1.0  0.1457166797984186  0.6453432352112359  0.8005757368372599  1.0000
  O   O4        1.0  0.6457704952848785  0.156110310754265  0.8005677904586719  1.0000
  O   O5        1.0  0.5690076433291225  0.41757661503213234  0.07899693989486421  1.0000
  O   O6        1.0  0.06916182083394769  0.660863092525304  0.0789826821815964  1.0000
  O   O7        1.0  0.43100093324532207  0.5824315046587358  0.9210032907888106  1.0000
  O   O8        1.0  0.9308415464155999  0.3391368293177308  0.9210165302455806  1.0000
  O   O9        1.0  0.2994522070806838  0.25094445485458994  0.1094152763666187  1.0000
  O   O10       1.0  0.7994185032018564  0.8579421053855683  0.10930798388596233  1.0000
  O   O11       1.0  0.7005481352081444  0.749062329299612  0.8905821438053607  1.0000
  O   O12       1.0  0.20058486334458075  0.14205782272103565  0.8906906565792454  1.0000
  O   O13       1.0  0.7499308771980535  0.07137243555766298  0.9999176133942312  1.0000
  O   O14       1.0  0.25007090526108294  0.9286288419718716  8.279501481212731e-05  1.0000
