data_image0
_chemical_formula_structural       Mn2H8C8N16
_chemical_formula_sum              "Mn2 H8 C8 N16"
_cell_length_a       7.527796373995538
_cell_length_b       8.308669108015913
_cell_length_c       8.308689291037044
_cell_angle_alpha    95.28657875861953
_cell_angle_beta     115.89468130329493
_cell_angle_gamma    115.89446869621011

_space_group_name_H-M_alt    "P 1"
_space_group_IT_number       1

loop_
  _space_group_symop_operation_xyz
  'x, y, z'

loop_
  _atom_site_type_symbol
  _atom_site_label
  _atom_site_symmetry_multiplicity
  _atom_site_fract_x
  _atom_site_fract_y
  _atom_site_fract_z
  _atom_site_occupancy
  Mn  Mn1       1.0  0.9999973592719511  0.9999963545585899  0.499999604272034  1.0000
  Mn  Mn2       1.0  0.9999930318011324  0.5000000608706473  0.9999945334836087  1.0000
  H   H1        1.0  0.053137018107136585  0.24981462496039336  0.24982342619941275  1.0000
  H   H2        1.0  0.9468644128551913  0.7501855665615621  0.7501757777278257  1.0000
  H   H3        1.0  0.5741167945422276  0.0653906401190483  0.4168764713858337  1.0000
  H   H4        1.0  0.5741396775991062  0.416897165714154  0.0654030460871269  1.0000
  H   H5        1.0  0.4258831622794616  0.9346095585599556  0.5831245561665527  1.0000
  H   H6        1.0  0.4258635930765988  0.583105890643921  0.9345983379339486  1.0000
  H   H7        1.0  0.3923379495768343  0.2346812081574043  0.23467695566663593  1.0000
  H   H8        1.0  0.6076658874403762  0.7653204313321141  0.7653245303818395  1.0000
  C   C1        1.0  0.9058423334804147  0.2472509878440547  0.24724981848956407  1.0000
  C   C2        1.0  0.09416002457313484  0.7527506497198927  0.7527522849042682  1.0000
  C   C3        1.0  0.6388265281874226  0.14417489367725983  0.337450690681635  1.0000
  C   C4        1.0  0.6388312098567679  0.33746089955774755  0.1441761630732187  1.0000
  C   C5        1.0  0.36117490277489833  0.855825297844689  0.6625485132456035  1.0000
  C   C6        1.0  0.3611717048922357  0.6625393029724054  0.8558236297884463  1.0000
  C   C7        1.0  0.539968971608978  0.23794258370667618  0.23792981324703533  1.0000
  C   C8        1.0  0.4600324641763646  0.7620576168978985  0.7620705969599868  1.0000
  N   N1        1.0  0.8220237024618982  0.14825046342333795  0.34187266636880764  1.0000
  N   N2        1.0  0.8220367292333605  0.34187762569204955  0.14825780590532386  1.0000
  N   N3        1.0  0.17797773814646664  0.851749746263863  0.6581289501180053  1.0000
  N   N4        1.0  0.1779647065519823  0.6581225749125252  0.8517426043017053  1.0000
  N   N5        1.0  0.8990789464423726  0.0271986303022587  0.7000141623528363  1.0000
  N   N6        1.0  0.8991037652468491  0.7000268926295377  0.02720097805769226  1.0000
  N   N7        1.0  0.10092009293413873  0.9728001404999914  0.29998637829252317  1.0000
  N   N8        1.0  0.10089562041031991  0.2999747138353968  0.9727987411875104  1.0000
  N   N9        1.0  0.9999824485218838  0.16403878167585625  0.8359402166904317  1.0000
  N   N10       1.0  1.9352836211540902e-05  0.8359642909218792  0.16406419723557517  1.0000
  N   N11       1.0  0.6829559565383505  0.7258521894497323  0.33429219561275403  1.0000
  N   N12       1.0  0.6829509215241599  0.33430903203942103  0.7258597445324924  1.0000
  N   N13       1.0  0.31704216056995443  0.2741451443931524  0.6657066518457952  1.0000
  N   N14       1.0  0.31704719076112287  0.6656882927208373  0.2741378966462733  1.0000
  N   N15       1.0  0.5000027510730619  0.6954312598093965  0.30455572964509503  1.0000
  N   N16       1.0  0.49999239846188437  0.30456605201709397  0.6954419399446081  1.0000
