data_image0
_chemical_formula_structural       Zn4H44C56N4O16
_chemical_formula_sum              "Zn4 H44 C56 N4 O16"
_cell_length_a       7.463619637735412
_cell_length_b       10.84210998880346
_cell_length_c       17.650170616089987
_cell_angle_alpha    86.56834823548165
_cell_angle_beta     79.87294824739962
_cell_angle_gamma    69.9066726959814

_space_group_name_H-M_alt    "P 1"
_space_group_IT_number       1

loop_
  _space_group_symop_operation_xyz
  'x, y, z'

loop_
  _atom_site_type_symbol
  _atom_site_label
  _atom_site_symmetry_multiplicity
  _atom_site_fract_x
  _atom_site_fract_y
  _atom_site_fract_z
  _atom_site_occupancy
  Zn  Zn1       1.0  0.1705262574608143  0.9492378306296275  0.1674288150198322  1.0000
  Zn  Zn2       1.0  0.11835785986627906  0.05120276771886272  0.6676271380233132  1.0000
  Zn  Zn3       1.0  0.5276303727793844  0.03696172094898031  0.22635064361521984  1.0000
  Zn  Zn4       1.0  0.5634338818343563  0.9631959680110783  0.7261920535050237  1.0000
  H   H1        1.0  0.1387023999965108  0.5790157118708806  0.2430972914543688  1.0000
  H   H2        1.0  0.7164929327617738  0.42173960055536974  0.74325348014834  1.0000
  H   H3        1.0  0.054939778039305005  0.3772254725132741  0.2793959130992292  1.0000
  H   H4        1.0  0.4310583462144207  0.623554679641096  0.7794066350311369  1.0000
  H   H5        1.0  0.7407534148438372  0.3652030442138213  0.25308802322567203  1.0000
  H   H6        1.0  0.10513676763360974  0.6350640145305635  0.7529395970999746  1.0000
  H   H7        1.0  0.5175596980365852  0.5550725170996388  0.19374307556218182  1.0000
  H   H8        1.0  0.07214146914689212  0.4449723635202362  0.6935774766440872  1.0000
  H   H9        1.0  0.14310751335966634  0.2426306434056472  0.4160849078834232  1.0000
  H   H10       1.0  0.38429443956068327  0.7572619043495765  0.9155763209669561  1.0000
  H   H11       1.0  0.9138601794919763  0.3419252342106773  0.5352663635226591  1.0000
  H   H12       1.0  0.2548648448565769  0.6577557450536349  0.03468083401957501  1.0000
  H   H13       1.0  0.572067552568555  0.3427969549899715  0.552002159309808  1.0000
  H   H14       1.0  0.9140356776109825  0.6566922494378036  0.0516166854417506  1.0000
  H   H15       1.0  0.46840099053553524  0.24181829184835385  0.45480661165733244  1.0000
  H   H16       1.0  0.7091638334485352  0.7575183003828275  0.9546043448886152  1.0000
  H   H17       1.0  0.8707428645833206  0.19862078511803818  0.1421714515577008  1.0000
  H   H18       1.0  0.06847394976445963  0.801635996536391  0.642466351968274  1.0000
  H   H19       1.0  0.7619287841539516  0.33782236053203724  0.030104847586933707  1.0000
  H   H20       1.0  0.09800044936210374  0.6623307159717843  0.5304456570679292  1.0000
  H   H21       1.0  0.2434022308589761  0.06434157764019231  0.8839559610688142  1.0000
  H   H22       1.0  0.3060464624945707  0.9355862332668966  0.38412090942355104  1.0000
  H   H23       1.0  0.3350304720510022  0.938372376705246  0.002182892977074917  1.0000
  H   H24       1.0  0.27260689784954906  0.06162650555992141  0.5023447509682128  1.0000
  H   H25       1.0  0.8298930173939353  0.38619339271345865  0.8895805696268226  1.0000
  H   H26       1.0  0.2134056253628315  0.613861397333352  0.38994146841259447  1.0000
  H   H27       1.0  0.04467903523745055  0.28351134780796633  0.8311244546384913  1.0000
  H   H28       1.0  0.325870687544345  0.7162877146989504  0.33139506237860433  1.0000
  H   H29       1.0  0.8386731349678697  0.2355815699509877  0.8514970376651049  1.0000
  H   H30       1.0  0.07196729568455831  0.7644164434181634  0.3518371105864873  1.0000
  H   H31       1.0  0.2991068612853737  0.3012815622567615  0.1856017286856186  1.0000
  H   H32       1.0  0.5989410083564762  0.6989835194461095  0.6854385808628294  1.0000
  H   H33       1.0  0.21280238631375434  0.4354855880333943  0.0691308664534489  1.0000
  H   H34       1.0  0.6467770997110447  0.5645127279073707  0.5690016883392985  1.0000
  H   H35       1.0  0.6063342544860573  0.10404348448105342  0.9315011580577419  1.0000
  H   H36       1.0  0.7097614083757333  0.8956206920207994  0.43131353295451197  1.0000
  H   H37       1.0  0.6747165732616337  0.9846196599691984  0.054161546505525765  1.0000
  H   H38       1.0  0.6587312292973665  0.015300275770521002  0.5539611323528818  1.0000
  H   H39       1.0  0.2083119906298235  0.4280797786507336  0.9265949162736291  1.0000
  H   H40       1.0  0.6358053441447636  0.5712724167881902  0.4264075046937634  1.0000
  H   H41       1.0  0.45253695273969197  0.41573180645939806  0.9006573722249628  1.0000
  H   H42       1.0  0.8675575680498966  0.5839221037522294  0.4006390694680704  1.0000
  H   H43       1.0  0.37647081607324384  0.29272712199746564  0.8696436171100571  1.0000
  H   H44       1.0  0.6687055062263453  0.7065410836551608  0.3694358543429743  1.0000
  C   C1        1.0  0.5430814634805896  0.7845547403309469  0.1557732676619352  1.0000
  C   C2        1.0  0.32700057827899803  0.21545460623807602  0.655855914680096  1.0000
  C   C3        1.0  0.9279148359409816  0.80221883540019  0.1839135270102972  1.0000
  C   C4        1.0  0.7291515845932751  0.19823432890838433  0.6841112573477659  1.0000
  C   C5        1.0  0.6949566944398881  0.676359263225038  0.18942600983483973  1.0000
  C   C6        1.0  0.37062665949495244  0.3238184319854725  0.6894619533543819  1.0000
  C   C7        1.0  0.8714279788834173  0.6830925563028318  0.20330595254164763  1.0000
  C   C8        1.0  0.5535966736424028  0.31730315192717745  0.7034574841601682  1.0000
  C   C9        1.0  0.0013597542911227053  0.5728934261449724  0.23399644180642554  1.0000
  C   C10       1.0  0.5731269681259545  0.4276815042297032  0.7341442189396263  1.0000
  C   C11       1.0  0.9551140974303035  0.4599462675624722  0.2531835360295389  1.0000
  C   C12       1.0  0.41401517783805986  0.5406664588654027  0.7532267355248621  1.0000
  C   C13       1.0  0.780161157650191  0.4530826245822865  0.23914548201501162  1.0000
  C   C14       1.0  0.23243323965238008  0.5473037821922873  0.7390615547577967  1.0000
  C   C15       1.0  0.6527851374356074  0.5602299152439657  0.2063633125459248  1.0000
  C   C16       1.0  0.21241226549356165  0.4399718591506245  0.7062469165541216  1.0000
  C   C17       1.0  0.6672524544128464  0.13600853194491697  0.3186598946260801  1.0000
  C   C18       1.0  0.8021823637874376  0.8634938128560706  0.8183788506510156  1.0000
  C   C19       1.0  0.08203088923752229  0.1214336747198104  0.3012396171772735  1.0000
  C   C20       1.0  0.20187422909945937  0.8787141123749862  0.8010678731857939  1.0000
  C   C21       1.0  0.7453725821959692  0.18503272293740744  0.3793868320646041  1.0000
  C   C22       1.0  0.9289443891901922  0.8147090545681338  0.8791936017840528  1.0000
  C   C23       1.0  0.9367093293664864  0.1859109345905736  0.36955414026893874  1.0000
  C   C24       1.0  0.12107824570543343  0.8140439402665013  0.8692786494176872  1.0000
  C   C25       1.0  0.9940085741319963  0.2442590562362669  0.4254379353967863  1.0000
  C   C26       1.0  0.23682165541327987  0.7556274190728304  0.9250156354456325  1.0000
  C   C27       1.0  0.8652504216409084  0.300453492344353  0.4913021917191997  1.0000
  C   C28       1.0  0.16459897004667562  0.699197867827934  0.990822546465445  1.0000
  C   C29       1.0  0.6758127705185333  0.29942247566715713  0.5010417320639888  1.0000
  C   C30       1.0  0.974250745839107  0.7000897658901766  0.0006638252166837107  1.0000
  C   C31       1.0  0.6165881292970711  0.2420427281335336  0.44577933416410076  1.0000
  C   C32       1.0  0.8574925084812574  0.757428415918831  0.9455073642578711  1.0000
  C   C33       1.0  0.9497388653969738  0.17367100220938889  0.08384223371505331  1.0000
  C   C34       1.0  0.12223197102090907  0.8265555053363158  0.5841056208845219  1.0000
  C   C35       1.0  0.8898443114205249  0.24960938584326442  0.020875172931944505  1.0000
  C   C36       1.0  0.1377289988251531  0.7505619358142328  0.5211687131772892  1.0000
  C   C37       1.0  0.9901542711329652  0.21114495959710677  0.9463166731330616  1.0000
  C   C38       1.0  0.199270568949572  0.7889967911266215  0.4465833362028421  1.0000
  C   C39       1.0  0.15455561159043898  0.09783464267790273  0.9396879926401456  1.0000
  C   C40       1.0  0.2507915022802436  0.9021979293918463  0.43989195743387205  1.0000
  C   C41       1.0  0.20795184429019997  0.026814528421866206  0.004966935948758094  1.0000
  C   C42       1.0  0.2336507917951278  0.973259743904443  0.5051421248692876  1.0000
  C   C43       1.0  0.9226310339305783  0.2842865294684104  0.8762393098327479  1.0000
  C   C44       1.0  0.2045563544748601  0.7157082121912455  0.3765409395732391  1.0000
  C   C45       1.0  0.36344178088424417  0.26233762923343573  0.1279975430985587  1.0000
  C   C46       1.0  0.6245077962515848  0.737797873963608  0.6278383929209639  1.0000
  C   C47       1.0  0.3179658051745874  0.33629316285802696  0.0627390216148171  1.0000
  C   C48       1.0  0.6529096316801882  0.663712666114428  0.5626064768043904  1.0000
  C   C49       1.0  0.40404468022697404  0.2817115471648395  0.989611815365713  1.0000
  C   C50       1.0  0.6845817349086546  0.7180785142616629  0.48944558980279146  1.0000
  C   C51       1.0  0.5367969532562638  0.15326753189689413  0.9865994105194956  1.0000
  C   C52       1.0  0.689134238161152  0.8465083401336106  0.4864017009719817  1.0000
  C   C53       1.0  0.5738001845880092  0.0849047378314793  0.05445810335598368  1.0000
  C   C54       1.0  0.657954930607694  0.9149977206823722  0.554275754982406  1.0000
  C   C55       1.0  0.3565365215704118  0.35781569260980467  0.917967863768638  1.0000
  C   C56       1.0  0.7136079179067989  0.6416832635878437  0.41782731617409047  1.0000
  N   N1        1.0  0.10647333701130175  0.0628488870612287  0.0759180539231608  1.0000
  N   N2        1.0  0.16837182737831538  0.9373372227141278  0.576125923391487  1.0000
  N   N3        1.0  0.48722698039165374  0.13772553713634753  0.12427398492726381  1.0000
  N   N4        1.0  0.623954288250566  0.8623805431184125  0.6240880948460302  1.0000
  O   O1        1.0  0.4319336294631384  0.8810677098329266  0.20310708563955868  1.0000
  O   O2        1.0  0.31212240376038375  0.11910252733309086  0.7032268992975261  1.0000
  O   O3        1.0  0.5104396243759123  0.7742105634649551  0.09036794093344723  1.0000
  O   O4        1.0  0.28433183310531956  0.2255637991027016  0.5904113016131589  1.0000
  O   O5        1.0  0.8057711950248387  0.9101869348729469  0.1676156378209015  1.0000
  O   O6        1.0  0.7150299849213225  0.0901910690684318  0.6677240606708069  1.0000
  O   O7        1.0  0.10689571098292534  0.7865005841243407  0.1834629197963977  1.0000
  O   O8        1.0  0.8923745112264213  0.2140480129510109  0.6837243743998584  1.0000
  O   O9        1.0  0.6167753113056376  0.2113732767168771  0.2629815902233261  1.0000
  O   O10       1.0  0.8276054815586134  0.7881387184936064  0.7625893967277405  1.0000
  O   O11       1.0  0.6405935143304475  0.024500518245091002  0.3275184639913392  1.0000
  O   O12       1.0  0.6638067407943633  0.9748580881705282  0.8273311079557075  1.0000
  O   O13       1.0  0.2474070666195302  0.13429324134332896  0.2910769501210738  1.0000
  O   O14       1.0  0.38027161984113894  0.8654278793857915  0.7906516816855245  1.0000
  O   O15       1.0  0.02511969013611549  0.056254427082471616  0.2584508145460661  1.0000
  O   O16       1.0  0.07953122460364842  0.9444026661635126  0.7585848133946556  1.0000
