data_image0
_chemical_formula_structural       Cd2H44C44N8O12
_chemical_formula_sum              "Cd2 H44 C44 N8 O12"
_cell_length_a       9.152616741842303
_cell_length_b       9.152501361750863
_cell_length_c       14.773505815955186
_cell_angle_alpha    106.1708618536339
_cell_angle_beta     106.16967866358883
_cell_angle_gamma    93.45625208899085

_space_group_name_H-M_alt    "P 1"
_space_group_IT_number       1

loop_
  _space_group_symop_operation_xyz
  'x, y, z'

loop_
  _atom_site_type_symbol
  _atom_site_label
  _atom_site_symmetry_multiplicity
  _atom_site_fract_x
  _atom_site_fract_y
  _atom_site_fract_z
  _atom_site_occupancy
  Cd  Cd1       1.0  0.3349550100616341  0.6650465397057985  0.750002074243902  1.0000
  Cd  Cd2       1.0  0.6650453977184296  0.33495439680696387  0.2499944246497563  1.0000
  H   H1        1.0  0.7549970589295255  0.9931939102752025  0.6962831589436077  1.0000
  H   H2        1.0  0.006842803188312996  0.2449925602412648  0.803733591377039  1.0000
  H   H3        1.0  0.2450175078990213  0.0068342994979601985  0.3037290638515344  1.0000
  H   H4        1.0  0.9931912733546043  0.75499188525459  0.19627282904365012  1.0000
  H   H5        1.0  0.6557385999648558  0.7406682812424705  0.8189338047881094  1.0000
  H   H6        1.0  0.25930472406118094  0.3442751256911337  0.6810742363572544  1.0000
  H   H7        1.0  0.34427340523517797  0.25931382712960976  0.18107152530723167  1.0000
  H   H8        1.0  0.7406747704054625  0.6557314523697928  0.31892487921390256  1.0000
  H   H9        1.0  0.2740148958299429  0.8293771391051408  0.4941142966336756  1.0000
  H   H10       1.0  0.1706435176354617  0.7260002295023256  0.0058890235644000095  1.0000
  H   H11       1.0  0.7260048787844227  0.17063968742492366  0.5058927307243407  1.0000
  H   H12       1.0  0.829373740650979  0.2739994650482913  0.9941110148012908  1.0000
  H   H13       1.0  0.7363572269087939  0.4698433001320268  0.7985904743678346  1.0000
  H   H14       1.0  0.5301193642260956  0.263609141474781  0.7013970944874259  1.0000
  H   H15       1.0  0.26362398416797816  0.5301378523031132  0.20140700187670282  1.0000
  H   H16       1.0  0.469858060542954  0.7363696995322825  0.2985999406824645  1.0000
  H   H17       1.0  0.6361471051227241  0.5277914730655268  0.6959357964694276  1.0000
  H   H18       1.0  0.4721821562709962  0.36383721377551137  0.804051775168311  1.0000
  H   H19       1.0  0.36384902960484317  0.4721897672860038  0.3040603697147972  1.0000
  H   H20       1.0  0.5277938040018881  0.6361603174655456  0.19594097031365718  1.0000
  H   H21       1.0  0.7612720119523927  0.6142323965245566  0.9520079828856537  1.0000
  H   H22       1.0  0.38573485527147966  0.23871164272463824  0.5479875832227634  1.0000
  H   H23       1.0  0.2387220273340063  0.38575894145849077  0.047997099479346175  1.0000
  H   H24       1.0  0.6142459875171867  0.7612811675320542  0.4520079004655456  1.0000
  H   H25       1.0  0.5650051246605158  0.5615879716619147  0.9394874610702287  1.0000
  H   H26       1.0  0.4383801289428959  0.434989143803044  0.5605028027621372  1.0000
  H   H27       1.0  0.4350001251250291  0.43840121594248416  0.06051386553088625  1.0000
  H   H28       1.0  0.5616103544427774  0.5650061260833114  0.4394894826862484  1.0000
  H   H29       1.0  0.8702719436906605  0.902785849195304  0.007140535236643988  1.0000
  H   H30       1.0  0.0971814802212947  0.1297242633684448  0.4928597757790313  1.0000
  H   H31       1.0  0.12973246969471566  0.09719259155701108  0.9928695015827883  1.0000
  H   H32       1.0  0.9027906284523369  0.8702848660264307  0.5071323588838864  1.0000
  H   H33       1.0  0.4318771012195768  0.7394593307661168  0.027153377201876966  1.0000
  H   H34       1.0  0.26053560482322524  0.5681383506973249  0.4728548758459964  1.0000
  H   H35       1.0  0.5681179664755832  0.2605509078731885  0.9728418168496018  1.0000
  H   H36       1.0  0.7394623770594819  0.4318783660916238  0.5271535522081408  1.0000
  H   H37       1.0  0.45397288720149476  0.9910679063076769  0.1571237320521135  1.0000
  H   H38       1.0  0.008930797230483702  0.5460180636878249  0.34286494291382746  1.0000
  H   H39       1.0  0.5459966834372381  0.00893706983094939  0.8428549867910604  1.0000
  H   H40       1.0  0.9910715452696977  0.4539955256613625  0.6571342311388617  1.0000
  H   H41       1.0  0.8718540567260504  0.1493367293904768  0.13432157736411196  1.0000
  H   H42       1.0  0.8506583503659967  0.128148455600126  0.3656737374355572  1.0000
  H   H43       1.0  0.12814721127304554  0.8506709136479601  0.8656817263843095  1.0000
  H   H44       1.0  0.14932893311004847  0.8718709234988183  0.6343244139800532  1.0000
  C   C1        1.0  0.522440735812964  0.8428035482335972  0.647770426634267  1.0000
  C   C2        1.0  0.15720912690733974  0.4775463156954771  0.8522310229276825  1.0000
  C   C3        1.0  0.47757547139539724  0.15720712156343813  0.352246329045073  1.0000
  C   C4        1.0  0.8428048757965669  0.5224465594179294  0.14776513637028904  1.0000
  C   C5        1.0  0.5102405092414273  0.9278696615322771  0.573640365172423  1.0000
  C   C6        1.0  0.07212966892926431  0.48976194571744713  0.9263592420000251  1.0000
  C   C7        1.0  0.48977352207163705  0.0721411147523696  0.4263733024072066  1.0000
  C   C8        1.0  0.9278795674330028  0.5102307279505708  0.07364210066237578  1.0000
  C   C9        1.0  0.6400613341917561  0.025793214625622306  0.5778630470358548  1.0000
  C   C10       1.0  0.9742451189714955  0.35993508485614706  0.9221523194998369  1.0000
  C   C11       1.0  0.3599480501986818  0.9742295055888521  0.42214044715920807  1.0000
  C   C12       1.0  0.025775316951119016  0.6400494145009861  0.07785160935391389  1.0000
  C   C13       1.0  0.3727322660012575  0.9046674421480675  0.4964939522782005  1.0000
  C   C14       1.0  0.09534267188001883  0.6272761749150675  0.0035054139072201096  1.0000
  C   C15       1.0  0.6272823770576111  0.09535288197544388  0.5035120983061177  1.0000
  C   C16       1.0  0.9046682776222639  0.3727199937934457  0.9964955295553108  1.0000
  C   C17       1.0  0.626721262722036  0.50454971660524  0.7633422148562232  1.0000
  C   C18       1.0  0.4954440409628306  0.37327834208099386  0.7366565218363447  1.0000
  C   C19       1.0  0.3732783948646343  0.4954555085175017  0.23666373591726142  1.0000
  C   C20       1.0  0.504556193045488  0.6267303825706846  0.2633488221066854  1.0000
  C   C21       1.0  0.6460184544181758  0.6484231740489862  0.9325854657958174  1.0000
  C   C22       1.0  0.35155847396194423  0.3539750803888496  0.567415302913453  1.0000
  C   C23       1.0  0.3539819211119948  0.35156375537114565  0.06741387568079918  1.0000
  C   C24       1.0  0.6484336597799824  0.6460255706330997  0.4325884292914565  1.0000
  C   C25       1.0  0.6492674016103948  0.8008397091728837  0.006182223203488508  1.0000
  C   C26       1.0  0.19914764573447033  0.3507372123581334  0.4938144197848969  1.0000
  C   C27       1.0  0.3507287928266792  0.19914760386625116  0.993806264606242  1.0000
  C   C28       1.0  0.8008424797354011  0.6492716745779176  0.5061857144347355  1.0000
  C   C29       1.0  0.7739002645796659  0.9185490962594327  0.03693471861074463  1.0000
  C   C30       1.0  0.0814281582610548  0.22608908276711048  0.4630565605170318  1.0000
  C   C31       1.0  0.2260837180132569  0.08143449398064462  0.9630596500296775  1.0000
  C   C32       1.0  0.9185597212317091  0.7739118787408046  0.5369383226499025  1.0000
  C   C33       1.0  0.5324017266938554  0.8270680875714332  0.05021022626776525  1.0000
  C   C34       1.0  0.1729176975642019  0.4675953348945683  0.4497800454347001  1.0000
  C   C35       1.0  0.4675881994693681  0.1729227275495973  0.949777077137682  1.0000
  C   C36       1.0  0.8270811677733434  0.532402277221479  0.550212175191362  1.0000
  C   C37       1.0  0.5434951774028465  0.9670749537654831  0.12156584349968116  1.0000
  C   C38       1.0  0.03290503002967431  0.45650559898202664  0.3784307875279609  1.0000
  C   C39       1.0  0.45648747088110037  0.0329204694283689  0.8784216474864619  1.0000
  C   C40       1.0  0.967086913419692  0.5435167985161157  0.6215802835626434  1.0000
  C   C41       1.0  0.7765769099292541  0.0552746514275029  0.10865321941222562  1.0000
  C   C42       1.0  0.9447103433430469  0.2234305566146233  0.39134725499363293  1.0000
  C   C43       1.0  0.22342277819127077  0.9447146805075094  0.8913437279878095  1.0000
  C   C44       1.0  0.055274271344430304  0.7765874618041907  0.6086562518512935  1.0000
  N   N1        1.0  0.663553498998745  0.0799408746458212  0.1505227821147059  1.0000
  N   N2        1.0  0.9200455036137143  0.3364361935199014  0.3494679294587327  1.0000
  N   N3        1.0  0.3364348950942642  0.9200485753066374  0.8494700843506351  1.0000
  N   N4        1.0  0.07995590551136192  0.6635706161705599  0.6505264443681114  1.0000
  N   N5        1.0  0.5996887702067042  0.6479095934537752  0.8284660291202215  1.0000
  N   N6        1.0  0.3520744625390649  0.4003093028092338  0.6715396293272277  1.0000
  N   N7        1.0  0.4003207530271951  0.3520783284282771  0.17153855764548348  1.0000
  N   N8        1.0  0.6479168618664417  0.5996936288391838  0.3284650498492923  1.0000
  O   O1        1.0  0.4081590188247759  0.7413603991383155  0.6311863023935799  1.0000
  O   O2        1.0  0.2586275898213444  0.5918391648590956  0.8688039231792927  1.0000
  O   O3        1.0  0.5918543095201869  0.25864984081900394  0.3688102091182373  1.0000
  O   O4        1.0  0.7413768350693104  0.4081493645295495  0.13118358840220876  1.0000
  O   O5        1.0  0.6451282153715923  0.8750639335666152  0.7218124205390026  1.0000
  O   O6        1.0  0.12494408631608421  0.35486140635266145  0.7781800666083283  1.0000
  O   O7        1.0  0.35489353275715985  0.1249426734435133  0.2781890316864377  1.0000
  O   O8        1.0  0.8750678676054662  0.6451326767508475  0.22181458420548236  1.0000
  O   O9        1.0  0.7754318795276092  0.0512654254800964  0.6505455679710721  1.0000
  O   O10       1.0  0.9487828679630398  0.22454425473011952  0.8494754788238268  1.0000
  O   O11       1.0  0.22457187733980524  0.9487672839427999  0.3494695605612107  1.0000
  O   O12       1.0  0.051256851661364074  0.775433140399542  0.1505340692508667  1.0000
