data_image0
_chemical_formula_structural       H28Pb2C36I4N8
_chemical_formula_sum              "H28 Pb2 C36 I4 N8"
_cell_length_a       4.415890772029428
_cell_length_b       14.057526724690955
_cell_length_c       16.618712741143433
_cell_angle_alpha    105.69542847133913
_cell_angle_beta     90.0405074073266
_cell_angle_gamma    90.00002053189192

_space_group_name_H-M_alt    "P 1"
_space_group_IT_number       1

loop_
  _space_group_symop_operation_xyz
  'x, y, z'

loop_
  _atom_site_type_symbol
  _atom_site_label
  _atom_site_symmetry_multiplicity
  _atom_site_fract_x
  _atom_site_fract_y
  _atom_site_fract_z
  _atom_site_occupancy
  H   H1        1.0  0.21091298630882696  0.5299303198495621  0.8043271036953643  1.0000
  H   H2        1.0  0.2106770745851634  0.9700631827943198  0.6955690612121689  1.0000
  H   H3        1.0  0.7890893858177677  0.4700612936319215  0.19567267871654087  1.0000
  H   H4        1.0  0.7892550987915142  0.029932125303489  0.30443155951994083  1.0000
  H   H5        1.0  0.12926568086724902  0.3484639966495279  0.7396539625255161  1.0000
  H   H6        1.0  0.12898751138114758  0.15150334673634086  0.760251881062793  1.0000
  H   H7        1.0  0.8707094826844042  0.6515320103614356  0.260332976971263  1.0000
  H   H8        1.0  0.8709808963218251  0.8485023008926615  0.2397492807127222  1.0000
  H   H9        1.0  0.6746355181950675  0.3767328114811048  0.5313616298477939  1.0000
  H   H10       1.0  0.6747818669146567  0.12331020229405708  0.9687053955441276  1.0000
  H   H11       1.0  0.3253170098464011  0.6232742827074699  0.46862902896873504  1.0000
  H   H12       1.0  0.3251842669281686  0.8766880510006912  0.03129228312952389  1.0000
  H   H13       1.0  0.7367446605788145  0.5557896339470075  0.6047264086676096  1.0000
  H   H14       1.0  0.7368487448449484  0.944295069414828  0.8953284161548328  1.0000
  H   H15       1.0  0.2632124068262057  0.4442159945768436  0.3952681296998294  1.0000
  H   H16       1.0  0.2632192444106494  0.05571125275629639  0.10465063463265523  1.0000
  H   H17       1.0  0.497111853067814  0.219696621603603  0.5272948272618835  1.0000
  H   H18       1.0  0.49720612410205695  0.28034957441604996  0.972755210145856  1.0000
  H   H19       1.0  0.5029131583519728  0.7803031077322089  0.4727025846606453  1.0000
  H   H20       1.0  0.5028414851193971  0.7196582255955944  0.027224175973984188  1.0000
  H   H21       1.0  0.7671096332615548  0.07132303352908309  0.6390413520489988  1.0000
  H   H22       1.0  0.7668726024151623  0.42866549255050046  0.860873842113776  1.0000
  H   H23       1.0  0.23289498764432892  0.928676685396816  0.36095244709761704  1.0000
  H   H24       1.0  0.2331048628416923  0.5713312933365983  0.13912711398711514  1.0000
  H   H25       1.0  0.3764858035194862  0.09664270628626068  0.4430825768335114  1.0000
  H   H26       1.0  0.3765076583245772  0.40340010206751487  0.057024442259610515  1.0000
  H   H27       1.0  0.623552806841026  0.9033526052037922  0.556919248212509  1.0000
  H   H28       1.0  0.6234200060591276  0.5965863668882248  0.9429838004470031  1.0000
  Pb  Pb1       1.0  0.5256997980710236  0.7499961501330502  0.7499529903169988  1.0000
  Pb  Pb2       1.0  0.4746015869265605  0.2500214084526319  0.25008156289167266  1.0000
  C   C1        1.0  0.310650649324316  0.4926201979950021  0.7438669174537298  1.0000
  C   C2        1.0  0.3104897518649281  0.007391235296232398  0.7560624345437291  1.0000
  C   C3        1.0  0.689344922509072  0.5073787924514618  0.2561303267806424  1.0000
  C   C4        1.0  0.6894741076155028  0.9926092225737759  0.2439315322520983  1.0000
  C   C5        1.0  0.2632855237081628  0.3921867877728147  0.7076028175574937  1.0000
  C   C6        1.0  0.2630971496666845  0.10781148330277548  0.7923457424994285  1.0000
  C   C7        1.0  0.7366964464701552  0.6078121870455317  0.2923890075224237  1.0000
  C   C8        1.0  0.7368644539351621  0.8921875071701846  0.20765150171610713  1.0000
  C   C9        1.0  0.392187638259223  0.3481739219847313  0.6289729331286084  1.0000
  C   C10       1.0  0.39205933948817767  0.15185087911598316  0.8710269657107477  1.0000
  C   C11       1.0  0.6077965996595226  0.6518250563071246  0.3710200962074382  1.0000
  C   C12       1.0  0.6079113220950135  0.8481451574382955  0.1289702099499266  1.0000
  C   C13       1.0  0.5684285182649732  0.4080031865357653  0.5920272286896165  1.0000
  C   C14       1.0  0.5684382301732994  0.09204284963838208  0.9080060282226515  1.0000
  C   C15       1.0  0.43153986754880685  0.5920031756786697  0.4079656709736242  1.0000
  C   C16       1.0  0.4315437479841648  0.9079561338681398  0.09198880749444528  1.0000
  C   C17       1.0  0.6025596133537405  0.5075724235856284  0.6325642952429932  1.0000
  C   C18       1.0  0.6025691684191513  0.992485794509953  0.8674518295930869  1.0000
  C   C19       1.0  0.3974155763723601  0.49243247296232073  0.36743248397240796  1.0000
  C   C20       1.0  0.397446757890215  0.007516859204748999  0.13253541471789995  1.0000
  C   C21       1.0  0.3467974789863674  0.24522840791732387  0.5817167774798124  1.0000
  C   C22       1.0  0.34670455315108484  0.25479135239783796  0.9183029717801647  1.0000
  C   C23       1.0  0.6532116767093257  0.7547727940425725  0.418279163395276  1.0000
  C   C24       1.0  0.6532683729808753  0.7452046841546718  0.08169420388176722  1.0000
  C   C25       1.0  0.08273393449496069  0.0957708691794821  0.5485115583421633  1.0000
  C   C26       1.0  0.08261642772047398  0.4042241766136738  0.9515009928516707  1.0000
  C   C27       1.0  0.9172978815281922  0.9042259184028509  0.4514899999163051  1.0000
  C   C28       1.0  0.917306711900785  0.5957615586461884  0.04850888856290679  1.0000
  C   C29       1.0  0.8694003712425697  0.03871518854089828  0.578057813965387  1.0000
  C   C30       1.0  0.8692360428171495  0.46126665453975574  0.9218999399766334  1.0000
  C   C31       1.0  0.1306246436075327  0.9612823292708794  0.4219409013239642  1.0000
  C   C32       1.0  0.13069614973439056  0.5387235054987441  0.07810793683676565  1.0000
  C   C33       1.0  0.2119208096218799  0.055198903523063295  0.4687971004345572  1.0000
  C   C34       1.0  0.2118954336608354  0.44481594391869805  0.0312551943375681  1.0000
  C   C35       1.0  0.7881177902588873  0.9447949197165569  0.531200776503191  1.0000
  C   C36       1.0  0.7880277000295024  0.5551705233029409  0.9687524462390943  1.0000
  I   I1        1.0  0.0418322114850724  0.7450052237744058  0.6101495051950395  1.0000
  I   I2        1.0  0.042297016195846  0.7549855447450965  0.8897313507750655  1.0000
  I   I3        1.0  0.9582993598864035  0.25502344121768056  0.38989539065352136  1.0000
  I   I4        1.0  0.9578050720744142  0.24503642661828448  0.11029698282480643  1.0000
  N   N1        1.0  0.47512310624833265  0.5501180179397874  0.7070955858213639  1.0000
  N   N2        1.0  0.47509436211129225  0.9499166425905086  0.7928764959594121  1.0000
  N   N3        1.0  0.5248770072105559  0.44988320140351573  0.2929063763230603  1.0000
  N   N4        1.0  0.5249238307950604  0.05008675177237618  0.20711151815208956  1.0000
  N   N5        1.0  0.13936488239055217  0.19044710690938862  0.6007654814626096  1.0000
  N   N6        1.0  0.1391200565153952  0.3095515260834603  0.899241347445056  1.0000
  N   N7        1.0  0.8606578606226803  0.8095489261289894  0.3992304899720835  1.0000
  N   N8        1.0  0.860782710837121  0.6904327417934863  0.10077181137917532  1.0000
