data_image0
_chemical_formula_structural       Li4H20C20N8O12
_chemical_formula_sum              "Li4 H20 C20 N8 O12"
_cell_length_a       4.742130910031964
_cell_length_b       5.603936444006639
_cell_length_c       24.135298415126634
_cell_angle_alpha    90.0000326004102
_cell_angle_beta     90.00037182640914
_cell_angle_gamma    90.00018292815055

_space_group_name_H-M_alt    "P 1"
_space_group_IT_number       1

loop_
  _space_group_symop_operation_xyz
  'x, y, z'

loop_
  _atom_site_type_symbol
  _atom_site_label
  _atom_site_symmetry_multiplicity
  _atom_site_fract_x
  _atom_site_fract_y
  _atom_site_fract_z
  _atom_site_occupancy
  Li  Li1       1.0  0.930434412184823  0.04254311732449881  0.2747053026971216  1.0000
  Li  Li2       1.0  0.06957444662841542  0.5425390569351763  0.7252942075837652  1.0000
  Li  Li3       1.0  0.06957648247895779  0.042538786277233995  0.7747047845331565  1.0000
  Li  Li4       1.0  0.9304323763578851  0.5425451724435463  0.22529596874058205  1.0000
  H   H1        1.0  0.501314228493797  0.0168964393162838  0.48146443344633383  1.0000
  H   H2        1.0  0.49866923434577604  0.5168878654751339  0.5185334153267149  1.0000
  H   H3        1.0  0.4986886161640882  0.016905829575065902  0.981464878933174  1.0000
  H   H4        1.0  0.5012948468467613  0.5169213022599877  0.0185387704759989  1.0000
  H   H5        1.0  0.5773337460095717  0.21543190383349753  0.3896251531437188  1.0000
  H   H6        1.0  0.4226672902504376  0.7154268543139962  0.6103731422338967  1.0000
  H   H7        1.0  0.4226752155926974  0.2154339383454626  0.8896238439964039  1.0000
  H   H8        1.0  0.5773258207828745  0.7154515867047947  0.11037859469242053  1.0000
  H   H9        1.0  0.09228308791360722  0.49687805964406795  0.43984218539304726  1.0000
  H   H10       1.0  0.9077189454783933  0.9968582456621891  0.5601607133591032  1.0000
  H   H11       1.0  0.9077158703028798  0.4968797001066534  0.939840668498974  1.0000
  H   H12       1.0  0.09227140177266341  0.9969030011306047  0.0601560152839511  1.0000
  H   H13       1.0  0.5162397000239167  0.7839392045926561  0.2519500446034044  1.0000
  H   H14       1.0  0.4837615789615981  0.28393217096823525  0.7480499192302974  1.0000
  H   H15       1.0  0.4837625288046752  0.7839342763864467  0.7519504709823438  1.0000
  H   H16       1.0  0.5162429677045707  0.28393531472134736  0.24805032151571987  1.0000
  H   H17       1.0  0.5924895356449511  0.9083214714302842  0.19628143197320472  1.0000
  H   H18       1.0  0.40751007522403876  0.4083161087286128  0.8037177234099461  1.0000
  H   H19       1.0  0.407507084896821  0.9083145401819551  0.6962821750705998  1.0000
  H   H20       1.0  0.5924967435100186  0.4083176866051659  0.3037190519693311  1.0000
  C   C1        1.0  0.018265191634327504  0.7692364442518167  0.3777737334694323  1.0000
  C   C2        1.0  0.9817339265094843  0.2692270317616662  0.6222266423043905  1.0000
  C   C3        1.0  0.9817390157621162  0.7692382968981093  0.8777718969993772  1.0000
  C   C4        1.0  0.018264319940890103  0.2692626527786501  0.12222723578747723  1.0000
  C   C5        1.0  0.22415278406821673  0.6715107521522157  0.3359425949548509  1.0000
  C   C6        1.0  0.775852314143563  0.1715043973331305  0.664058179273468  1.0000
  C   C7        1.0  0.7758475921627195  0.6715048767654537  0.8359413235833699  1.0000
  C   C8        1.0  0.22415961475432059  0.17151205717971152  0.1640561359992176  1.0000
  C   C9        1.0  0.6533208870735621  0.9433400413040617  0.45187723618999354  1.0000
  C   C10       1.0  0.3466767390816088  0.4433322374817051  0.5481210962204202  1.0000
  C   C11       1.0  0.346684266299107  0.943340073530301  0.9518770727603822  1.0000
  C   C12       1.0  0.6533070336844559  0.443360756607916  0.0481241599646296  1.0000
  C   C13       1.0  0.6941693034166575  0.0545219769790819  0.4006476598787502  1.0000
  C   C14       1.0  0.305829054042384  0.5545130028230929  0.5993518523415845  1.0000
  C   C15       1.0  0.3058415595049055  0.05452189211799661  0.9006462011693301  1.0000
  C   C16       1.0  0.694165233068972  0.5545398545974721  0.09935579704400511  1.0000
  C   C17       1.0  0.976590292192526  0.6588779422869138  0.4291575848918897  1.0000
  C   C18       1.0  0.023410543737938393  0.15886390129113442  0.5708431872802323  1.0000
  C   C19       1.0  0.023410997203910697  0.6588788322971624  0.9291570076372936  1.0000
  C   C20       1.0  0.9765898387325863  0.158893347096857  0.07084086422097612  1.0000
  N   N1        1.0  0.8751037303499629  0.9665025653191249  0.36318860712599144  1.0000
  N   N2        1.0  0.12490452166568389  0.4664978620251007  0.6368105577172046  1.0000
  N   N3        1.0  0.1249028048398131  0.9665019617936536  0.8631877454583761  1.0000
  N   N4        1.0  0.8751054472179121  0.46651452569066987  0.1368122480479386  1.0000
  N   N5        1.0  0.7932093615948048  0.7446584875257258  0.4663366294563148  1.0000
  N   N6        1.0  0.2067833431827637  0.24463954865684912  0.5336633279877887  1.0000
  N   N7        1.0  0.2067913460976598  0.74466525658692  0.9663362869508277  1.0000
  N   N8        1.0  0.7931950325179784  0.24468988230454874  0.03366408482477111  1.0000
  O   O1        1.0  0.2010823066426397  0.7496164830221232  0.28619967557659726  1.0000
  O   O2        1.0  0.7989251770422782  0.2496120726589197  0.71380152567653  1.0000
  O   O3        1.0  0.7989209273160894  0.7496142426909812  0.7861971907474372  1.0000
  O   O4        1.0  0.2010760125610815  0.24961966635276414  0.21380193884486695  1.0000
  O   O5        1.0  0.40331276696295504  0.5228030574154658  0.3531448879991999  1.0000
  O   O6        1.0  0.5966896956461198  0.02279080318142231  0.6468554477309639  1.0000
  O   O7        1.0  0.5966918658841037  0.5228020218417696  0.8531429729542311  1.0000
  O   O8        1.0  0.403300052961967  0.0228186056373048  0.1468557054477415  1.0000
  O   O9        1.0  0.6839424952094219  0.8293111015443345  0.22922866320908508  1.0000
  O   O10       1.0  0.3160568357473679  0.32930898343889936  0.7707700650040153  1.0000
  O   O11       1.0  0.3160570380998138  0.8293092615243796  0.7292288749073919  1.0000
  O   O12       1.0  0.683944401647679  0.32931082346382823  0.2707719249615792  1.0000
