data_image0
_chemical_formula_structural       Zr6H34C54O32
_chemical_formula_sum              "Zr6 H34 C54 O32"
_cell_length_a       14.746178010780868
_cell_length_b       14.752868228615073
_cell_length_c       14.752733021715528
_cell_angle_alpha    60.18209354004086
_cell_angle_beta     60.07243711079917
_cell_angle_gamma    60.0718540953516

_space_group_name_H-M_alt    "P 1"
_space_group_IT_number       1

loop_
  _space_group_symop_operation_xyz
  'x, y, z'

loop_
  _atom_site_type_symbol
  _atom_site_label
  _atom_site_symmetry_multiplicity
  _atom_site_fract_x
  _atom_site_fract_y
  _atom_site_fract_z
  _atom_site_occupancy
  Zr  Zr1       1.0  0.8792662529999551  0.8803746850003759  0.6208409508024105  1.0000
  Zr  Zr2       1.0  0.11918197310337322  0.1191784819430666  0.3813753310723912  1.0000
  Zr  Zr3       1.0  0.11923472434364174  0.8796798270845656  0.6207700122607775  1.0000
  Zr  Zr4       1.0  0.8791593142674332  0.11914458854802491  0.3821319916345231  1.0000
  Zr  Zr5       1.0  0.11959657182442385  0.8797422819096001  0.38136971350022725  1.0000
  Zr  Zr6       1.0  0.8795706746455778  0.11946705458722562  0.6212698979183813  1.0000
  H   H1        1.0  0.09572948280121095  0.7170915193924826  0.5944559708008939  1.0000
  H   H2        1.0  0.09554309169212163  0.0930036499728928  0.21870725194664695  1.0000
  H   H3        1.0  0.09443570807201246  0.09373139983998162  0.5951973956766851  1.0000
  H   H4        1.0  0.7161505328091309  0.09422559908576729  0.5959051905302815  1.0000
  H   H5        1.0  0.1558758597704397  0.400658580974266  0.37188810615993634  1.0000
  H   H6        1.0  0.828343395140827  0.614699831267359  0.6133681249427525  1.0000
  H   H7        1.0  0.1556339607236907  0.5716382790798065  0.3717023108039187  1.0000
  H   H8        1.0  0.8283908948854374  0.443930440814583  0.613356042454221  1.0000
  H   H9        1.0  0.42270738954360343  0.13672311152218  0.09558064491790932  1.0000
  H   H10       1.0  0.6011206897348061  0.8384510897579033  0.9317813329048266  1.0000
  H   H11       1.0  0.5932392599208142  0.13663818901621758  0.925248441432956  1.0000
  H   H12       1.0  0.43068721190913817  0.8384827839683454  0.10218636467743643  1.0000
  H   H13       1.0  0.8289060754711244  0.1115827789624505  0.945208559221399  1.0000
  H   H14       1.0  0.1555341741249095  0.869181905832427  0.07379488692578214  1.0000
  H   H15       1.0  0.8286396198890527  0.11160917493880633  0.1160654125999229  1.0000
  H   H16       1.0  0.15593942914726722  0.8693413199892533  0.9027629880004326  1.0000
  H   H17       1.0  0.430211352944994  0.5997331195731661  0.3410191243745616  1.0000
  H   H18       1.0  0.5926368187039515  0.4234137861875381  0.6392284799246538  1.0000
  H   H19       1.0  0.6008362109851291  0.42941394412319056  0.34111982448202827  1.0000
  H   H20       1.0  0.4220658649421128  0.5937176587459871  0.6390509437947789  1.0000
  H   H21       1.0  0.9969661179809749  0.5717147632907924  0.7371890934828612  1.0000
  H   H22       1.0  0.008718979789272024  0.4018062387992887  0.733602586892829  1.0000
  H   H23       1.0  0.9970598777947829  0.235646330858259  0.07296808558610475  1.0000
  H   H24       1.0  0.008894655090294619  0.2323412361766869  0.9028957369820675  1.0000
  H   H25       1.0  0.4254455455656015  0.842390132088525  0.6352033251062253  1.0000
  H   H26       1.0  0.5957116666517094  0.13320193607374622  0.3453839211439771  1.0000
  H   H27       1.0  0.5958631605993431  0.8427054587022342  0.6355542528651271  1.0000
  H   H28       1.0  0.4252600065953229  0.13284587441015114  0.34506705820589906  1.0000
  H   H29       1.0  0.906078972565723  0.5811550574082675  0.22907891825858687  1.0000
  H   H30       1.0  0.9727594431092896  0.4353564762194253  0.27671541135752875  1.0000
  H   H31       1.0  0.05187622654518271  0.5250210275600368  0.19217939612057935  1.0000
  H   H32       1.0  0.05121721482508719  0.6910331452358277  0.026994584966928366  1.0000
  H   H33       1.0  0.9734044966517315  0.7750507905092336  0.9361178513125311  1.0000
  H   H34       1.0  0.9053137143238247  0.7284894147722978  0.08171511769353398  1.0000
  C   C1        1.0  0.9948459272247446  0.7004017760137414  0.49587083552688693  1.0000
  C   C2        1.0  0.31017206781128  0.9933673074029059  0.20308053427494616  1.0000
  C   C3        1.0  0.9949514608355231  0.3084786471624952  0.49665012410105186  1.0000
  C   C4        1.0  0.7011189558325343  0.9939381485080574  0.811776454597549  1.0000
  C   C5        1.0  0.994421510402013  0.6993692195385254  0.8087743635900821  1.0000
  C   C6        1.0  0.7007399568663789  0.9934703410555696  0.49574108254866195  1.0000
  C   C7        1.0  0.9941904966679331  0.3073091109420004  0.20102902426864935  1.0000
  C   C8        1.0  0.30938240637583203  0.9934517303945186  0.4956708245835132  1.0000
  C   C9        1.0  0.31004618001285417  0.7012492588212995  0.49523291644140965  1.0000
  C   C10       1.0  0.9952222653508754  0.994632502101659  0.8101648335957207  1.0000
  C   C11       1.0  0.7009460554578981  0.30995193384284664  0.496172347444251  1.0000
  C   C12       1.0  0.9947962962701952  0.9939858639989229  0.20216035476668281  1.0000
  C   C13       1.0  0.9925668103772974  0.4124358090471745  0.4933601863625089  1.0000
  C   C14       1.0  0.9923302610388945  0.601972972057446  0.4929654900010618  1.0000
  C   C15       1.0  0.08467466355453712  0.44847901680365254  0.42403942512372356  1.0000
  C   C16       1.0  0.8993505608838674  0.5671574917494197  0.5608269470281899  1.0000
  C   C17       1.0  0.08453190164456008  0.5428298827727432  0.42388123836963143  1.0000
  C   C18       1.0  0.8994823423402208  0.472753628626997  0.5609460659937895  1.0000
  C   C19       1.0  0.41608587363878535  0.9887031484450902  0.1071147865867418  1.0000
  C   C20       1.0  0.605307616240481  0.9888132441242021  0.9178277722333946  1.0000
  C   C21       1.0  0.46268332667727924  0.07184768364183469  0.05903392939900693  1.0000
  C   C22       1.0  0.5612377491633042  0.9032827638391013  0.9683818403947201  1.0000
  C   C23       1.0  0.556889769017353  0.07178259874998352  0.9648957963772774  1.0000
  C   C24       1.0  0.46709282682397246  0.903287577366136  0.06260015733254677  1.0000
  C   C25       1.0  0.9928161875900443  0.9911642921536128  0.9141962402997523  1.0000
  C   C26       1.0  0.9923968344537928  0.990848085851205  0.10377802615792575  1.0000
  C   C27       1.0  0.8998151806692789  0.058961804251083556  0.974299447669708  1.0000
  C   C28       1.0  0.08450831454390359  0.9214698594661002  0.044879553962054806  1.0000
  C   C29       1.0  0.8995882268973504  0.05886149423812269  0.06872751939035042  1.0000
  C   C30       1.0  0.08476027813857478  0.9216073930174531  0.9504873062837264  1.0000
  C   C31       1.0  0.41566332955892443  0.6049846859249045  0.49103869619668233  1.0000
  C   C32       1.0  0.6048966675138132  0.41578037695849435  0.49137704126182774  1.0000
  C   C33       1.0  0.466616621985395  0.5602758249209074  0.40579673841973823  1.0000
  C   C34       1.0  0.5563546551433518  0.4628883253475209  0.5743487258336588  1.0000
  C   C35       1.0  0.5608186431029978  0.46613118432664163  0.40588154772607504  1.0000
  C   C36       1.0  0.4621215822984156  0.5570222509740007  0.5742641362865086  1.0000
  C   C37       1.0  0.9917632029809625  0.599161223236841  0.9110717541505268  1.0000
  C   C38       1.0  0.9950716696126916  0.5025299773416736  0.9070441846987337  1.0000
  C   C39       1.0  0.9865080080899917  0.601791094633839  0.00653706578484037  1.0000
  C   C40       1.0  0.00039256010641253294  0.4978659191857416  0.8103332897389068  1.0000
  C   C41       1.0  0.005705891115248161  0.40272648105792536  0.808566111863911  1.0000
  C   C42       1.0  0.9916540213419367  0.40958132408720616  0.10072523138213539  1.0000
  C   C43       1.0  0.986476385989256  0.505067311856024  0.10327745846951328  1.0000
  C   C44       1.0  0.9950048629713847  0.40557323843070475  0.0040322116701146235  1.0000
  C   C45       1.0  0.0004289861148477819  0.30888577029902115  0.9992012321490693  1.0000
  C   C46       1.0  0.0057692287717046155  0.3072802944491143  0.903953038795436  1.0000
  C   C47       1.0  0.41495088313426026  0.9887833578683145  0.4912656997531143  1.0000
  C   C48       1.0  0.6040691806416377  0.9889888368624611  0.4914487172840082  1.0000
  C   C49       1.0  0.4635755634777468  0.9055362458059906  0.572302355524734  1.0000
  C   C50       1.0  0.5576428600098069  0.07000583954461354  0.40820135478205094  1.0000
  C   C51       1.0  0.5577610645636781  0.9056440967854016  0.5723997092362441  1.0000
  C   C52       1.0  0.4635071811896764  0.0698773489312358  0.40809392527882693  1.0000
  C   C53       1.0  0.9785343384319064  0.511154058453336  0.2059997219556493  1.0000
  C   C54       1.0  0.9783745509625207  0.7047481918092655  0.012368560005370507  1.0000
  O   O1        1.0  0.9191150382050279  0.7383986153118016  0.5743869872898346  1.0000
  O   O2        1.0  0.2677020792337785  0.07291901500219213  0.24021808033079148  1.0000
  O   O3        1.0  0.07357658163368802  0.26697236363174437  0.4213375268707865  1.0000
  O   O4        1.0  0.7373326716219708  0.9202368805400385  0.7690321988678905  1.0000
  O   O5        1.0  0.07411609455278506  0.7358327590301882  0.7676158974910194  1.0000
  O   O6        1.0  0.737735021660889  0.07279172524396677  0.4213440979671788  1.0000
  O   O7        1.0  0.91730615823289  0.2671511421722243  0.2419312109814271  1.0000
  O   O8        1.0  0.26730111313118976  0.9192261519438177  0.5750574709217773  1.0000
  O   O9        1.0  0.26817056637530395  0.7379674630812616  0.4206904076144441  1.0000
  O   O10       1.0  0.9197651832593722  0.07326787427688698  0.7694780017801578  1.0000
  O   O11       1.0  0.7382849646843612  0.2681040295990582  0.575432337258242  1.0000
  O   O12       1.0  0.07386776783900484  0.9193597643707889  0.23949364798699696  1.0000
  O   O13       1.0  0.07381719818178605  0.9193835735362655  0.7685771436436041  1.0000
  O   O14       1.0  0.7373329726928617  0.26741174204825335  0.42225143607570464  1.0000
  O   O15       1.0  0.918956078825694  0.07244718283862997  0.24021046387210282  1.0000
  O   O16       1.0  0.26764445333314074  0.7386042582951333  0.5746006785359372  1.0000
  O   O17       1.0  0.9174004359343545  0.7404227621686273  0.7687656883944244  1.0000
  O   O18       1.0  0.26743290162066563  0.07288612761351494  0.4213558166357246  1.0000
  O   O19       1.0  0.07373936082468899  0.26628741638048586  0.23765921581583882  1.0000
  O   O20       1.0  0.7379534292183011  0.9190386938659217  0.5748974283734256  1.0000
  O   O21       1.0  0.7384311081482053  0.07319651821060096  0.7700049371091141  1.0000
  O   O22       1.0  0.07375365424282897  0.7378776913768307  0.42101817031565514  1.0000
  O   O23       1.0  0.2681388255776869  0.9189621349529915  0.23976509292376866  1.0000
  O   O24       1.0  0.9194880091434783  0.26778227023550755  0.5752218126669534  1.0000
  O   O25       1.0  0.796620086016638  0.06732045294441473  0.5690464670158022  1.0000
  O   O26       1.0  0.0668624428573209  0.06717555304378917  0.5687807776425162  1.0000
  O   O27       1.0  0.0669414324172948  0.06661955582116968  0.2990294002899603  1.0000
  O   O28       1.0  0.06703031729541223  0.7974056941680914  0.5681391212104501  1.0000
  O   O29       1.0  0.14880388655424798  0.9498921432471973  0.45145929927345213  1.0000
  O   O30       1.0  0.949849103614966  0.9498921613609711  0.45153874182845755  1.0000
  O   O31       1.0  0.9496817962401137  0.14852318523035993  0.4519290278720759  1.0000
  O   O32       1.0  0.9497047006568948  0.9502067620130248  0.6502665674273164  1.0000
