data_image0
_chemical_formula_structural       Hg4P4H48C24N12Cl8O4
_chemical_formula_sum              "Hg4 P4 H48 C24 N12 Cl8 O4"
_cell_length_a       7.318006851
_cell_length_b       7.302397710160615
_cell_length_c       21.0889
_cell_angle_alpha    90.0
_cell_angle_beta     90.0
_cell_angle_gamma    103.16196130667426

_space_group_name_H-M_alt    "P 1"
_space_group_IT_number       1

loop_
  _space_group_symop_operation_xyz
  'x, y, z'

loop_
  _atom_site_type_symbol
  _atom_site_label
  _atom_site_symmetry_multiplicity
  _atom_site_fract_x
  _atom_site_fract_y
  _atom_site_fract_z
  _atom_site_occupancy
  Hg  Hg1       1.0  0.43550789733102147  0.5315948242276036  0.5954559033425184  1.0000
  Hg  Hg2       1.0  0.5644922269540871  0.9684081620326239  0.09545542915941498  1.0000
  Hg  Hg3       1.0  0.5644938314006893  0.4684057602547114  0.40454409665748153  1.0000
  Hg  Hg4       1.0  0.4355074078948321  0.0315952351653692  0.9045440966574816  1.0000
  P   P1        1.0  0.1044486302944136  0.8085488730620938  0.6514251573102426  1.0000
  P   P2        1.0  0.8955339608530226  0.691461144987322  0.15142610567644246  1.0000
  P   P3        1.0  0.8955489989604005  0.1914517114202283  0.34857436850665374  1.0000
  P   P4        1.0  0.10444846040912381  0.3085506903576913  0.8485748426897571  1.0000
  H   H1        1.0  0.8900338787132542  0.5652095892468625  0.5919317745354178  1.0000
  H   H2        1.0  0.1099659260209549  0.9347919906555333  0.0919313003523214  1.0000
  H   H3        1.0  0.1099661639752583  0.43478958887762087  0.4080686996476785  1.0000
  H   H4        1.0  0.8900361222616554  0.0652100001846208  0.9080682254645822  1.0000
  H   H5        1.0  0.8310824982193311  0.5569303606606155  0.6743030693872143  1.0000
  H   H6        1.0  0.16891625957347864  0.9430726255996121  0.17430212102101447  1.0000
  H   H7        1.0  0.16891722491828182  0.44306741110602144  0.32569740479588916  1.0000
  H   H8        1.0  0.831083055724534  0.056929365240542  0.8256969306127856  1.0000
  H   H9        1.0  0.25080452026373484  0.0823731912269992  0.5893564861135445  1.0000
  H   H10       1.0  0.7491943055980884  0.4176292105509134  0.089356960296648  1.0000
  H   H11       1.0  0.7491955224247777  0.9176259868974768  0.4106435138864555  1.0000
  H   H12       1.0  0.2508066957431225  0.5823741866470797  0.9106430397033519  1.0000
  H   H13       1.0  0.14356929055185216  0.8879307411698605  0.5400419177861336  1.0000
  H   H14       1.0  0.8564301946314574  0.612069432374696  0.0400419177861338  1.0000
  H   H15       1.0  0.8564321186289592  0.1120684369546225  0.4599576080307628  1.0000
  H   H16       1.0  0.1435695285061556  0.3879283393919479  0.9599576080307627  1.0000
  H   H17       1.0  0.992137621748306  0.86036190849174  0.7557316882340926  1.0000
  H   H18       1.0  0.007860177391798078  0.6396368586949848  0.255730739867893  1.0000
  H   H19       1.0  0.007865153924797101  0.1396372696327433  0.2442687859490036  1.0000
  H   H20       1.0  0.9921374518630162  0.3603637257873373  0.7442678375828038  1.0000
  H   H21       1.0  0.15458879854131885  0.0652409400570377  0.7279891317233264  1.0000
  H   H22       1.0  0.8454104351600977  0.4347572426473718  0.22798770917402317  1.0000
  H   H23       1.0  0.8454150240731836  0.9347568317096063  0.27201134245977693  1.0000
  H   H24       1.0  0.15458719409471666  0.5652433418349503  0.7720113424597768  1.0000
  H   H25       1.0  0.8150777730675928  0.8067079506534967  0.5254991962596449  1.0000
  H   H26       1.0  0.18492066517431743  0.6932936292488989  0.025498247893437995  1.0000
  H   H27       1.0  0.18492258917181914  0.1932926338288183  0.4745017521065549  1.0000
  H   H28       1.0  0.8150783305727958  0.30670695523342323  0.9745012779234585  1.0000
  H   H29       1.0  0.6704703041523317  0.9549057204398752  0.5559564510239952  1.0000
  H   H30       1.0  0.329528453640478  0.5450972658203526  0.0559555026577954  1.0000
  H   H31       1.0  0.32953005808708014  0.04509486404244001  0.4440444973422045  1.0000
  H   H32       1.0  0.6704708616575348  0.4549047250198015  0.9440440231591012  1.0000
  H   H33       1.0  0.052619602632070404  0.2536886711374891  0.6448235801772526  1.0000
  H   H34       1.0  0.9473830031557497  0.2463123242825844  0.144824054360349  1.0000
  H   H35       1.0  0.9473831730410396  0.7463105069869869  0.355175945639651  1.0000
  H   H36       1.0  0.05261767863456159  0.7536896665575696  0.8551759456396508  1.0000
  H   H37       1.0  0.8074358512127165  0.2125231708915436  0.6255447178373429  1.0000
  H   H38       1.0  0.19256844061829534  0.287479230886369  0.1255451920204464  1.0000
  H   H39       1.0  0.19256692446038673  0.7874760072329323  0.37445528216265694  1.0000
  H   H40       1.0  0.8074336076643149  0.7125227599537853  0.8744552821626569  1.0000
  H   H41       1.0  0.6766955585352293  0.7828251818660732  0.719137555775788  1.0000
  H   H42       1.0  0.32330151321438194  0.7171763980363226  0.21913708159268444  1.0000
  H   H43       1.0  0.32330753668878043  0.2171754026162418  0.2808633925904118  1.0000
  H   H44       1.0  0.6766961160404323  0.2828241864459997  0.7808629184073155  1.0000
  H   H45       1.0  0.5906344309067111  0.940556651429276  0.668988899373602  1.0000
  H   H46       1.0  0.40936674031978987  0.5594449284731198  0.1689893735567054  1.0000
  H   H47       1.0  0.40936866431729874  0.0594439330530463  0.3310115748094944  1.0000
  H   H48       1.0  0.5906319358764236  0.4405542496513561  0.8310111006263979  1.0000
  C   C1        1.0  0.8776128677444606  0.6511633675267916  0.6338775374723227  1.0000
  C   C2        1.0  0.1223858900483492  0.848839618733443  0.1338770632892192  1.0000
  C   C3        1.0  0.12238854143635082  0.3488358105976914  0.3661229367107808  1.0000
  C   C4        1.0  0.8776134252496633  0.151162372106711  0.8661224625276772  1.0000
  C   C5        1.0  0.12659315772929597  0.9664786390803002  0.5832589656169844  1.0000
  C   C6        1.0  0.8734060079031069  0.5335201281064172  0.08325849143388099  1.0000
  C   C7        1.0  0.8734079319006087  0.0335191326863438  0.41674150856611897  1.0000
  C   C8        1.0  0.12659266829310672  0.4664790500180587  0.9167410343830155  1.0000
  C   C9        1.0  0.035694434377425914  0.9508497844380559  0.7142425636235146  1.0000
  C   C10       1.0  0.9643047312549768  0.5491489827486618  0.2142416152573148  1.0000
  C   C11       1.0  0.9643107547293754  0.04914798732858831  0.2857583847426852  1.0000
  C   C12       1.0  0.03569257844893768  0.4508501953758142  0.7857579105595818  1.0000
  C   C13       1.0  0.7892665476834254  0.8907434568438006  0.5663140325005073  1.0000
  C   C14       1.0  0.21073252966028383  0.6092609357742731  0.0663140325005074  1.0000
  C   C15       1.0  0.21073518104828537  0.1092571276385215  0.43368644168258896  1.0000
  C   C16       1.0  0.7892657386963295  0.3907424614237201  0.933686441682589  1.0000
  C   C17       1.0  0.9246192301539371  0.1452739518433148  0.6350667886897837  1.0000
  C   C18       1.0  0.07538032309838633  0.3547256372189197  0.1350663145066804  1.0000
  C   C19       1.0  0.07538354551917338  0.8547252262811611  0.3649336854933196  1.0000
  C   C20       1.0  0.9246169866055285  0.6452735409055563  0.864933211310216  1.0000
  C   C21       1.0  0.7102298589140686  0.8770610014479203  0.678165290745369  1.0000
  C   C22       1.0  0.28976962626924063  0.6229391720966362  0.1781648165622656  1.0000
  C   C23       1.0  0.28977291675904143  0.1229381766765627  0.3218351834377344  1.0000
  C   C24       1.0  0.7102280029855808  0.3770614123856788  0.821834709254631  1.0000
  N   N1        1.0  0.7344554189891783  0.7622375094906744  0.621388977139631  1.0000
  N   N2        1.0  0.2655402862681342  0.7377640704117212  0.12138945132273449  1.0000
  N   N3        1.0  0.2655449432502337  0.2377630749916477  0.378611022860369  1.0000
  N   N4        1.0  0.734455976494381  0.2622365140705938  0.878611022860369  1.0000
  N   N5        1.0  0.9552515504840359  0.0404004415826336  0.5780846796181861  1.0000
  N   N6        1.0  0.044748641870086196  0.459601960195279  0.0780856279843931  1.0000
  N   N7        1.0  0.044751864290873314  0.9596015492575207  0.4219148461987102  1.0000
  N   N8        1.0  0.9552489873847279  0.540398624287036  0.9219143720156068  1.0000
  N   N9        1.0  0.8758278031343993  0.0262173227967963  0.6917586977035342  1.0000
  N   N10       1.0  0.12417448310251442  0.4737822662654452  0.1917586977035342  1.0000
  N   N11       1.0  0.12417633903100275  0.9737818553276869  0.3082417764795693  1.0000
  N   N12       1.0  0.8758258791368975  0.5262183182168698  0.8082413022964656  1.0000
  Cl  Cl1       1.0  0.3136047476544094  0.6364078611012973  0.498767598120338  1.0000
  Cl  Cl2       1.0  0.6863953766306992  0.8635951251589304  0.9987675981203381  1.0000
  Cl  Cl3       1.0  0.6863969810773014  0.3635927233810179  0.5012328760627652  1.0000
  Cl  Cl4       1.0  0.3136042582182129  0.1364082720390627  0.0012324018796618997  1.0000
  Cl  Cl5       1.0  0.4658916357713495  0.3027072735450815  0.6741371053018383  1.0000
  Cl  Cl6       1.0  0.534108237031873  0.1972937218749991  0.1741375794849418  1.0000
  Cl  Cl7       1.0  0.5341097734094619  0.6972919045794015  0.3258628946981617  1.0000
  Cl  Cl8       1.0  0.4658910782661467  0.802708268965155  0.8258628946981617  1.0000
  O   O1        1.0  0.2627578941196376  0.7137251959043951  0.6660072360341188  1.0000
  O   O2        1.0  0.7372489196534533  0.7862651331353022  0.16600676185102256  1.0000
  O   O3        1.0  0.7372476145380704  0.28627398222008793  0.33399228978277756  1.0000
  O   O4        1.0  0.2627574046834411  0.2137256068421536  0.8339918155996741  1.0000
