data_image0
_chemical_formula_structural       Zn2H32C36S4N16
_chemical_formula_sum              "Zn2 H32 C36 S4 N16"
_cell_length_a       8.161177172189666
_cell_length_b       10.164716876542306
_cell_length_c       12.965875956166432
_cell_angle_alpha    90.2036086578333
_cell_angle_beta     98.5170736808113
_cell_angle_gamma    107.78750369563028

_space_group_name_H-M_alt    "P 1"
_space_group_IT_number       1

loop_
  _space_group_symop_operation_xyz
  'x, y, z'

loop_
  _atom_site_type_symbol
  _atom_site_label
  _atom_site_symmetry_multiplicity
  _atom_site_fract_x
  _atom_site_fract_y
  _atom_site_fract_z
  _atom_site_occupancy
  Zn  Zn1       1.0  0.5083525711057533  0.8739249284345688  0.7907401791279155  1.0000
  Zn  Zn2       1.0  0.4916512403136578  0.12607834281086377  0.2092612948961232  1.0000
  H   H1        1.0  0.733547356789586  0.10832830358295098  0.9890455095787586  1.0000
  H   H2        1.0  0.2664507701310441  0.891669763903046  0.010954652593817104  1.0000
  H   H3        1.0  0.9342239457605075  0.1907743299174598  0.15821502264346068  1.0000
  H   H4        1.0  0.06577666712977498  0.8092237584748927  0.8417853682043414  1.0000
  H   H5        1.0  0.05731625420703779  0.032667004902869196  0.2633435317322537  1.0000
  H   H6        1.0  0.942687621030302  0.9673331738686101  0.7366556237744392  1.0000
  H   H7        1.0  0.9889601245607198  0.7838702255904053  0.20676788729993945  1.0000
  H   H8        1.0  0.01104336005445819  0.21612891865836298  0.7932312287350171  1.0000
  H   H9        1.0  0.6970580865034037  0.47415948505530264  0.9896822269773792  1.0000
  H   H10       1.0  0.30293918805457315  0.5258396065002274  0.010317860329337205  1.0000
  H   H11       1.0  0.819187083331002  0.5487141247968308  0.11352157833262311  1.0000
  H   H12       1.0  0.18081143177833775  0.4512849774255513  0.886477851831792  1.0000
  H   H13       1.0  0.08136577002919415  0.6561012149577794  0.0252905854053225  1.0000
  H   H14       1.0  0.9186324231428317  0.34389375984059706  0.9747080297298254  1.0000
  H   H15       1.0  0.9572724706331215  0.5779685912689556  0.9034630769068458  1.0000
  H   H16       1.0  0.042724022680509746  0.42202843124114514  0.0965369314563773  1.0000
  H   H17       1.0  0.624554263225022  0.4883552730814528  0.599058751317223  1.0000
  H   H18       1.0  0.3754400684897447  0.5116458557326309  0.40094261487996624  1.0000
  H   H19       1.0  0.6260931067189972  0.4246308361862247  0.47221079813972006  1.0000
  H   H20       1.0  0.3739004437514239  0.5753682235824299  0.5277904891139826  1.0000
  H   H21       1.0  0.8555910043854098  0.6431166198096321  0.5111234796610163  1.0000
  H   H22       1.0  0.1444037842029147  0.3568824508395423  0.488876378970474  1.0000
  H   H23       1.0  0.6970120894877851  0.6574969575691937  0.40505447771506203  1.0000
  H   H24       1.0  0.3029814585491765  0.34250210241313545  0.5949460380587297  1.0000
  H   H25       1.0  0.8302285984634991  0.9011097155080634  0.36380976929346787  1.0000
  H   H26       1.0  0.16976828303884872  0.0988883417384301  0.6361895070615945  1.0000
  H   H27       1.0  0.8755226660478286  0.15517695669475975  0.35776121267884514  1.0000
  H   H28       1.0  0.12447381996542371  0.8448200664563644  0.6422364812446658  1.0000
  H   H29       1.0  0.8059084985116199  0.28407605220856874  0.4969920080657104  1.0000
  H   H30       1.0  0.1940912522821563  0.7159230611080146  0.5030052219966024  1.0000
  H   H31       1.0  0.6789230008988839  0.16538089914394052  0.6484299608291052  1.0000
  H   H32       1.0  0.32108080322014837  0.8346223727425083  0.3515691987552145  1.0000
  C   C1        1.0  0.753764809791349  0.9005667419136923  0.0033765676561116824  1.0000
  C   C2        1.0  0.2462378273280947  0.09943342597725997  0.9966240164727863  1.0000
  C   C3        1.0  0.7908660495294271  0.0399104081055697  0.03564988726535033  1.0000
  C   C4        1.0  0.2091353446051939  0.9600897493322119  0.9643505825259382  1.0000
  C   C5        1.0  0.9017183894935457  0.08376426008102558  0.1293716151692763  1.0000
  C   C6        1.0  0.09828385700372162  0.916234873287216  0.8706289294878786  1.0000
  C   C7        1.0  0.9719107208117849  0.9925036467234349  0.19012011439581758  1.0000
  C   C8        1.0  0.0280931544255623  0.0074965320480445  0.8098790411108823  1.0000
  C   C9        1.0  0.9361034938273035  0.8544300679090351  0.1595931194222828  1.0000
  C   C10       1.0  0.06389999078787409  0.14556907633973276  0.8404059966126666  1.0000
  C   C11       1.0  0.8258727654280095  0.8108996264306682  0.0640794182646687  1.0000
  C   C12       1.0  0.1741294786358054  0.18909950715124785  0.9359203549125822  1.0000
  C   C13       1.0  0.8068472791386798  0.5599989609941646  0.02874883547301012  1.0000
  C   C14       1.0  0.19315123353720054  0.4400001414418925  0.971249823211501  1.0000
  C   C15       1.0  0.9753582965036003  0.5655143170240962  0.9883282912517046  1.0000
  C   C16       1.0  0.024639046739231667  0.43448168163014583  0.011671020497480793  1.0000
  C   C17       1.0  0.5959026566084447  0.5051924857903669  0.5154898208590168  1.0000
  C   C18       1.0  0.4040887985144934  0.4948075875946429  0.4845112771912028  1.0000
  C   C19       1.0  0.7195775101263991  0.641539435140153  0.489167341151429  1.0000
  C   C20       1.0  0.2804176715175615  0.358460669818065  0.5108333284317155  1.0000
  C   C21       1.0  0.7322102591666281  0.8935697310854495  0.5118715369547076  1.0000
  C   C22       1.0  0.2677877942022207  0.1064314297291915  0.4881278578155914  1.0000
  C   C23       1.0  0.7991438514986839  0.9581656318268656  0.4253288286021331  1.0000
  C   C24       1.0  0.2008587880542123  0.041834535850419685  0.574672527006669  1.0000
  C   C25       1.0  0.8238439483414054  0.0990908843944922  0.42314658923440623  1.0000
  C   C26       1.0  0.1761520783648223  0.9009081971352088  0.5768518407748857  1.0000
  C   C27       1.0  0.7821795280379362  0.17300551148039028  0.5030683088610672  1.0000
  C   C28       1.0  0.2178168892904608  0.8269946045720289  0.49693016061996786  1.0000
  C   C29       1.0  0.7124497372589075  0.10841026977649187  0.5878522510500304  1.0000
  C   C30       1.0  0.287552045064416  0.8915909223976753  0.4121474867330975  1.0000
  C   C31       1.0  0.6873479291120859  0.9653960871846294  0.5912722084773918  1.0000
  C   C32       1.0  0.3126509790528829  0.0346040493467967  0.4087280326386704  1.0000
  C   C33       1.0  0.181090254826934  0.6201171041688481  0.7285049038358268  1.0000
  C   C34       1.0  0.818924141912234  0.37989450576368705  0.2714983434677336  1.0000
  C   C35       1.0  0.5199172795201433  0.1805611405730687  0.8033632839346225  1.0000
  C   C36       1.0  0.48009267570507314  0.8194452760532157  0.1966387658550914  1.0000
  S   S1        1.0  0.019244743849128623  0.4884142433954821  0.6810378124655401  1.0000
  S   S2        1.0  0.9807570360407355  0.5115869489923595  0.31896115383768386  1.0000
  S   S3        1.0  0.5328002787494839  0.3407860802593632  0.7934357877810996  1.0000
  S   S4        1.0  0.4672064214290473  0.6592182453467642  0.2065698117894357  1.0000
  N   N1        1.0  0.6529115153367896  0.823580765500118  0.916103965669933  1.0000
  N   N2        1.0  0.34708948817566204  0.17641835741494558  0.0838964646496123  1.0000
  N   N3        1.0  0.6598990075331913  0.6957228368936369  0.9193972852892216  1.0000
  N   N4        1.0  0.34010075299443093  0.3042762755682489  0.0806030306927141  1.0000
  N   N5        1.0  0.7624497516884077  0.6867236773918248  0.007767922329129811  1.0000
  N   N6        1.0  0.23755124939057737  0.3132754457369131  0.9922317365105114  1.0000
  N   N7        1.0  0.626298744488892  0.8694068040406221  0.662685849507902  1.0000
  N   N8        1.0  0.37370382394568935  0.13059645675163264  0.3373155101785201  1.0000
  N   N9        1.0  0.633524169822216  0.7475225462796684  0.6328019784876632  1.0000
  N   N10       1.0  0.36647715319408297  0.2524807042730756  0.3671984953812455  1.0000
  N   N11       1.0  0.6960651493725861  0.760245231743326  0.5425475153273283  1.0000
  N   N12       1.0  0.3039325158075528  0.23975489433492206  0.4574526114511245  1.0000
  N   N13       1.0  0.2969257809196861  0.719029378338007  0.7651776838430848  1.0000
  N   N14       1.0  0.7030703169048564  0.28096661007673157  0.23482074208858708  1.0000
  N   N15       1.0  0.5118622906371755  0.0621397251965163  0.8109482423586627  1.0000
  N   N16       1.0  0.48815107890558096  0.937862594724265  0.18905564985432477  1.0000
