data_image0
_chemical_formula_structural       Ca2P4H32C16O18
_chemical_formula_sum              "Ca2 P4 H32 C16 O18"
_cell_length_a       7.062675153073573
_cell_length_b       9.0666432851339
_cell_length_c       11.809791962321105
_cell_angle_alpha    103.67264867118752
_cell_angle_beta     107.42012825534714
_cell_angle_gamma    90.00168998916318

_space_group_name_H-M_alt    "P 1"
_space_group_IT_number       1

loop_
  _space_group_symop_operation_xyz
  'x, y, z'

loop_
  _atom_site_type_symbol
  _atom_site_label
  _atom_site_symmetry_multiplicity
  _atom_site_fract_x
  _atom_site_fract_y
  _atom_site_fract_z
  _atom_site_occupancy
  Ca  Ca1       1.0  0.21693041205293884  0.2499651500529296  0.9999845598637336  1.0000
  Ca  Ca2       1.0  0.7830696187466015  0.7500348696015704  1.5245418140429534e-05  1.0000
  P   P1        1.0  0.4849702321490668  0.4047275987538512  0.8120098831989466  1.0000
  P   P2        1.0  0.6733800078512288  0.09531503988792168  0.18787985475177044  1.0000
  P   P3        1.0  0.5150283158839172  0.595272423949879  0.1879905044217692  1.0000
  P   P4        1.0  0.3266217290960327  0.9046872535665853  0.8121198146005639  1.0000
  H   H1        1.0  0.6176695835976955  0.23467334840501766  0.6763924852355173  1.0000
  H   H2        1.0  0.9421004960886775  0.26526795484129906  0.3235311522444846  1.0000
  H   H3        1.0  0.3823256624935638  0.7653232605754993  0.3236075496362147  1.0000
  H   H4        1.0  0.0579012408585839  0.734734338613208  0.6764685171078569  1.0000
  H   H5        1.0  0.3536612622888099  0.22291400740983383  0.6215359869953048  1.0000
  H   H6        1.0  0.7328391944548612  0.27722340610184654  0.37825046860299955  1.0000
  H   H7        1.0  0.646335691287035  0.7770848799185116  0.37846475975959487  1.0000
  H   H8        1.0  0.26716094803526147  0.7227777519772756  0.6217495598835256  1.0000
  H   H9        1.0  0.17766854527820183  0.3839575306731787  0.4930904134491101  1.0000
  H   H10       1.0  0.6847818069722464  0.1164231583730313  0.5066574740558067  1.0000
  H   H11       1.0  0.8223312661508045  0.6160402257755279  0.5069114888615758  1.0000
  H   H12       1.0  0.31521810946297524  0.8835757137612033  0.49334041239601584  1.0000
  H   H13       1.0  0.1849252913283195  0.5527917416331432  0.356490522154786  1.0000
  H   H14       1.0  0.8281580161980455  0.9477329593139886  0.643465580568126  1.0000
  H   H15       1.0  0.8150746304543899  0.4472071486923638  0.6435107555478439  1.0000
  H   H16       1.0  0.1718434973680587  0.052267057291274496  0.35653364237491303  1.0000
  H   H17       1.0  0.3628312885280351  0.6325702582690909  0.8255037494396903  1.0000
  H   H18       1.0  0.5377687833427628  0.8675014142151407  0.17458052684559533  1.0000
  H   H19       1.0  0.6371687409346335  0.3674297568375877  0.17449520802948376  1.0000
  H   H20       1.0  0.4622327315602134  0.13249860693793636  0.8254195439101507  1.0000
  H   H21       1.0  0.7808528123277014  0.32297168772068113  0.9741974763884257  1.0000
  H   H22       1.0  0.8067192054138345  0.1769926879638035  0.02573894681215448  1.0000
  H   H23       1.0  0.2191472184718464  0.677028331933812  0.025802328893448117  1.0000
  H   H24       1.0  0.19328082672258515  0.8230073362385111  0.9742617062824266  1.0000
  H   H25       1.0  0.2828780941494529  0.0624894761610619  0.17718414881468897  1.0000
  H   H26       1.0  0.10544439800408159  0.4373504973255676  0.8226640962794818  1.0000
  H   H27       1.0  0.7171235311072265  0.9375116788688234  0.8228152973330013  1.0000
  H   H28       1.0  0.8945557444860409  0.5626506607535544  0.1773359322070434  1.0000
  H   H29       1.0  0.0484837363495885  0.0770180758035863  0.1451446872797462  1.0000
  H   H30       1.0  0.9031505173536303  0.42278638465570134  0.8546799181720104  1.0000
  H   H31       1.0  0.951518001934545  0.9229842221987351  0.8548558298852955  1.0000
  H   H32       1.0  0.09684791765190677  0.5772124950755851  0.1453193984313472  1.0000
  C   C1        1.0  0.4874541492812198  0.30248706369824413  0.6606602236942719  1.0000
  C   C2        1.0  0.8274460988605978  0.1975688921075474  0.3391860218455847  1.0000
  C   C3        1.0  0.5125426926040504  0.6975106852054793  0.3393402998559765  1.0000
  C   C4        1.0  0.17255552639608135  0.8024322629223303  0.6608134243021055  1.0000
  C   C5        1.0  0.4955341930045378  0.4032631055977375  0.5774785297296674  1.0000
  C   C6        1.0  0.9183341237205479  0.09672525621039088  0.42240807513536527  1.0000
  C   C7        1.0  0.5044655053970145  0.5967335078785254  0.42252230156366727  1.0000
  C   C8        1.0  0.0816661291232847  0.903277035745532  0.5775913287431109  1.0000
  C   C9        1.0  0.3195422895341693  0.43467962844762553  0.4959523964317043  1.0000
  C   C10       1.0  0.823712314551578  0.06553824965905619  0.5038867148766856  1.0000
  C   C11       1.0  0.6804591176888478  0.5653192679242877  0.5040499945574979  1.0000
  C   C12       1.0  0.17628782660167266  0.934462903872244  0.4961124657971395  1.0000
  C   C13       1.0  0.3234399493432889  0.5296578466217453  0.41933221048603997  1.0000
  C   C14       1.0  0.9039798898303174  0.9706093218535654  0.5806396584816511  1.0000
  C   C15       1.0  0.6765583779822819  0.47033990832837697  0.5806694263507808  1.0000
  C   C16       1.0  0.09602025132293329  0.0293918316777351  0.419359522192174  1.0000
  O   O1        1.0  0.4305945453700274  0.287186553164716  0.8739854029272321  1.0000
  O   O2        1.0  0.556995411330675  0.21283249766355536  0.12586225541787144  1.0000
  O   O3        1.0  0.5694070825603958  0.7128146109608053  0.1260157388458651  1.0000
  O   O4        1.0  0.4430060995616854  0.787167509846064  0.8741352718997604  1.0000
  O   O5        1.0  0.31147541600447676  0.5160497461543443  0.7929793426373307  1.0000
  O   O6        1.0  0.51895456243804  0.9840278812952404  0.20696418176564185  1.0000
  O   O7        1.0  0.6885201638216429  0.4839502735522245  0.20702051403565494  1.0000
  O   O8        1.0  0.48104557871521064  0.015973272236060196  0.7930349989081833  1.0000
  O   O9        1.0  0.6847398836122806  0.4954632827873267  0.8833136760240806  1.0000
  O   O10       1.0  0.8018243426121144  0.0045257901432194  0.11666071228800227  1.0000
  O   O11       1.0  0.3152588837912446  0.5045390031221969  0.11668461456782346  1.0000
  O   O12       1.0  0.19817717229086176  0.9954742310098581  0.8833393584677368  1.0000
  O   O13       1.0  0.8763976882883425  0.25001878607967837  0.9999915377728357  1.0000
  O   O14       1.0  0.12360223082062295  0.7499800951501924  8.044304387102427e-06  1.0000
  O   O15       1.0  0.17671878611439945  0.13089326368849896  0.1556872527413873  1.0000
  O   O16       1.0  0.020763968336126492  0.3688844457050705  0.8440929506513654  1.0000
  O   O17       1.0  0.8232843245825875  0.869107897387785  0.8443133066928752  1.0000
  O   O18       1.0  0.9792344666694105  0.6311144340262161  0.15590636595199214  1.0000
