data_image0
_chemical_formula_structural       Cu4H48C68I4N12
_chemical_formula_sum              "Cu4 H48 C68 I4 N12"
_cell_length_a       12.917461588285715
_cell_length_b       13.09952425601926
_cell_length_c       13.052957898349547
_cell_angle_alpha    76.05599235844059
_cell_angle_beta     60.34293579428221
_cell_angle_gamma    60.856137367729495

_space_group_name_H-M_alt    "P 1"
_space_group_IT_number       1

loop_
  _space_group_symop_operation_xyz
  'x, y, z'

loop_
  _atom_site_type_symbol
  _atom_site_label
  _atom_site_symmetry_multiplicity
  _atom_site_fract_x
  _atom_site_fract_y
  _atom_site_fract_z
  _atom_site_occupancy
  Cu  Cu1       1.0  0.10423937410449459  0.6129711416985799  0.534910628232609  1.0000
  Cu  Cu2       1.0  0.25190473415732834  0.38790573753520624  0.4662183679176409  1.0000
  Cu  Cu3       1.0  0.35917646850015217  0.5345277920498434  0.3886484277164826  1.0000
  Cu  Cu4       1.0  0.2831793912201872  0.4655122137809542  0.6118916617640551  1.0000
  H   H1        1.0  0.886656865458157  0.43804004418181824  0.0461745145698913  1.0000
  H   H2        1.0  0.37136837988030175  0.5612308669225713  0.9521272006076629  1.0000
  H   H3        1.0  0.06967601146545378  0.047485750127847844  0.558711097337607  1.0000
  H   H4        1.0  0.6751753711897307  0.9527822389821953  0.44102144946410965  1.0000
  H   H5        1.0  0.12177452470127996  0.29609653660714497  0.9390663438535611  1.0000
  H   H6        1.0  0.3563214977872132  0.7045225337980626  0.05997767583880891  1.0000
  H   H7        1.0  0.9405721585928646  0.9400869532093099  0.7019547103730659  1.0000
  H   H8        1.0  0.5822850946900927  0.060277668768129886  0.298488403458272  1.0000
  H   H9        1.0  0.09806639184922965  0.8172064331458626  0.4152135844205986  1.0000
  H   H10       1.0  0.3299905499903204  0.18397429166004997  0.5857778826271415  1.0000
  H   H11       1.0  0.48584724361285214  0.41509021980885313  0.1844230000745526  1.0000
  H   H12       1.0  0.08843705008472806  0.582628217976783  0.8156568958706744  1.0000
  H   H13       1.0  0.05837990072478052  0.020739740431409383  0.3448154342764553  1.0000
  H   H14       1.0  0.4234243696764109  0.9804641518949357  0.6550687471767418  1.0000
  H   H15       1.0  0.5966399496004227  0.345239351470042  0.9793041854985703  1.0000
  H   H16       1.0  0.9241511839965569  0.6525013487142034  0.0206558132803707  1.0000
  H   H17       1.0  0.6076389533725076  0.7913725211480057  0.7779941985104273  1.0000
  H   H18       1.0  0.17742932763960784  0.20754588861332485  0.2232070885783202  1.0000
  H   H19       1.0  0.6142027287155966  0.7773878761782669  0.20896665529117803  1.0000
  H   H20       1.0  0.5996145449487004  0.2230387459080489  0.7912199138681758  1.0000
  H   H21       1.0  0.8392177901091171  0.6368494234880585  0.6778650775140777  1.0000
  H   H22       1.0  0.15432780857301504  0.3629739382149069  0.3236888482990423  1.0000
  H   H23       1.0  0.48117169707139595  0.6775287075400769  0.36532402088939625  1.0000
  H   H24       1.0  0.5239952936745452  0.3222713653828108  0.6350194725023002  1.0000
  H   H25       1.0  0.027751389398325395  0.015569644332877903  0.147947813618643  1.0000
  H   H26       1.0  0.19074755012950084  0.9839478804833777  0.8523084016887736  1.0000
  H   H27       1.0  0.8233559459199353  0.148022953678442  0.9849552210567084  1.0000
  H   H28       1.0  0.9538330013344236  0.8545683611607728  0.014360330453435202  1.0000
  H   H29       1.0  0.7230079155806378  0.3678401042026992  0.205788498787733  1.0000
  H   H30       1.0  0.2978149749760986  0.6304367343991475  0.7925802177474566  1.0000
  H   H31       1.0  0.07268685190820175  0.20700985180447162  0.6295905993405242  1.0000
  H   H32       1.0  0.9073217398493155  0.7945240791367214  0.3693220624270168  1.0000
  H   H33       1.0  0.6499218148110869  0.14652411524854622  0.597171639811755  1.0000
  H   H34       1.0  0.3933901662886611  0.853332878454353  0.4023246390446289  1.0000
  H   H35       1.0  0.754512307018686  0.5970618802293971  0.8513933041990143  1.0000
  H   H36       1.0  0.20315900757407218  0.4024764786064097  0.14926756404462793  1.0000
  H   H37       1.0  0.8345512480238068  0.1853262443288912  0.4386570068171666  1.0000
  H   H38       1.0  0.4581536029965676  0.8152056890506927  0.5605792009799941  1.0000
  H   H39       1.0  0.7280199777435424  0.4390112204349847  0.8127890614446756  1.0000
  H   H40       1.0  0.9816865160393958  0.5595794559021386  0.1874080868764025  1.0000
  H   H41       1.0  0.49938716634834174  0.1143186025315472  0.716939211368647  1.0000
  H   H42       1.0  0.3310674577357203  0.8848519466375111  0.2821515329547069  1.0000
  H   H43       1.0  0.7859589026294954  0.7171438689564059  0.8837188144658157  1.0000
  H   H44       1.0  0.38652815897730614  0.28175030509738974  0.11673047054319602  1.0000
  H   H45       1.0  0.7935337250177382  0.15666602914759417  0.2523782454555743  1.0000
  H   H46       1.0  0.20307470219257293  0.8415571959908379  0.7471347837402149  1.0000
  H   H47       1.0  0.9546376150356082  0.25245250341907893  0.8426020208002996  1.0000
  H   H48       1.0  0.04674259512243108  0.7499065807618809  0.1560188324228164  1.0000
  C   C1        1.0  0.09118588037937769  0.1469455743187069  0.03770765879760771  1.0000
  C   C2        1.0  0.27515741209138134  0.853088837137108  0.9619270307580978  1.0000
  C   C3        1.0  0.8708821083491712  0.03860863045343161  0.8522290579757836  1.0000
  C   C4        1.0  0.7603721471071339  0.9631578204915459  0.1475290551334467  1.0000
  C   C5        1.0  0.9178424548580679  0.34549052451279744  0.06853004650175622  1.0000
  C   C6        1.0  0.33209657689432925  0.6538131438916607  0.930194835145052  1.0000
  C   C7        1.0  0.015400101227406466  0.06958888844116023  0.6520545676801319  1.0000
  C   C8        1.0  0.7359819228619103  0.9312290413292172  0.34754926598718333  1.0000
  C   C9        1.0  0.22941082575746208  0.06266955951338099  0.9785169195464009  1.0000
  C   C10       1.0  0.2698574866605838  0.9377499584699576  0.021440434442105503  1.0000
  C   C11       1.0  0.7908136651437729  0.979484189036832  0.9369531562977329  1.0000
  C   C12       1.0  0.7063761320520854  0.022252735500891952  0.0628534446361044  1.0000
  C   C13       1.0  0.04953852353091989  0.26667305898727284  0.0085276859522381  1.0000
  C   C14       1.0  0.3243205104735121  0.7333196985142864  0.9906388756968526  1.0000
  C   C15       1.0  0.943023705044027  0.00950592847097181  0.7315217042184374  1.0000
  C   C16       1.0  0.6832035914506063  0.9914242835364179  0.2684197810274753  1.0000
  C   C17       1.0  0.7661183593179357  0.9594405674709139  0.6008249769963001  1.0000
  C   C18       1.0  0.3263835022621748  0.04068087653084262  0.39948060773252797  1.0000
  C   C19       1.0  0.6338685379162426  0.6002733262218811  0.040160261125649306  1.0000
  C   C20       1.0  0.2750174744354509  0.3984944154438422  0.9604062762592207  1.0000
  C   C21       1.0  0.8962257850278732  0.8649696378462656  0.5484810479434402  1.0000
  C   C22       1.0  0.3096117579816066  0.1355680164108506  0.4521621883639853  1.0000
  C   C23       1.0  0.5553099078447444  0.5479601523203925  0.1356618804613561  1.0000
  C   C24       1.0  0.24021586772740727  0.45055757598111523  0.8648579322925302  1.0000
  C   C25       1.0  0.0008990881984728325  0.889887852660941  0.4566530425189229  1.0000
  C   C26       1.0  0.34712157125524357  0.11104888090482488  0.5439011525105926  1.0000
  C   C27       1.0  0.5421431530032521  0.45648129221936534  0.1108987076388104  1.0000
  C   C28       1.0  0.11177934290387269  0.541605154296974  0.8894033507027714  1.0000
  C   C29       1.0  0.978352400755803  0.003082492153964625  0.4179729824388474  1.0000
  C   C30       1.0  0.3990395352572804  0.9978373508789034  0.5820117010508028  1.0000
  C   C31       1.0  0.6037969714287642  0.41808305810653235  0.9968135797606905  1.0000
  C   C32       1.0  0.021009986008813455  0.5800137826004247  0.0033826869635831  1.0000
  C   C33       1.0  0.6597804299429482  0.9328792166409274  0.689840688593911  1.0000
  C   C34       1.0  0.28262240365462776  0.06677561568184841  0.3107214408069012  1.0000
  C   C35       1.0  0.6511542391206574  0.689192745321961  0.0666548900848838  1.0000
  C   C36       1.0  0.4069760173850767  0.3100948292605139  0.9338137900539678  1.0000
  C   C37       1.0  0.6869917186854688  0.8155214242321521  0.714327040017821  1.0000
  C   C38       1.0  0.21703605587408248  0.18396481832742503  0.2867261388066851  1.0000
  C   C39       1.0  0.5985846140834069  0.7137157970377217  0.1849396158057672  1.0000
  C   C40       1.0  0.49682905112018705  0.28612272585419873  0.81542944389345  1.0000
  C   C41       1.0  0.8163671530883719  0.7291715009054942  0.6587088604091207  1.0000
  C   C42       1.0  0.20438494068309848  0.2707502878776681  0.3425550200531974  1.0000
  C   C43       1.0  0.524060122201277  0.6581970992768192  0.2722679511072386  1.0000
  C   C44       1.0  0.45467851599525483  0.34134681470913353  0.7281019901887902  1.0000
  C   C45       1.0  0.9973824149129557  0.10816037939916592  0.1256310719464651  1.0000
  C   C46       1.0  0.23076179535062358  0.8913246321708712  0.8741984505044584  1.0000
  C   C47       1.0  0.8767045838716001  0.12606008913440556  0.8915094854841144  1.0000
  C   C48       1.0  0.8921350230250624  0.8761301132897971  0.10788276494857742  1.0000
  C   C49       1.0  0.8258842804922749  0.30633642082563023  0.1573421092360405  1.0000
  C   C50       1.0  0.29012273490548773  0.6924182128424551  0.841492090415322  1.0000
  C   C51       1.0  0.018088202230351985  0.1582435767120458  0.6915915398604469  1.0000
  C   C52       1.0  0.8661278537639913  0.8431731342849033  0.3075670874173468  1.0000
  C   C53       1.0  0.7480924820944496  0.07460844474874047  0.5599832415357966  1.0000
  C   C54       1.0  0.38256215215810113  0.9255369644158196  0.4397519500563547  1.0000
  C   C55       1.0  0.693039007328572  0.5597892058675455  0.9241021195846315  1.0000
  C   C56       1.0  0.17776790677117285  0.43915751501706524  0.07636744215103161  1.0000
  C   C57       1.0  0.8514899420353572  0.09630769847337436  0.47051086279011406  1.0000
  C   C58       1.0  0.41806005670233737  0.9042156202596416  0.5290656413760645  1.0000
  C   C59       1.0  0.6788213143288503  0.47063307790396186  0.9025303272176971  1.0000
  C   C60       1.0  0.05369243235359261  0.5279136222684359  0.0977205985088503  1.0000
  C   C61       1.0  0.5268537563209038  0.024420099635669542  0.7504504693461698  1.0000
  C   C62       1.0  0.3017706435418216  0.9750972436496214  0.2496223738245718  1.0000
  C   C63       1.0  0.7238662144044024  0.7502462730081804  0.9744457054734711  1.0000
  C   C64       1.0  0.44838620572804183  0.24918236830853152  0.0258105098339456  1.0000
  C   C65       1.0  0.8655845251235662  0.18740768264707705  0.1846513336485884  1.0000
  C   C66       1.0  0.2378121343551882  0.8113825839682249  0.8147946941895725  1.0000
  C   C67       1.0  0.9503054719672478  0.18506610538294416  0.8115936161690414  1.0000
  C   C68       1.0  0.9446262284813541  0.8169505818727176  0.18742571881261944  1.0000
  I   I1        1.0  0.18664640697964047  0.5646776665335765  0.3126662433718366  1.0000
  I   I2        1.0  0.06276058785320507  0.4369310523377763  0.6879161627556272  1.0000
  I   I3        1.0  0.4999658437588578  0.3134404705539425  0.4346095958581273  1.0000
  I   I4        1.0  0.2467886544832394  0.6878617943258194  0.5657356607271922  1.0000
  N   N1        1.0  0.3157378369501344  0.09355110456171184  0.8881188641492272  1.0000
  N   N2        1.0  0.29635824156985524  0.9066926861761149  0.1117794228529405  1.0000
  N   N3        1.0  0.7959252786110299  0.8890671826553531  0.9055154140195469  1.0000
  N   N4        1.0  0.5900926485397662  0.11187433383314278  0.09434849070699873  1.0000
  N   N5        1.0  0.9203267607444022  0.750505699974156  0.5819332389346243  1.0000
  N   N6        1.0  0.2527587583151884  0.24993259631419565  0.41914197981015633  1.0000
  N   N7        1.0  0.4969652242062779  0.5814408770401869  0.2509606377835851  1.0000
  N   N8        1.0  0.3302797893887897  0.4175475101055995  0.7494586729338552  1.0000
  N   N9        1.0  0.4391207052415708  0.9994243581468966  0.843731346315117  1.0000
  N   N10       1.0  0.28159270175373763  0.0006856160835297994  0.1568625205708898  1.0000
  N   N11       1.0  0.7167870156177896  0.8437436294806916  7.22909384976e-05  1.0000
  N   N12       1.0  0.5604216179298263  0.15680970173574607  0.9998409832094595  1.0000
