data_image0
_chemical_formula_structural       Cs2H42C36S2O20
_chemical_formula_sum              "Cs2 H42 C36 S2 O20"
_cell_length_a       7.470408517313619
_cell_length_b       8.290226782288217
_cell_length_c       16.992
_cell_angle_alpha    75.69145421581187
_cell_angle_beta     81.74670244679389
_cell_angle_gamma    82.57011996012868

_space_group_name_H-M_alt    "P 1"
_space_group_IT_number       1

loop_
  _space_group_symop_operation_xyz
  'x, y, z'

loop_
  _atom_site_type_symbol
  _atom_site_label
  _atom_site_symmetry_multiplicity
  _atom_site_fract_x
  _atom_site_fract_y
  _atom_site_fract_z
  _atom_site_occupancy
  Cs  Cs1       1.0  0.7025754373364206  0.8510860377060396  0.0694648429479017  1.0000
  Cs  Cs2       1.0  0.297425251269395  0.1489123187896979  0.930535311765695  1.0000
  H   H1        1.0  0.33384113727449005  0.0749940289691367  0.2756576022927391  1.0000
  H   H2        1.0  0.6661594183348852  0.9250055783860773  0.72434182147488  1.0000
  H   H3        1.0  0.4379189595520215  0.8650106053826647  0.29885932347900723  1.0000
  H   H4        1.0  0.5620803764299608  0.1349877511130728  0.701140328087142  1.0000
  H   H5        1.0  0.38323629495328493  0.9614043382515192  0.19676548296235538  1.0000
  H   H6        1.0  0.616762908032257  0.0385952691036877  0.8032340261700668  1.0000
  H   H7        1.0  0.5103316868804058  0.9704480522563728  0.389225861823121  1.0000
  H   H8        1.0  0.48966751610513626  0.0295515550988412  0.6107742358215376  1.0000
  H   H9        1.0  0.6685167342709235  0.0562936798166405  0.4871811008754108  1.0000
  H   H10       1.0  0.33148382133845183  0.9437059275385664  0.5128189114044515  1.0000
  H   H11       1.0  0.0431638346660108  0.2952303550280746  0.2885029329728894  1.0000
  H   H12       1.0  0.9568338826992643  0.7047705031866158  0.7114971076028311  1.0000
  H   H13       1.0  0.8089127980091746  0.2502444448661834  0.6978332809515139  1.0000
  H   H14       1.0  0.19108762460376033  0.7497564133485071  0.3021665888946146  1.0000
  H   H15       1.0  0.0094615216543517  0.3328261874111718  0.7828515844290962  1.0000
  H   H16       1.0  0.9905374153383162  0.667175921662988  0.2171488168603374  1.0000
  H   H17       1.0  0.4255395972875532  0.4119155303017266  0.5745979611485339  1.0000
  H   H18       1.0  0.5744605593325004  0.5880878296319096  0.42540103531788287  1.0000
  H   H19       1.0  0.22171023236177226  0.2542659580785767  0.376409739416026  1.0000
  H   H20       1.0  0.7782891036202101  0.7457323984171609  0.6235905006623739  1.0000
  H   H21       1.0  0.45428682677567167  0.6189240174116577  0.6596548995600814  1.0000
  H   H22       1.0  0.5457177867052038  0.38107558994354906  0.3403448566253857  1.0000
  H   H23       1.0  0.5824689490916554  0.4204076152780657  0.665671043433754  1.0000
  H   H24       1.0  0.4175317395141675  0.5795907412176717  0.33432852276760633  1.0000
  H   H25       1.0  0.48567854964302637  0.5928060715719212  0.8093805801734391  1.0000
  H   H26       1.0  0.514323491586623  0.4071922849238092  0.19061948917536134  1.0000
  H   H27       1.0  0.7024034833731534  0.5889058917286147  0.750069186623108  1.0000
  H   H28       1.0  0.2976000434767768  0.4110912139076461  0.24993093979463046  1.0000
  H   H29       1.0  0.6246125441924517  0.3999648188767821  0.8111736952267635  1.0000
  H   H30       1.0  0.3753869247859711  0.6000322867594787  0.1888266872853634  1.0000
  H   H31       1.0  0.09256472772700158  0.5189891013688452  0.09034084737595548  1.0000
  H   H32       1.0  0.9074358278823738  0.4810105059863687  0.9096591649039071  1.0000
  H   H33       1.0  0.1389125410854319  0.632796048990329  0.0021841551903775845  1.0000
  H   H34       1.0  0.861088147520384  0.3672023075054014  0.9978159995232191  1.0000
  H   H35       1.0  0.6547176510506459  0.7303881052363153  0.8989084954194979  1.0000
  H   H36       1.0  0.34528168493133643  0.26961025125941507  0.1010923331711453  1.0000
  H   H37       1.0  0.4435756797209081  0.7204787964747081  0.9163853142319383  1.0000
  H   H38       1.0  0.5564236562610745  0.2795195600210292  0.08361374882197478  1.0000
  H   H39       1.0  0.2222726825147348  0.768746961899218  0.08454351189104871  1.0000
  H   H40       1.0  0.7777277400982  0.23125389631547213  0.9154563579550796  1.0000
  H   H41       1.0  0.1764046578586047  0.9334601375781657  0.11474895001135373  1.0000
  H   H42       1.0  0.8235945451269372  0.06653946977704807  0.8852511476333048  1.0000
  C   C1        1.0  0.4296504392724073  0.9816807703426207  0.2513848793443501  1.0000
  C   C2        1.0  0.570350116336968  0.0183188370125933  0.7486145444232759  1.0000
  C   C3        1.0  0.68861643144281  0.0818925189742146  0.2832378781922174  1.0000
  C   C4        1.0  0.3113826385462986  0.9181083392404688  0.7167620770187071  1.0000
  C   C5        1.0  0.6273666298795886  0.0418600123336574  0.3669251626070746  1.0000
  C   C6        1.0  0.3726337927333461  0.9581408458810257  0.6330747072390537  1.0000
  C   C7        1.0  0.7181325172812264  0.0885796137280153  0.422600324579598  1.0000
  C   C8        1.0  0.2818666857043226  0.9114199936271985  0.5773997730650676  1.0000
  C   C9        1.0  0.8709907078910248  0.1791881215246107  0.3971414765147827  1.0000
  C   C10       1.0  0.12900700947424323  0.8208127366900797  0.6028585640609379  1.0000
  C   C11       1.0  0.9303204830929203  0.2195320921744681  0.3128210020820177  1.0000
  C   C12       1.0  0.06967871989262159  0.7804675151807459  0.6871790955626407  1.0000
  C   C13       1.0  0.8439458311911281  0.1704658784048547  0.2566137586004942  1.0000
  C   C14       1.0  0.1560544584253734  0.8295362306693048  0.7433859688118928  1.0000
  C   C15       1.0  0.9671974525075058  0.2300493186409653  0.45570033376206004  1.0000
  C   C16       1.0  0.0328016174815957  0.7699515395737251  0.5442996214488645  1.0000
  C   C17       1.0  0.880918867328063  0.2434973088575845  0.5376883073437496  1.0000
  C   C18       1.0  0.11907749741337167  0.7565035493571057  0.46231181859676707  1.0000
  C   C19       1.0  0.999533395663228  0.2873849644003528  0.5887917972009334  1.0000
  C   C20       1.0  0.00046702694971400486  0.7126158938143377  0.41120807264518794  1.0000
  C   C21       1.0  0.9427592298545376  0.2880128958568448  0.6716011536977646  1.0000
  C   C22       1.0  0.0572382215178493  0.7119904640767913  0.3283986020104877  1.0000
  C   C23       1.0  0.05382324871002448  0.3331213902472925  0.7188663445105661  1.0000
  C   C24       1.0  0.94617311603141  0.6668794679673979  0.28113319291771427  1.0000
  C   C25       1.0  0.22855425565298046  0.3809129782117893  0.6844068325977943  1.0000
  C   C26       1.0  0.7714446813396802  0.6190891308623705  0.315592980179396  1.0000
  C   C27       1.0  0.2900829337402299  0.3818748891481292  0.6027635539450882  1.0000
  C   C28       1.0  0.7099161362488785  0.6181259690665541  0.39723581275359265  1.0000
  C   C29       1.0  0.17516416738802576  0.3315590667629138  0.5574279123521961  1.0000
  C   C30       1.0  0.824834769604635  0.6684430423112531  0.4425719004249942  1.0000
  C   C31       1.0  0.1431568877216378  0.2667432813425279  0.433997079118555  1.0000
  C   C32       1.0  0.8568436678877375  0.7332563260126861  0.5660029331613075  1.0000
  C   C33       1.0  0.4932868224470183  0.4992655491657345  0.7015859719722641  1.0000
  C   C34       1.0  0.5067138661587975  0.500732807330003  0.2984141827413325  1.0000
  C   C35       1.0  0.581166061317333  0.5215608684496118  0.772307502369074  1.0000
  C   C36       1.0  0.4188361129087568  0.4784362371866493  0.227693297925704  1.0000
  S   S1        1.0  0.9298979819824138  0.22367118617751194  0.15102266102983458  1.0000
  S   S2        1.0  0.0701052788746281  0.7763284211776948  0.848977769032679  1.0000
  O   O1        1.0  0.0916073787242055  0.6366874728173144  0.05907185418384838  1.0000
  O   O2        1.0  0.9083931768851699  0.3633121345378925  0.940928158096014  1.0000
  O   O3        1.0  0.54676213078411  0.7550800712744561  0.9357239330655603  1.0000
  O   O4        1.0  0.4532374711907536  0.2449157835023286  0.0642765918803079  1.0000
  O   O5        1.0  0.2805889444844993  0.857704335188707  0.09876258732246157  1.0000
  O   O6        1.0  0.719411611124876  0.1422952721665069  0.9012374249574009  1.0000
  O   O7        1.0  0.6051597680495815  0.042593015986057  0.22551345284111332  1.0000
  O   O8        1.0  0.3948407875597936  0.957406591369157  0.7744865594387562  1.0000
  O   O9        1.0  0.7183922133384824  0.2198423053242848  0.5632759678348477  1.0000
  O   O10       1.0  0.28161051553280453  0.7801623054688278  0.43672212695599905  1.0000
  O   O11       1.0  0.24543990358430529  0.3220925622554844  0.47929018998645745  1.0000
  O   O12       1.0  0.7545579467774033  0.6779070450997295  0.5207105815352406  1.0000
  O   O13       1.0  0.32871748630373787  0.4196370858414156  0.7364334722488267  1.0000
  O   O14       1.0  0.6712813176924897  0.5803662740922204  0.2635656095823861  1.0000
  O   O15       1.0  0.09379935995428919  0.3091474175478481  0.1474845386589365  1.0000
  O   O16       1.0  0.9062039009027529  0.6908521898073656  0.8525176569403  1.0000
  O   O17       1.0  0.7872112010481729  0.3356844013117381  0.10727809922700259  1.0000
  O   O18       1.0  0.21279219280531692  0.6643139551839994  0.892722473269245  1.0000
  O   O19       1.0  0.9716825460431835  0.0658139712815  0.12444728314184057  1.0000
  O   O20       1.0  0.028318142562632397  0.9341843852142373  0.8755540485962428  1.0000
