data_image0
_chemical_formula_structural       Al2H9C20S4O16F
_chemical_formula_sum              "Al2 H9 C20 S4 O16 F1"
_cell_length_a       6.659940467525256
_cell_length_b       11.050338047921004
_cell_length_c       12.528328947216293
_cell_angle_alpha    89.59599729054449
_cell_angle_beta     77.98922079109421
_cell_angle_gamma    74.75402095115862

_space_group_name_H-M_alt    "P 1"
_space_group_IT_number       1

loop_
  _space_group_symop_operation_xyz
  'x, y, z'

loop_
  _atom_site_type_symbol
  _atom_site_label
  _atom_site_symmetry_multiplicity
  _atom_site_fract_x
  _atom_site_fract_y
  _atom_site_fract_z
  _atom_site_occupancy
  Al  Al1       1.0  0.5046241371831144  0.49574571925980143  0.5000690455975842  1.0000
  Al  Al2       1.0  0.99933053600148  0.5022071339063315  0.5014496540040909  1.0000
  H   H1        1.0  0.22662286066942278  0.4371365716584135  0.6280346457466237  1.0000
  H   H2        1.0  0.7558374673037137  0.6010137878257708  0.3882743733178842  1.0000
  H   H3        1.0  0.7428466656410536  0.48472135503560315  0.1615914893772725  1.0000
  H   H4        1.0  0.23470199222294494  0.22269682828549975  0.33415642835070974  1.0000
  H   H5        1.0  0.46842987654321905  0.7641209795566295  0.3627879355214958  1.0000
  H   H6        1.0  0.7693984090850423  0.8842510993520492  0.5862581480318312  1.0000
  H   H7        1.0  0.6527089099065153  0.1178437826420904  0.5779379951942686  1.0000
  H   H8        1.0  0.6432284539690089  0.2958216475441802  0.3022258238636226  1.0000
  H   H9        1.0  0.7016229436275694  0.7610884897173377  0.08601711252467231  1.0000
  C   C1        1.0  0.8716697113420652  0.2717526902092117  0.4862815170109442  1.0000
  C   C2        1.0  0.6565319256219979  0.5195610219923735  0.6973365839779717  1.0000
  C   C3        1.0  0.14027219785616993  0.7265424268556161  0.4994581709038854  1.0000
  C   C4        1.0  0.34560842218920834  0.49044052584951464  0.30359055067881974  1.0000
  C   C5        1.0  0.39617070742303195  0.5399854442947998  0.8812511729600274  1.0000
  C   C6        1.0  0.6032706189751238  0.5014262255044956  0.12582327549505834  1.0000
  C   C7        1.0  0.5982319866314967  0.5250544950253441  0.8166082643956828  1.0000
  C   C8        1.0  0.3999700497750141  0.5111511963906707  0.18710445189631028  1.0000
  C   C9        1.0  0.600718454578484  0.512505928751345  0.013929220382806288  1.0000
  C   C10       1.0  0.3943876996620616  0.5317586009852987  0.9934844151479325  1.0000
  C   C11       1.0  0.9452812887801798  0.13134559731817316  0.4769653001126811  1.0000
  C   C12       1.0  0.15120309382469796  0.0641009825871706  0.41597204628084944  1.0000
  C   C13       1.0  0.8109698268150468  0.0653581206751639  0.5345544686999304  1.0000
  C   C14       1.0  0.2880999886357218  0.12245576050386828  0.34401878093372323  1.0000
  C   C15       1.0  0.4844177203170901  0.056530062855102904  0.2835379918723788  1.0000
  C   C16       1.0  0.07990370465204681  0.8661374432139225  0.48799246232247373  1.0000
  C   C17       1.0  0.8769649512473524  0.9341918025682715  0.5398031946443638  1.0000
  C   C18       1.0  0.21853363066448164  0.9304351317321317  0.4226765250705498  1.0000
  C   C19       1.0  0.41855449981585474  0.8650189723722478  0.3588802372228771  1.0000
  C   C20       1.0  0.5515922707426313  0.9240579598523622  0.29211949247326174  1.0000
  S   S1        1.0  0.7909755245677771  0.5029953546661973  0.8949997760841696  1.0000
  S   S2        1.0  0.20535862158469342  0.5359841417667538  0.11023876176877681  1.0000
  S   S3        1.0  0.6234401090229156  0.14905391079435049  0.19283840002216124  1.0000
  S   S4        1.0  0.7976907599995468  0.8174706575605202  0.22525604815025707  1.0000
  O   O1        1.0  0.6716038627747379  0.32333288322009685  0.5070200413553891  1.0000
  O   O2        1.0  0.853385190429961  0.5014814011784949  0.6520470175972619  1.0000
  O   O3        1.0  0.9858205460438043  0.6762409199392109  0.5215450201107714  1.0000
  O   O4        1.0  0.5045351465231035  0.45138128699606034  0.3510640322992771  1.0000
  O   O5        1.0  0.3369410377144461  0.6676834719167388  0.48581224540327383  1.0000
  O   O6        1.0  0.15165073676445934  0.5095099994290777  0.3511248947799146  1.0000
  O   O7        1.0  0.016008197063435085  0.32942239152600183  0.47712371898289524  1.0000
  O   O8        1.0  0.5040370797764666  0.5309928827221454  0.6478321435928366  1.0000
  O   O9        1.0  0.2537869487086511  0.44903778687393736  0.550006647855902  1.0000
  O   O10       1.0  0.7481631797176362  0.5487404771361212  0.45151030054858415  1.0000
  O   O11       1.0  0.734673263590075  0.21120400527612299  0.27057101467796235  1.0000
  O   O12       1.0  0.7917063730221229  0.06925498633251688  0.11394612439923434  1.0000
  O   O13       1.0  0.4610256972031124  0.2464777227826573  0.15904895683641482  1.0000
  O   O14       1.0  0.7879595470980477  0.8172289273847042  0.09804306585916579  1.0000
  O   O15       1.0  0.975878782003619  0.8626273838322333  0.23466189018678563  1.0000
  O   O16       1.0  0.7878474448893088  0.6935785491557453  0.26101395124500476  1.0000
  F   F1        1.0  0.2173737415189976  0.5592362549026008  0.8424208115848374  1.0000
