data_image0
_chemical_formula_structural       Cd2H40C28N8O16
_chemical_formula_sum              "Cd2 H40 C28 N8 O16"
_cell_length_a       7.255601316750997
_cell_length_b       9.091407617214454
_cell_length_c       13.359747376003028
_cell_angle_alpha    89.99997020543456
_cell_angle_beta     90.00007243292919
_cell_angle_gamma    96.36931828696294

_space_group_name_H-M_alt    "P 1"
_space_group_IT_number       1

loop_
  _space_group_symop_operation_xyz
  'x, y, z'

loop_
  _atom_site_type_symbol
  _atom_site_label
  _atom_site_symmetry_multiplicity
  _atom_site_fract_x
  _atom_site_fract_y
  _atom_site_fract_z
  _atom_site_occupancy
  Cd  Cd1       1.0  0.4999985657949821  0.5000008302287569  0.4999998040375857  1.0000
  Cd  Cd2       1.0  4.7098022547712293e-07  0.49999763595258157  0.9999993600184142  1.0000
  H   H1        1.0  0.7310083133572647  0.6629250933939234  0.3418224608364185  1.0000
  H   H2        1.0  0.7689911816558136  0.3370751206652188  0.8418222548117742  1.0000
  H   H3        1.0  0.2689912482539256  0.33707434003382997  0.6581763987228088  1.0000
  H   H4        1.0  0.23100854222467862  0.6629254195129165  0.15817735326445612  1.0000
  H   H5        1.0  0.8802261711406347  0.6016004903347678  0.41334558075681843  1.0000
  H   H6        1.0  0.6197734883027338  0.39839968326166536  0.9133452529215661  1.0000
  H   H7        1.0  0.11977476775090419  0.39839893632838397  0.5866540273200159  1.0000
  H   H8        1.0  0.3802262355777657  0.6016008569164695  0.0866543551546641  1.0000
  H   H9        1.0  0.5378853678974452  0.510495875682402  0.7354324104238401  1.0000
  H   H10       1.0  0.9621112902377861  0.4895055188437284  0.23543358119532345  1.0000
  H   H11       1.0  0.46210763185148107  0.4895058050689369  0.2645649520984961  1.0000
  H   H12       1.0  0.037896697319624216  0.5104949807480282  0.764566026883692  1.0000
  H   H13       1.0  0.5588686606457998  0.6892107628260502  0.875295809181452  1.0000
  H   H14       1.0  0.9411250776670174  0.31078724585264433  0.3752955316391677  1.0000
  H   H15       1.0  0.44112401456882105  0.31078870442347306  0.1247037988926039  1.0000
  H   H16       1.0  0.05888137034332171  0.6892121537527061  0.6247048249566732  1.0000
  H   H17       1.0  0.5620639335260478  0.04008365657080049  0.656481906550276  1.0000
  H   H18       1.0  0.9379351353927918  0.9599166623408523  0.15648214720916806  1.0000
  H   H19       1.0  0.4379362771597784  0.959920203859113  0.343517701525542  1.0000
  H   H20       1.0  0.06206531669341331  0.0400794440705283  0.8435174608680855  1.0000
  H   H21       1.0  0.5432413671443895  0.8437827441815458  0.5236678703546005  1.0000
  H   H22       1.0  0.9567603132667415  0.15621874308821757  0.023669903197927104  1.0000
  H   H23       1.0  0.45675625124918895  0.15622223652816555  0.4763302406858544  1.0000
  H   H24       1.0  0.0432459724742955  0.8437795497667507  0.9763297048809039  1.0000
  H   H25       1.0  0.6977235669249497  0.06554215163605902  0.856777651204176  1.0000
  H   H26       1.0  0.8022744229223447  0.9344569539761948  0.35677780966616984  1.0000
  H   H27       1.0  0.3022785869793481  0.9344561615116832  0.1432234539075665  1.0000
  H   H28       1.0  0.1977225464009038  0.0655435997303115  0.643223295443427  1.0000
  H   H29       1.0  0.4626037916344217  0.07395247292915738  0.8365511403758035  1.0000
  H   H30       1.0  0.037393654366283585  0.926047199234368  0.33655262086326604  1.0000
  H   H31       1.0  0.5373976340641703  0.9260502739853396  0.1634499647349159  1.0000
  H   H32       1.0  0.9626057449816231  0.073951127441525  0.6634507297989886  1.0000
  H   H33       1.0  0.401674095410776  0.8522241061828807  0.9628602577321034  1.0000
  H   H34       1.0  0.09832226369157838  0.1477755012885709  0.4628605556870085  1.0000
  H   H35       1.0  0.5983227116423038  0.1477753407734568  0.0371393503433453  1.0000
  H   H36       1.0  0.901677297923051  0.8522239321383366  0.5371412979408063  1.0000
  H   H37       1.0  0.6384468411675286  0.8844737026065557  0.9927748194125103  1.0000
  H   H38       1.0  0.8615487067771852  0.11552533959655878  0.4927760540744758  1.0000
  H   H39       1.0  0.3615484263384802  0.11552464436336854  0.007225537179756701  1.0000
  H   H40       1.0  0.1384511793743428  0.8844763073315322  0.507225799553062  1.0000
  C   C1        1.0  0.5462922910749128  0.629041922127449  0.7206888501549004  1.0000
  C   C2        1.0  0.9537027936146599  0.3709583807539829  0.22068781139562083  1.0000
  C   C3        1.0  0.4536994936672798  0.3709608721378217  0.2793122549525648  1.0000
  C   C4        1.0  0.04630316759034511  0.6290376985995962  0.7793125452006395  1.0000
  C   C5        1.0  0.5571094938987146  0.7305043668439594  0.7988549846575453  1.0000
  C   C6        1.0  0.942886985506256  0.2694947783011585  0.2988554713299152  1.0000
  C   C7        1.0  0.4428876376921167  0.2694972936133481  0.2011453719347713  1.0000
  C   C8        1.0  0.0571206775168491  0.7305035077887821  0.7011463823008273  1.0000
  C   C9        1.0  0.5608806991789591  0.8816849208017531  0.7780641470593892  1.0000
  C   C10       1.0  0.9391231056336339  0.11831752253449682  0.2780669298918426  1.0000
  C   C11       1.0  0.43912105105308535  0.11832003961477261  0.22193396398245113  1.0000
  C   C12       1.0  0.06087750872359271  0.8816796906268322  0.7219349237367183  1.0000
  C   C13       1.0  0.5581566850629117  0.9233919555085492  0.6768406678951919  1.0000
  C   C14       1.0  0.9418424306590084  0.0766083518858807  0.1768397246310656  1.0000
  C   C15       1.0  0.44184214834515256  0.07661191168532609  0.3231604372144545  1.0000
  C   C16       1.0  0.05815372731942861  0.9233866680683036  0.823159134927792  1.0000
  C   C17       1.0  0.5481083302357632  0.8158176086987651  0.6028916803352047  1.0000
  C   C18       1.0  0.9518932077683432  0.18418162025162835  0.10288995749333203  1.0000
  C   C19       1.0  0.4518905031723008  0.1841862584951102  0.39710942477444183  1.0000
  C   C20       1.0  0.0481099988751126  0.8158144726313806  0.8971081535505618  1.0000
  C   C21       1.0  0.5624641425874229  0.9969329507827567  0.8584458867944776  1.0000
  C   C22       1.0  0.9375340133631768  0.0030672606364135  0.3584457150030716  1.0000
  C   C23       1.0  0.4375383358537591  0.003067575866168699  0.1415552183169808  1.0000
  C   C24       1.0  0.062462955959205084  0.996933293070306  0.64155464158938  1.0000
  C   C25       1.0  0.5204911461113539  0.9386738479035369  0.9640257236521351  1.0000
  C   C26       1.0  0.9795027961901467  0.061324110577991996  0.4640255595817706  1.0000
  C   C27       1.0  0.479505336406561  0.06132338555119081  0.035975381457888006  1.0000
  C   C28       1.0  0.02049555041172366  0.9386764363643247  0.5359747970111428  1.0000
  N   N1        1.0  0.5406765203042453  0.6701839108016473  0.6241054279172148  1.0000
  N   N2        1.0  0.9593238514613845  0.3298164196618671  0.12410590442863173  1.0000
  N   N3        1.0  0.4593206112865786  0.3298177496556605  0.3758949286750948  1.0000
  N   N4        1.0  0.0406851888403494  0.6701818596638915  0.8758952006854273  1.0000
  N   N5        1.0  0.2160894102440736  0.6582749453883849  0.3669844411120593  1.0000
  N   N6        1.0  0.2839110225486152  0.3417258027801894  0.8669849919937961  1.0000
  N   N7        1.0  0.78391185318349  0.3417266947761561  0.6330144184473455  1.0000
  N   N8        1.0  0.7160885390625752  0.6582736306475709  0.1330138675654311  1.0000
  O   O1        1.0  0.3858917926469089  0.6932402281839957  0.3900560360531742  1.0000
  O   O2        1.0  0.11410869318600453  0.3067605069325269  0.8900557366232462  1.0000
  O   O3        1.0  0.6141080935020328  0.30676141874472757  0.609943572022921  1.0000
  O   O4        1.0  0.8858924079739767  0.6932400264812131  0.10994387145345291  1.0000
  O   O5        1.0  0.1148669667541071  0.5719159806053895  0.42422652263961425  1.0000
  O   O6        1.0  0.3851334353678908  0.428083628429249  0.924226362657123  1.0000
  O   O7        1.0  0.8851341344067407  0.4280845528081371  0.5757738339542301  1.0000
  O   O8        1.0  0.6148659639748574  0.5719146982479161  0.07577249690224622  1.0000
  O   O9        1.0  0.15024824039132065  0.7093029754832543  0.28857349621718953  1.0000
  O   O10       1.0  0.34975201213516977  0.2906978170449007  0.7885733607548817  1.0000
  O   O11       1.0  0.8497514834883191  0.29069756469509406  0.7114253633418954  1.0000
  O   O12       1.0  0.6502490890239513  0.7093027163690521  0.2114254988046653  1.0000
  O   O13       1.0  0.7524893803723599  0.6306574982290059  0.4106403917669823  1.0000
  O   O14       1.0  0.7475090578408867  0.36934379041279186  0.9106401599671585  1.0000
  O   O15       1.0  0.24750880395934158  0.3693419419631425  0.5893584677917829  1.0000
  O   O16       1.0  0.2524894510285662  0.6306578632803337  0.0893594481084747  1.0000
