data_image0
_chemical_formula_structural       CuH32C32N4Cl2O2
_chemical_formula_sum              "Cu1 H32 C32 N4 Cl2 O2"
_cell_length_a       8.939133594599554
_cell_length_b       8.937766087141682
_cell_length_c       11.327288991054637
_cell_angle_alpha    91.33267480018839
_cell_angle_beta     112.64398421754231
_cell_angle_gamma    118.87068618921558

_space_group_name_H-M_alt    "P 1"
_space_group_IT_number       1

loop_
  _space_group_symop_operation_xyz
  'x, y, z'

loop_
  _atom_site_type_symbol
  _atom_site_label
  _atom_site_symmetry_multiplicity
  _atom_site_fract_x
  _atom_site_fract_y
  _atom_site_fract_z
  _atom_site_occupancy
  Cu  Cu1       1.0  0.10067122661993717  0.6008171887198088  0.4999251611085996  1.0000
  H   H1        1.0  0.10028937227797034  0.8114543380025198  0.7105489404426779  1.0000
  H   H2        1.0  0.10090930722474671  0.3898703105050032  0.2893284601571367  1.0000
  H   H3        1.0  0.7159066220496443  0.5091052531714196  0.3249045824270028  1.0000
  H   H4        1.0  0.18433294130042555  0.39144517601656054  0.6749846172636965  1.0000
  H   H5        1.0  0.4584873012998756  0.5370940496713744  0.33524672066190675  1.0000
  H   H6        1.0  0.20191301925249414  0.1235518250356904  0.6647133881197504  1.0000
  H   H7        1.0  0.5349603486762504  0.7307376954536481  0.5435257256327051  1.0000
  H   H8        1.0  0.18712791206628773  0.9915388368002598  0.45647246586117535  1.0000
  H   H9        1.0  0.9607911312287243  0.0548417461194717  0.7535653928741652  1.0000
  H   H10       1.0  0.3014459873687656  0.20722593674593534  0.246572185078314  1.0000
  H   H11       1.0  0.7505657775157673  0.9001646592357346  0.763506420447932  1.0000
  H   H12       1.0  0.1367077292393547  0.9870218221626319  0.236585136074794  1.0000
  H   H13       1.0  0.008149333586452244  0.8072526034055372  0.05449667939861066  1.0000
  H   H14       1.0  0.7529233724523651  0.9537053007430814  0.9455351946229485  1.0000
  H   H15       1.0  0.6280938053077565  0.6437532144543641  0.8033874786489009  1.0000
  H   H16       1.0  0.8403651299415102  0.8246354109117177  0.19656254764467465  1.0000
  H   H17       1.0  0.7779606387883076  0.5585437407836478  0.8573270730354707  1.0000
  H   H18       1.0  0.7014022965165696  0.9207815224887101  0.14268085128063757  1.0000
  H   H19       1.0  0.5036066159296055  0.4114398369567099  0.9141674248490759  1.0000
  H   H20       1.0  0.497101540628023  0.589583493542122  0.08559900148173231  1.0000
  H   H21       1.0  0.7257728711050576  0.5234469210297092  0.057999352346726596  1.0000
  H   H22       1.0  0.46557400401707133  0.6680320533933184  0.9418463180979159  1.0000
  H   H23       1.0  0.5247221069165916  0.27857943219889586  0.11595684833693545  1.0000
  H   H24       1.0  0.16266211904765276  0.40870841050337964  0.8840107617170931  1.0000
  H   H25       1.0  0.7517461169351237  0.2761129473071194  0.32913175924260685  1.0000
  H   H26       1.0  0.9467518389968674  0.4223462886838262  0.6708288913815679  1.0000
  H   H27       1.0  0.6781342727109987  0.9920065542740701  0.3912830681469758  1.0000
  H   H28       1.0  0.6005627883330648  0.28651908423341876  0.608791820244953  1.0000
  H   H29       1.0  0.38450430924374507  0.708061085931476  0.23121745188820603  1.0000
  H   H30       1.0  0.47698905710872447  0.15319459530702062  0.7690059531540356  1.0000
  H   H31       1.0  0.16597305778547175  0.7107876979361903  0.02110778974772396  1.0000
  H   H32       1.0  0.6900590347629674  0.14497840887969454  0.9791169814587023  1.0000
  C   C1        1.0  0.956926557620861  0.7572647346941253  0.6302183514142145  1.0000
  C   C2        1.0  0.12707380983150068  0.3268990383460136  0.3696835924847122  1.0000
  C   C3        1.0  0.740110529254494  0.5834754401610452  0.4145497005252992  1.0000
  C   C4        1.0  0.1690986229088338  0.3259599256836907  0.585383604421267  1.0000
  C   C5        1.0  0.5988970511451727  0.604012375311754  0.4210238247991073  1.0000
  C   C6        1.0  0.183062384926707  0.17818677467555233  0.5789375694427221  1.0000
  C   C7        1.0  0.6422999060419131  0.7104136216627382  0.5357472369005123  1.0000
  C   C8        1.0  0.1746060853339699  0.1067047024322036  0.4642230626128097  1.0000
  C   C9        1.0  0.8256321598712759  0.7914704768215657  0.6422240855563288  1.0000
  C   C10       1.0  0.1492357625481588  0.18352887071549154  0.3577288172788471  1.0000
  C   C11       1.0  0.8809885664677637  0.9196826786765727  0.7626382193380934  1.0000
  C   C12       1.0  0.15716631124960398  0.11837201386457248  0.2374133993268117  1.0000
  C   C13       1.0  0.9052076048388146  0.8209227193854575  0.9711303327762553  1.0000
  C   C14       1.0  0.8499163854149288  0.9341129747412468  0.028912297373771975  1.0000
  C   C15       1.0  0.7304518924702847  0.6353997793416253  0.8920237268189127  1.0000
  C   C16       1.0  0.7434531341705509  0.8384941774689025  0.10796475854288451  1.0000
  C   C17       1.0  0.6285934963040063  0.5435026883043504  0.9739441438263371  1.0000
  C   C18       1.0  0.5695317734880375  0.6547868733065838  0.025931833309627464  1.0000
  C   C19       1.0  0.19417932988577746  0.0070371254095391985  0.9322047460359499  1.0000
  C   C20       1.0  0.07511685121692578  0.26203318413585913  0.0678420425794712  1.0000
  C   C21       1.0  0.3251997323852295  0.9967485943298868  0.05812698894407491  1.0000
  C   C22       1.0  0.9388222336852721  0.2671204394313308  0.9419631168993804  1.0000
  C   C23       1.0  0.49442411942033  0.1549673663769155  0.1439333380341807  1.0000
  C   C24       1.0  0.011109579645022943  0.35043587460267395  0.856089722347825  1.0000
  C   C25       1.0  0.6203181621834374  0.1528826941796098  0.263287249066579  1.0000
  C   C26       1.0  0.8895063232587219  0.3568441727603044  0.7367390065107813  1.0000
  C   C27       1.0  0.5799003068869197  0.9932629382169151  0.29759038678781025  1.0000
  C   C28       1.0  0.6956253449120099  0.282089649046256  0.7024937551210471  1.0000
  C   C29       1.0  0.4163299794402064  0.8348713494693597  0.20963569495983592  1.0000
  C   C30       1.0  0.6253430787448764  0.20658118731996922  0.7905235944261477  1.0000
  C   C31       1.0  0.29040998769247045  0.8362053886966478  0.08998572774255827  1.0000
  C   C32       1.0  0.7464691134560085  0.20046575068677444  0.9101762507410174  1.0000
  N   N1        1.0  0.9155796019831399  0.6566792223811788  0.518335667340871  1.0000
  N   N2        1.0  0.1383948563716331  0.39751359393211766  0.48153553823708267  1.0000
  N   N3        1.0  0.00011654735629915666  0.9085141993459445  0.8897602227998006  1.0000
  N   N4        1.0  0.018945552485071498  0.1103803899936722  0.11025780086173143  1.0000
  Cl  Cl1       1.0  0.3391983185379672  0.7425029656523421  0.7049663604678642  1.0000
  Cl  Cl2       1.0  0.03727465027541396  0.6343255555560744  0.29490568873888634  1.0000
  O   O1        1.0  0.26333257869070076  0.10349904976151689  0.8658816473902534  1.0000
  O   O2        1.0  0.23791327139225169  0.39745115560326394  0.13415790007471176  1.0000
