data_image0
_chemical_formula_structural       Cd3H46C36N2O26
_chemical_formula_sum              "Cd3 H46 C36 N2 O26"
_cell_length_a       10.964420770365278
_cell_length_b       11.156928700437408
_cell_length_c       11.685690071621199
_cell_angle_alpha    76.2367936521991
_cell_angle_beta     70.60433497306808
_cell_angle_gamma    72.24986619776439

_space_group_name_H-M_alt    "P 1"
_space_group_IT_number       1

loop_
  _space_group_symop_operation_xyz
  'x, y, z'

loop_
  _atom_site_type_symbol
  _atom_site_label
  _atom_site_symmetry_multiplicity
  _atom_site_fract_x
  _atom_site_fract_y
  _atom_site_fract_z
  _atom_site_occupancy
  Cd  Cd1       1.0  0.7635631592902286  0.053739656726342795  0.9203609259928812  1.0000
  Cd  Cd2       1.0  0.23643872096067045  0.9462609921247987  0.07963937058411834  1.0000
  Cd  Cd3       1.0  2.5696111763293758e-06  0.5000009083492003  0.9999995614430406  1.0000
  H   H1        1.0  0.35815734840130636  0.9141609608752006  0.4839845222827677  1.0000
  H   H2        1.0  0.6418449531553989  0.085845516900136  0.5160175836810481  1.0000
  H   H3        1.0  0.4146165155155401  0.697007093105448  0.8279893794998049  1.0000
  H   H4        1.0  0.5853826798868269  0.30299645063234937  0.17201275181361816  1.0000
  H   H5        1.0  0.7578232797043896  0.7284189429828203  0.5130461045176915  1.0000
  H   H6        1.0  0.24217693212116845  0.2715808723272914  0.48695921733769154  1.0000
  H   H7        1.0  0.48242353723322406  0.03467873688969549  0.3342148497771262  1.0000
  H   H8        1.0  0.5175751453674592  0.9653266054053519  0.6657835641393106  1.0000
  H   H9        1.0  0.46111726376353374  0.9001934423061896  0.2931965251943396  1.0000
  H   H10       1.0  0.5388906693992013  0.09980642520510938  0.7068063165463202  1.0000
  H   H11       1.0  0.14322254882494437  0.9185226725150457  0.5826519708862961  1.0000
  H   H12       1.0  0.8567740019687166  0.08147987358077559  0.41735040261743006  1.0000
  H   H13       1.0  0.19772413541178221  0.021608499620782602  0.641045276863146  1.0000
  H   H14       1.0  0.8022699685738246  0.978395779456733  0.3589523015714705  1.0000
  H   H15       1.0  0.5763584688524548  0.512607791300816  0.8661788790897589  1.0000
  H   H16       1.0  0.42364149024432873  0.4873929758132007  0.13382628176793784  1.0000
  H   H17       1.0  0.5666158680820744  0.6523516337671893  0.9193781481748644  1.0000
  H   H18       1.0  0.43338769161038476  0.347650006200773  0.08062221622616761  1.0000
  H   H19       1.0  0.8256977634709841  0.2791048894374981  0.7190105942776841  1.0000
  H   H20       1.0  0.17429928727211325  0.7208956742626355  0.28098955467020664  1.0000
  H   H21       1.0  0.7262276820995694  0.4497744525501659  0.5715059041452477  1.0000
  H   H22       1.0  0.27376702067550707  0.550220321700742  0.42849475314530866  1.0000
  H   H23       1.0  0.3437720606039179  0.37141777612141874  0.7741683216277552  1.0000
  H   H24       1.0  0.6562322130894104  0.6285626026461486  0.22582779743962791  1.0000
  H   H25       1.0  0.459025070396507  0.20564339777690321  0.9169402827728917  1.0000
  H   H26       1.0  0.5409803443851332  0.7943438732944446  0.08306057007089858  1.0000
  H   H27       1.0  0.4713141534870714  0.6111851782892758  0.5680591124278465  1.0000
  H   H28       1.0  0.5286718737998939  0.38880969481110117  0.4319494280941996  1.0000
  H   H29       1.0  0.3584027713997742  0.5183228695040896  0.5904901985445505  1.0000
  H   H30       1.0  0.6415872098876961  0.48166442847806207  0.4095198587807118  1.0000
  H   H31       1.0  0.7544724569504098  0.8108702693951385  0.8981518899613976  1.0000
  H   H32       1.0  0.24552605523720672  0.1891282659091829  0.1018440267155043  1.0000
  H   H33       1.0  0.61690193394076  0.9019933101159053  0.8738398276175448  1.0000
  H   H34       1.0  0.38309779614277767  0.09800427990967359  0.12615594004270042  1.0000
  H   H35       1.0  0.7944819139569006  0.2688307011492057  0.996859603512789  1.0000
  H   H36       1.0  0.20551747557404812  0.7311755206869818  0.003135792840410542  1.0000
  H   H37       1.0  0.8943143460325376  0.1459585574265816  0.04576357543676572  1.0000
  H   H38       1.0  0.10568839320134775  0.8540495153300897  0.9542277123124878  1.0000
  H   H39       1.0  0.06235047396133107  0.22191938043065548  0.04592059345504402  1.0000
  H   H40       1.0  0.9376521077117348  0.7780820691737204  0.9540741390075027  1.0000
  H   H41       1.0  0.16015557258376845  0.2347803911764927  0.916291591513023  1.0000
  H   H42       1.0  0.8398416759599812  0.7652229031473042  0.08370352017544747  1.0000
  H   H43       1.0  0.21890577116908358  0.5788853840686912  0.8775103805103586  1.0000
  H   H44       1.0  0.7810989954030845  0.4211151530447239  0.12248474177159353  1.0000
  H   H45       1.0  0.13714376104622514  0.657835346630236  0.7837830388821132  1.0000
  H   H46       1.0  0.862854256700054  0.3421652498576718  0.2162176489018392  1.0000
  C   C1        1.0  0.5638661721585124  0.8247613099034792  0.4850726089532388  1.0000
  C   C2        1.0  0.43613474843335365  0.17523941121041275  0.5149305441893047  1.0000
  C   C3        1.0  0.42501154072612485  0.8558005349184936  0.5376914636658726  1.0000
  C   C4        1.0  0.5749898340672318  0.1442020175404295  0.4623085109157543  1.0000
  C   C5        1.0  0.37495860525636737  0.808215532487999  0.6613279302229955  1.0000
  C   C6        1.0  0.6250405901459928  0.19178801124979822  0.3386742010904342  1.0000
  C   C7        1.0  0.4586598811691048  0.7324931915094909  0.7327568944466877  1.0000
  C   C8        1.0  0.5413388545236516  0.2675084420953694  0.2672458688764507  1.0000
  C   C9        1.0  0.5967258609011026  0.7054166561260046  0.6784033086644997  1.0000
  C   C10       1.0  0.40327338208523855  0.29458310013369265  0.32160062550441654  1.0000
  C   C11       1.0  0.6503138237011896  0.7506417253201434  0.5544217508886861  1.0000
  C   C12       1.0  0.3496849522314136  0.24935601575608496  0.44557941988832545  1.0000
  C   C13       1.0  0.5360833974571975  0.9464727232288154  0.29456126555880513  1.0000
  C   C14       1.0  0.4639192391439905  0.053525043948006605  0.7054386651608483  1.0000
  C   C15       1.0  0.6144253158577014  0.9816274303341432  0.16305691881574091  1.0000
  C   C16       1.0  0.3855758519548261  0.0183722601879523  0.8369438487732808  1.0000
  C   C17       1.0  0.15551190093090395  0.937941844689881  0.6658662015442047  1.0000
  C   C18       1.0  0.8444865765249786  0.062060661930971185  0.33413385423003217  1.0000
  C   C19       1.0  0.018733776867144062  0.9711487993097024  0.7565372918626566  1.0000
  C   C20       1.0  0.9812617099193444  0.02886126269189049  0.24346008824362303  1.0000
  C   C21       1.0  0.6346495204846222  0.5785126924797479  0.8632429924226417  1.0000
  C   C22       1.0  0.365350391028187  0.42149186211235434  0.13676036557956198  1.0000
  C   C23       1.0  0.7442014855419076  0.509145686175998  0.9253553620186352  1.0000
  C   C24       1.0  0.2558003947089987  0.4908549626751438  0.07464493455835709  1.0000
  C   C25       1.0  0.7191858610046823  0.30338624153623067  0.7282565465529062  1.0000
  C   C26       1.0  0.28081169703199294  0.6966124448187472  0.2717447732407621  1.0000
  C   C27       1.0  0.6630271992425562  0.39680593953484333  0.6456444648918593  1.0000
  C   C28       1.0  0.33696822698710355  0.6031899506209084  0.3543608144891054  1.0000
  C   C29       1.0  0.5263728042599284  0.421681829208701  0.6580642800994668  1.0000
  C   C30       1.0  0.4736214424776152  0.5783110874345354  0.34193870690162237  1.0000
  C   C31       1.0  0.4508730089158561  0.3538188032349012  0.7591185718988601  1.0000
  C   C32       1.0  0.5491266038466948  0.646168271109758  0.2408790479285514  1.0000
  C   C33       1.0  0.5140652623609013  0.2623196774098843  0.8387885534089962  1.0000
  C   C34       1.0  0.4859382147423049  0.7376674755606344  0.16120952406186004  1.0000
  C   C35       1.0  0.46485119627993055  0.5156604332260813  0.5654610467572851  1.0000
  C   C36       1.0  0.5351435156753227  0.48433447233799126  0.43454385478529645  1.0000
  N   N1        1.0  0.6463551248259094  0.2351622477672066  0.8224705740717727  1.0000
  N   N2        1.0  0.35364587808165754  0.764830714552069  0.17753024282892935  1.0000
  O   O1        1.0  0.6227534683386936  0.8638261662914954  0.3640685293147288  1.0000
  O   O2        1.0  0.3772510181171143  0.1361793989928728  0.6359339664684995  1.0000
  O   O3        1.0  0.24042181340539773  0.8307303189362328  0.7200607610430012  1.0000
  O   O4        1.0  0.7595768802114906  0.16927518093461907  0.2799427459758661  1.0000
  O   O5        1.0  0.6875738513361895  0.6347072714519869  0.7404508465910595  1.0000
  O   O6        1.0  0.3124258476876848  0.36529434241538883  0.2595507578673377  1.0000
  O   O7        1.0  0.73828993375308  0.9317332645641727  0.1252741817673169  1.0000
  O   O8        1.0  0.2617119501698896  0.0682674368122278  0.8747278125104858  1.0000
  O   O9        1.0  0.5481928847571567  0.0629003279962319  0.09442384280277588  1.0000
  O   O10       1.0  0.4518063966329819  0.9370955094722079  0.905577649969608  1.0000
  O   O11       1.0  0.9327611636575737  0.06046569606583319  0.7185110160335102  1.0000
  O   O12       1.0  0.06724323130234915  0.9395474966999943  0.2814895717395487  1.0000
  O   O13       1.0  0.996649165068888  0.9097877281346243  0.8666510676643213  1.0000
  O   O14       1.0  0.0033485834243052  0.0902135837934779  0.1333418194683134  1.0000
  O   O15       1.0  0.7085250297321436  0.4294252118652365  0.020999313465324534  1.0000
  O   O16       1.0  0.29147366388475154  0.5705802880056153  0.9790041935535359  1.0000
  O   O17       1.0  0.8552947248796556  0.5379851428728414  0.8846157380223972  1.0000
  O   O18       1.0  0.14470958565497946  0.46201353663290934  0.1153817139700735  1.0000
  O   O19       1.0  0.7149644493234675  0.893694769041964  0.8565152601406681  1.0000
  O   O20       1.0  0.2850338156434731  0.10630479685415384  0.14348304208976262  1.0000
  O   O21       1.0  0.8519219214982741  0.1844591201354504  0.9779112672581789  1.0000
  O   O22       1.0  0.1480812792812429  0.8155508890167912  0.022080237331763796  1.0000
  O   O23       1.0  0.11545549175562543  0.28031896771313564  0.9876287857535859  1.0000
  O   O24       1.0  0.8845470917534752  0.7196825081538734  0.012366795559358913  1.0000
  O   O25       1.0  0.16068362852161042  0.5723332943304911  0.8284686161387145  1.0000
  O   O26       1.0  0.8393211380505576  0.42766724278292395  0.1715265061432377  1.0000
