data_image0
_chemical_formula_structural       H12Pb2C12N16O8
_chemical_formula_sum              "H12 Pb2 C12 N16 O8"
_cell_length_a       8.384132486226807
_cell_length_b       9.282573932096104
_cell_length_c       9.28238851252802
_cell_angle_alpha    68.17568786591723
_cell_angle_beta     66.1539800966384
_cell_angle_gamma    66.15396423220243

_space_group_name_H-M_alt    "P 1"
_space_group_IT_number       1

loop_
  _space_group_symop_operation_xyz
  'x, y, z'

loop_
  _atom_site_type_symbol
  _atom_site_label
  _atom_site_symmetry_multiplicity
  _atom_site_fract_x
  _atom_site_fract_y
  _atom_site_fract_z
  _atom_site_occupancy
  H   H1        1.0  0.7966796470258327  0.8903484505938338  0.5045598764758947  1.0000
  H   H2        1.0  0.7033880168350918  0.49545086424948437  0.10963055237174042  1.0000
  H   H3        1.0  0.20332075159906526  0.10956976270306744  0.4954924175480428  1.0000
  H   H4        1.0  0.2967359006360154  0.5045539310772825  0.890269317830601  1.0000
  H   H5        1.0  0.810879232144998  0.08051187583950543  0.6829042515920208  1.0000
  H   H6        1.0  0.6891492521442828  0.31706380677538  0.9194945875048006  1.0000
  H   H7        1.0  0.1890866568897207  0.9194890273971271  0.31713847790363997  1.0000
  H   H8        1.0  0.31090647534405474  0.6829068254392752  0.08050844934648183  1.0000
  H   H9        1.0  0.6409777676626618  0.06821388647298222  0.8771536396951802  1.0000
  H   H10       1.0  0.859048575261269  0.12285135863242401  0.9318346226027361  1.0000
  H   H11       1.0  0.3589359205210553  0.9318453163874454  0.12284760705794875  1.0000
  H   H12       1.0  0.1410055542049519  0.8771046707772927  0.06817980511299734  1.0000
  Pb  Pb1       1.0  0.24996285149747158  0.4729117287676844  0.5268520410071602  1.0000
  Pb  Pb2       1.0  0.7497592646423853  0.5270789268851817  0.47310525708127205  1.0000
  C   C1        1.0  0.7338779926327631  0.8379027760160157  0.6309752446115553  1.0000
  C   C2        1.0  0.7661376870425227  0.36905819416010394  0.16211764967545855  1.0000
  C   C3        1.0  0.2660811661617045  0.16206404296540464  0.369082588938774  1.0000
  C   C4        1.0  0.23392924910189797  0.6309489512086801  0.8378397446156569  1.0000
  C   C5        1.0  0.6746025555215737  0.06524575694898263  0.751061512817543  1.0000
  C   C6        1.0  0.8254213810919138  0.24893865768254386  0.9347668800985075  1.0000
  C   C7        1.0  0.3253499304076042  0.9347757941109052  0.24894501755524354  1.0000
  C   C8        1.0  0.17462542978360301  0.751019789561589  0.06524284319487351  1.0000
  C   C9        1.0  0.5327248008361991  0.20563550166546926  0.6758140936696574  1.0000
  C   C10       1.0  0.9673231463744255  0.3241529037487325  0.7943725855228649  1.0000
  C   C11       1.0  0.46731137045531296  0.7944166001373958  0.3241086860136022  1.0000
  C   C12       1.0  0.03270626495763192  0.6758030755134075  0.20563683140564146  1.0000
  N   N1        1.0  0.6993925436435261  0.6958701828290403  0.6922311443338672  1.0000
  N   N2        1.0  0.8005829859992416  0.3078344654007736  0.3041889120119308  1.0000
  N   N3        1.0  0.30054280287905016  0.3041051238641829  0.3078580387661915  1.0000
  N   N4        1.0  0.19944873702513627  0.6921957425593491  0.6957823983622761  1.0000
  N   N5        1.0  0.6189936357818266  0.6806897150269722  0.8550822776978176  1.0000
  N   N6        1.0  0.8809615056577013  0.1449941335974216  0.31938321597962016  1.0000
  N   N7        1.0  0.3809338717443891  0.3193318232392671  0.14500227556819573  1.0000
  N   N8        1.0  0.11904041315968775  0.8550275182427428  0.680634414327116  1.0000
  N   N9        1.0  0.6042842095647669  0.8077329662114467  0.8936573744721772  1.0000
  N   N10       1.0  0.8956896356403091  0.10640290874124503  0.1923285260757836  1.0000
  N   N11       1.0  0.3956554524263253  0.1923068353178152  0.10639120342254665  1.0000
  N   N12       1.0  0.10432912701173772  0.8935920052347159  0.807700460531329  1.0000
  N   N13       1.0  0.6773928866274446  0.9071923564053961  0.7539926156397598  1.0000
  N   N14       1.0  0.8226067453160723  0.24604095280471938  0.09284170100000472  1.0000
  N   N15       1.0  0.32256151857507825  0.09281947292046062  0.2460383750691477  1.0000
  N   N16       1.0  0.1774513925897239  0.7539418513879996  0.9071537848270665  1.0000
  O   O1        1.0  0.5164798103817884  0.34703870928454  0.6801775542752965  1.0000
  O   O2        1.0  0.98360284793965  0.31975307548349013  0.6529373493066116  1.0000
  O   O3        1.0  0.4835525151283376  0.6529817765745776  0.3198230039722461  1.0000
  O   O4        1.0  0.016416010602078757  0.6802187034132317  0.3470678763484258  1.0000
  O   O5        1.0  0.05690130017085687  0.3849066395086568  0.8244822327072753  1.0000
  O   O6        1.0  0.44311455673461325  0.17552345080453344  0.6150808225615875  1.0000
  O   O7        1.0  0.9431226325122282  0.6150578471562156  0.1755238590345626  1.0000
  O   O8        1.0  0.557011797765362  0.8245750158487086  0.3847133443646412  1.0000
