data_image0
_chemical_formula_structural       Ca2H44C36O16
_chemical_formula_sum              "Ca2 H44 C36 O16"
_cell_length_a       6.66995583504605
_cell_length_b       8.848099800145954
_cell_length_c       15.882608781424016
_cell_angle_alpha    95.85598336537059
_cell_angle_beta     89.999728521527
_cell_angle_gamma    89.9996957380301

_space_group_name_H-M_alt    "P 1"
_space_group_IT_number       1

loop_
  _space_group_symop_operation_xyz
  'x, y, z'

loop_
  _atom_site_type_symbol
  _atom_site_label
  _atom_site_symmetry_multiplicity
  _atom_site_fract_x
  _atom_site_fract_y
  _atom_site_fract_z
  _atom_site_occupancy
  Ca  Ca1       1.0  0.6026423393571606  0.44759225046033174  0.5478604640395375  1.0000
  Ca  Ca2       1.0  0.1026542446664536  0.5524027074085822  0.4521420193871322  1.0000
  H   H1        1.0  0.9347004189502287  0.4040926299070904  0.00870207259504241  1.0000
  H   H2        1.0  0.4347010122284445  0.595888254687992  0.9913000257989921  1.0000
  H   H3        1.0  0.7911968970161141  0.5534559192776455  0.970281755338938  1.0000
  H   H4        1.0  0.2911966367144744  0.44653231632961615  0.02972303939316839  1.0000
  H   H5        1.0  0.9536860449951874  0.43844218458076506  0.8998444017808963  1.0000
  H   H6        1.0  0.4536871517861912  0.5615544350759337  0.10016010759246541  1.0000
  H   H7        1.0  0.38270110401845875  0.165821457137163  0.9122972687219287  1.0000
  H   H8        1.0  0.8827086340138168  0.8341884284783063  0.08770080485700758  1.0000
  H   H9        1.0  0.1088437082462264  0.2022663074190021  0.8108972718233289  1.0000
  H   H10       1.0  0.6088532577137898  0.7977472812550063  0.1890984135993961  1.0000
  H   H11       1.0  0.4172826681413895  0.5939408757014135  0.7341410172056229  1.0000
  H   H12       1.0  0.9172624602464412  0.4060551515904224  0.2658572121083864  1.0000
  H   H13       1.0  0.6900726131895994  0.5557270755079171  0.8327928529782582  1.0000
  H   H14       1.0  0.19005721241598653  0.44427429845136857  0.1672099592957252  1.0000
  H   H15       1.0  0.9839012571806053  0.5387068644360368  0.7411972330037813  1.0000
  H   H16       1.0  0.4838756378212069  0.46132409831818694  0.2588028787860779  1.0000
  H   H17       1.0  0.9474685525715929  0.3434986503361798  0.7150096364948055  1.0000
  H   H18       1.0  0.44747427694190384  0.6565288068002532  0.28499468538839073  1.0000
  H   H19       1.0  0.019091259732910305  0.1388370762393123  0.9671655594910007  1.0000
  H   H20       1.0  0.5190692851377108  0.8611494793509636  0.03283139903953722  1.0000
  H   H21       1.0  0.9268058549924806  0.13096231693373986  0.0723797222730411  1.0000
  H   H22       1.0  0.4268143622908553  0.8690119794711392  0.9276187442418048  1.0000
  H   H23       1.0  0.0751349820491072  0.9772556569361157  0.022176091232502422  1.0000
  H   H24       1.0  0.5750862748639705  0.02272969772666038  0.9778175282492043  1.0000
  H   H25       1.0  0.06586143257097632  0.006961833282197499  0.17348927855636018  1.0000
  H   H26       1.0  0.5658409610065221  0.9930285985535292  0.8265154489139804  1.0000
  H   H27       1.0  0.2357866572281894  0.9396392864044004  0.3017021448012471  1.0000
  H   H28       1.0  0.7357605652990246  0.060359533522387196  0.6983016545400033  1.0000
  H   H29       1.0  0.7576266203667288  0.190444362242971  0.2379895714576534  1.0000
  H   H30       1.0  0.2576360340578532  0.8095579916119034  0.7620106755633529  1.0000
  H   H31       1.0  0.5846784878469437  0.26235881846302084  0.10853985393121948  1.0000
  H   H32       1.0  0.0846733304684761  0.7376401186171008  0.8914547711569083  1.0000
  H   H33       1.0  0.5596325652920555  0.9047649268419846  0.3732269197700617  1.0000
  H   H34       1.0  0.059619970723900906  0.09523484383640832  0.6267747418906281  1.0000
  H   H35       1.0  0.7771589468535967  0.00808176317156039  0.346302606045839  1.0000
  H   H36       1.0  0.277135450230503  0.9919282993689861  0.6537007067363874  1.0000
  H   H37       1.0  0.45239238134607257  0.25543864091320495  0.6700732635342916  1.0000
  H   H38       1.0  0.9524110833083841  0.7445618444194793  0.3299239794947368  1.0000
  H   H39       1.0  0.4876273289768492  0.17475564097473037  0.5778135658185732  1.0000
  H   H40       1.0  0.9876368721134696  0.8252448733389314  0.4221804674270118  1.0000
  H   H41       1.0  0.6861603540745947  0.7792844890299692  0.5734397350153841  1.0000
  H   H42       1.0  0.1861643224377332  0.22071258739052274  0.4265589808174326  1.0000
  H   H43       1.0  0.4487255546054883  0.7520172588756964  0.5794559175922771  1.0000
  H   H44       1.0  0.9487315345524934  0.24797953441601814  0.42054609372352997  1.0000
  C   C1        1.0  0.8520628525279152  0.43869409911759033  0.9543966292992039  1.0000
  C   C2        1.0  0.3520646206901505  0.5612962067201722  0.045606954009201714  1.0000
  C   C3        1.0  0.5552490313504492  0.3558314810256037  0.8788084073797291  1.0000
  C   C4        1.0  0.05523882895551681  0.6441661141372208  0.1211918383018116  1.0000
  C   C5        1.0  0.39106991589424933  0.2565724081211441  0.8711997027146481  1.0000
  C   C6        1.0  0.8910805627274243  0.7434297555644845  0.12879336502749789  1.0000
  C   C7        1.0  0.23670183696060576  0.27974790845239994  0.815277208151265  1.0000
  C   C8        1.0  0.7367089661086298  0.7202672952222925  0.18471963331964497  1.0000
  C   C9        1.0  0.239751214648912  0.4026615486849607  0.7658466466939088  1.0000
  C   C10       1.0  0.7397600785471427  0.5973567453471702  0.2341554617813557  1.0000
  C   C11       1.0  0.4074700985033744  0.4989522396464636  0.7726674394702897  1.0000
  C   C12       1.0  0.9074737006271222  0.5010584801154465  0.2273338030678715  1.0000
  C   C13       1.0  0.5647452429765779  0.47656221205262767  0.8281803651108035  1.0000
  C   C14       1.0  0.06473974453343351  0.523452183380364  0.1718242783719361  1.0000
  C   C15       1.0  0.05983868742136881  0.43434518313117826  0.7136338641830946  1.0000
  C   C16       1.0  0.5598381392034852  0.5656752520345804  0.286365572902568  1.0000
  C   C17       1.0  0.09213022979196951  0.4588156654544092  0.6215174976916912  1.0000
  C   C18       1.0  0.5921302329381747  0.5411829355309976  0.378482128693939  1.0000
  C   C19       1.0  0.053083790957231314  0.10106654891875877  0.029108970476045198  1.0000
  C   C20       1.0  0.5530802026993129  0.898913985977373  0.9708906247020863  1.0000
  C   C21       1.0  0.31497382912153443  0.13879099400445943  0.132242021226638  1.0000
  C   C22       1.0  0.8149687450967705  0.8612042866351859  0.867757592214545  1.0000
  C   C23       1.0  0.21673926786521497  0.04919721873901749  0.187059913767861  1.0000
  C   C24       1.0  0.7167267430537336  0.9507917327173276  0.8129387664833558  1.0000
  C   C25       1.0  0.3138715357396862  0.010690847874762694  0.2598089073969021  1.0000
  C   C26       1.0  0.8138596295323242  0.9893056110527993  0.7401901667267623  1.0000
  C   C27       1.0  0.5095831943969031  0.0595364679606547  0.2790535629307414  1.0000
  C   C28       1.0  0.0095817223864714  0.9404636810202762  0.7209456955841134  1.0000
  C   C29       1.0  0.6047082818950926  0.15163063690492606  0.2241391553320113  1.0000
  C   C30       1.0  0.10471126794197261  0.8483747576769433  0.7758603303195315  1.0000
  C   C31       1.0  0.5093601248147338  0.1923004956613923  0.1516601203765902  1.0000
  C   C32       1.0  0.009362510130088701  0.8077144912130122  0.8483389955775349  1.0000
  C   C33       1.0  0.6147679761100449  0.015282532228461293  0.35721534964948626  1.0000
  C   C34       1.0  0.1147551551192123  0.9847204701860337  0.6427851981320174  1.0000
  C   C35       1.0  0.5755239827504469  0.13136915336625068  0.43354355483655377  1.0000
  C   C36       1.0  0.07552186724482371  0.8686271386892273  0.5664578169238297  1.0000
  O   O1        1.0  0.26415107090269163  0.45585052045996827  0.5881426997702448  1.0000
  O   O2        1.0  0.7641521496426051  0.5441483973362011  0.4118572770890054  1.0000
  O   O3        1.0  0.935251417585164  0.4859625062881748  0.5793643173319863  1.0000
  O   O4        1.0  0.4352324794474215  0.5140482007570243  0.4206349853752015  1.0000
  O   O5        1.0  0.6950008132404479  0.328587953457003  0.9383941048163819  1.0000
  O   O6        1.0  0.19501363556966572  0.671407833979508  0.061606388289384  1.0000
  O   O7        1.0  0.4105691442173338  0.1260033413956094  0.47344574431631503  1.0000
  O   O8        1.0  0.9105680993033616  0.8739869633320012  0.5265533259651178  1.0000
  O   O9        1.0  0.7100971279770859  0.2315667137779727  0.4533693459064239  1.0000
  O   O10       1.0  0.21008543662220092  0.7684265453012175  0.5466340801068981  1.0000
  O   O11       1.0  0.23390464705635597  0.17727313942829426  0.0576983010293972  1.0000
  O   O12       1.0  0.7339034203072927  0.8227189138478863  0.9423043622525142  1.0000
  O   O13       1.0  0.557622809300824  0.22743152381776352  0.6285672521343528  1.0000
  O   O14       1.0  0.057638695824479724  0.7725615185636768  0.3714326466083832  1.0000
  O   O15       1.0  0.5832287410690357  0.7120041131449142  0.594117390596054  1.0000
  O   O16       1.0  0.0832340026229659  0.2879934305323887  0.405881541920607  1.0000
