data_image0
_chemical_formula_structural       Cd2H32C60N8Cl4O8
_chemical_formula_sum              "Cd2 H32 C60 N8 Cl4 O8"
_cell_length_a       9.202381843426485
_cell_length_b       10.807129907323283
_cell_length_c       14.761
_cell_angle_alpha    87.90663321978069
_cell_angle_beta     72.61950510584825
_cell_angle_gamma    70.14665253831545

_space_group_name_H-M_alt    "P 1"
_space_group_IT_number       1

loop_
  _space_group_symop_operation_xyz
  'x, y, z'

loop_
  _atom_site_type_symbol
  _atom_site_label
  _atom_site_symmetry_multiplicity
  _atom_site_fract_x
  _atom_site_fract_y
  _atom_site_fract_z
  _atom_site_occupancy
  Cd  Cd1       1.0  0.35784430638039316  0.24002021697832276  0.26340704565846107  1.0000
  Cd  Cd2       1.0  0.6421551296821948  0.7599810009908481  0.7365936365038123  1.0000
  H   H1        1.0  0.6085851537214566  0.2456158916637108  0.3943521049972604  1.0000
  H   H2        1.0  0.39140817095438524  0.7543863126750523  0.6056537536568882  1.0000
  H   H3        1.0  0.8287650078486237  0.0888926138413098  0.4517321328187194  1.0000
  H   H4        1.0  0.17123256895107627  0.9111076177582689  0.5482709543504072  1.0000
  H   H5        1.0  0.97317629177234  0.2827625704318564  0.15152316491485618  1.0000
  H   H6        1.0  0.026823562355829677  0.7172376611677294  0.8484781432322778  1.0000
  H   H7        1.0  0.7585888541227491  0.1805924355364255  0.21550676813562566  1.0000
  H   H8        1.0  0.24141111553794295  0.8194048369543836  0.7844932427118323  1.0000
  H   H9        1.0  0.08834450974354272  0.0796256715410806  0.2796366563837438  1.0000
  H   H10       1.0  0.9116553443846271  0.920374560058498  0.7203612644590082  1.0000
  H   H11       1.0  0.8667620478012026  0.8467913886271816  0.4457819681169823  1.0000
  H   H12       1.0  0.1332366676627359  0.1532088429724041  0.5542188746193943  1.0000
  H   H13       1.0  0.019293262070782212  0.4638560817201167  0.2296945716477268  1.0000
  H   H14       1.0  0.9807081487872085  0.5361431635098697  0.7703051180515246  1.0000
  H   H15       1.0  0.8967147533622892  0.5010540517069515  0.07953153629821232  1.0000
  H   H16       1.0  0.10328779615993262  0.49894519352303485  0.920467941350914  1.0000
  H   H17       1.0  0.08178798428150465  0.8486921228275576  0.2858939722986733  1.0000
  H   H18       1.0  0.9182149833062994  0.1513061360328436  0.7141034214918065  1.0000
  H   H19       1.0  0.9183080667798151  0.6839614966716567  0.16298232501419108  1.0000
  H   H20       1.0  0.08169603947222011  0.3160367621887445  0.8370162116479206  1.0000
  H   H21       1.0  0.6869561412579092  0.6854883967973322  0.034911061664082865  1.0000
  H   H22       1.0  0.3130441309358432  0.3145108484326542  0.9650895175461613  1.0000
  H   H23       1.0  0.11900711996899825  0.7937562684995781  0.0833213169913805  1.0000
  H   H24       1.0  0.8809962656843952  0.2062410039912308  0.9166773802448416  1.0000
  H   H25       1.0  0.310500939985026  0.6681233601612959  0.3222128720987527  1.0000
  H   H26       1.0  0.6895050255298899  0.3318758850686905  0.6777832595565061  1.0000
  H   H27       1.0  0.5717870229220452  0.6018758193725304  0.3616751908529706  1.0000
  H   H28       1.0  0.42821241314053543  0.39812539859663326  0.6383234589266706  1.0000
  H   H29       1.0  0.7757720783568945  0.6669268938483413  0.40573766167283043  1.0000
  H   H30       1.0  0.22422549844281295  0.3330733377512374  0.5942647480354211  1.0000
  H   H31       1.0  0.40112109461765055  0.7919275392792855  0.03595185516287809  1.0000
  H   H32       1.0  0.5988803162403328  0.2080717059507009  0.9640485119972482  1.0000
  C   C1        1.0  0.6337019222166944  0.9037552188326784  0.9276220399681847  1.0000
  C   C2        1.0  0.3662924255908423  0.0962499446148541  0.07237880678762557  1.0000
  C   C3        1.0  0.038992518060574424  0.3988977259857903  0.4249646692016142  1.0000
  C   C4        1.0  0.9610069180020062  0.6011034919833804  0.5750346580389021  1.0000
  C   C5        1.0  0.5404566301446821  0.0390730585778698  0.07965146348385589  1.0000
  C   C6        1.0  0.45954011052385385  0.9609291457608933  0.9203496942546678  1.0000
  C   C7        1.0  0.8802379108559677  0.4491996159788556  0.48775749470369334  1.0000
  C   C8        1.0  0.11976182773967282  0.5508035747294926  0.5122410459778521  1.0000
  C   C9        1.0  0.6629414814117568  0.9502191447501502  0.005860722674015157  1.0000
  C   C10       1.0  0.3370537025269584  0.04978404595819799  0.9941406985906411  1.0000
  C   C11       1.0  0.8318791713418464  0.5486513162836033  0.5607453268807417  1.0000
  C   C12       1.0  0.1681202647207343  0.4513499016855675  0.43925332289889246  1.0000
  C   C13       1.0  0.6280877638277859  0.1402755649052736  0.3934188198198356  1.0000
  C   C14       1.0  0.3719048402494066  0.8597256530638901  0.6065844895649093  1.0000
  C   C15       1.0  0.3653284130926552  0.5155832757710712  0.15115075233475042  1.0000
  C   C16       1.0  0.6346741364295597  0.4844159694589152  0.8488466929317511  1.0000
  C   C17       1.0  0.7518313701059044  0.051576279503649396  0.42525789875705294  1.0000
  C   C18       1.0  0.24816692729244494  0.9484249384655213  0.5747457052988381  1.0000
  C   C19       1.0  0.5426404444663717  0.9738525601321157  0.3608187662957718  1.0000
  C   C20       1.0  0.457356296202164  0.026149644206647303  0.639182391442759  1.0000
  C   C21       1.0  0.8492787518194191  0.3344286095682136  0.15044639905711685  1.0000
  C   C22       1.0  0.15072307710415342  0.6655696492921876  0.849553239166113  1.0000
  C   C23       1.0  0.7287178923588868  0.2776709306070728  0.1873744755471307  1.0000
  C   C24       1.0  0.2712816592362229  0.7223273282533214  0.8126255867763419  1.0000
  C   C25       1.0  0.5320280970038596  0.45309380312109226  0.1507163714653998  1.0000
  C   C26       1.0  0.46797373191971303  0.5469044557393019  0.8492832667578298  1.0000
  C   C27       1.0  0.6668948707131506  0.8759583374103457  0.38880957133901717  1.0000
  C   C28       1.0  0.3331030086196165  0.1240438669284174  0.6111927292711385  1.0000
  C   C29       1.0  0.42301603430541235  0.9356119974884082  0.33514850419113873  1.0000
  C   C30       1.0  0.5769865152168023  0.0643872477415854  0.6648496185362306  1.0000
  C   C31       1.0  0.18357565322222066  0.998873797527537  0.2967712781705459  1.0000
  C   C32       1.0  0.8164249215045913  0.0011274204416338  0.7032264820981027  1.0000
  C   C33       1.0  0.7724659117305137  0.9188062324100271  0.4216468596606546  1.0000
  C   C34       1.0  0.22753280373342477  0.0811939991895514  0.5783539830757221  1.0000
  C   C35       1.0  0.4333167705895704  0.8011934952099296  0.33776267517176  1.0000
  C   C36       1.0  0.5666846402684201  0.198805750020064  0.6622363370666093  1.0000
  C   C37       1.0  0.3209838130704555  0.6383478213409575  0.10935858933827093  1.0000
  C   C38       1.0  0.6790191545173556  0.3616504375194438  0.890638804452209  1.0000
  C   C39       1.0  0.10213910263507132  0.5156118804891889  0.1950969129643738  1.0000
  C   C40       1.0  0.8978638649527326  0.4843863783712123  0.8049018357478631  1.0000
  C   C41       1.0  0.8070561654733694  0.4540939818855918  0.11065750411702878  1.0000
  C   C42       1.0  0.19294680211443452  0.5459042769748095  0.8893439544387151  1.0000
  C   C43       1.0  0.1811972107377073  0.8693102063721766  0.2999306174920022  1.0000
  C   C44       1.0  0.8188071980473879  0.1306900252274019  0.7000651002285138  1.0000
  C   C45       1.0  0.6460997647402423  0.5168981064348515  0.10907698677017663  1.0000
  C   C46       1.0  0.3539035053806218  0.4831021251647272  0.8909223303048464  1.0000
  C   C47       1.0  0.04626813562613567  0.6381929613152906  0.15741810490656857  1.0000
  C   C48       1.0  0.9537356680928399  0.3618033248059263  0.8425798633927643  1.0000
  C   C49       1.0  0.5965747153361393  0.639699147679579  0.06723917102679168  1.0000
  C   C50       1.0  0.40342753165302275  0.36029812481123  0.9327583833377986  1.0000
  C   C51       1.0  0.15674410031605396  0.6988132635917808  0.1136359891439724  1.0000
  C   C52       1.0  0.8432597034029287  0.3011830225294361  0.8863613016944853  1.0000
  C   C53       1.0  0.3070811994381017  0.7700321071153127  0.3195708231370418  1.0000
  C   C54       1.0  0.6929197933542995  0.229968124484266  0.6804275631164671  1.0000
  C   C55       1.0  0.5655539530498359  0.7044474066911874  0.36093151534188195  1.0000
  C   C56       1.0  0.4344460166108561  0.2955498657996216  0.6390684955055762  1.0000
  C   C57       1.0  0.6779722137042868  0.7406639389357395  0.385531252568704  1.0000
  C   C58       1.0  0.32202877908811445  0.2593362926638392  0.6144698435283119  1.0000
  C   C59       1.0  0.4398307472135841  0.6980182497020522  0.06719520089011162  1.0000
  C   C60       1.0  0.5601726384398092  0.3019790227887569  0.9328028188852358  1.0000
  N   N1        1.0  0.527953089537192  0.10281324786826218  0.3613186059148532  1.0000
  N   N2        1.0  0.4720436511313437  0.8971889564705008  0.6386825518236707  1.0000
  N   N3        1.0  0.3010469091921665  0.0307579629322063  0.3133859933401837  1.0000
  N   N4        1.0  0.6989529449359962  0.9692422686673722  0.6866139598851931  1.0000
  N   N5        1.0  0.5752212275699335  0.33534297417836  0.18891433639048216  1.0000
  N   N6        1.0  0.4247790446238255  0.6646562710516335  0.8110855653588871  1.0000
  N   N7        1.0  0.2562286521640117  0.45621862198294855  0.19193722231920424  1.0000
  N   N8        1.0  0.7437750360224343  0.5437806232470379  0.8080620432797972  1.0000
  Cl  Cl1       1.0  0.7337325781173194  0.3940753650591446  0.47006148703621875  1.0000
  Cl  Cl2       1.0  0.2662672760108508  0.605924866540434  0.52993914365004  1.0000
  Cl  Cl3       1.0  0.8580838688511463  0.8931053863669404  0.014914979164316815  1.0000
  Cl  Cl4       1.0  0.14191203568621802  0.1068987907109999  0.985085604065361  1.0000
  O   O1        1.0  0.5667426409165444  0.075636792918182  0.15136465555091416  1.0000
  O   O2        1.0  0.4332525430221709  0.9243663977901662  0.8486360882528673  1.0000
  O   O3        1.0  0.0818942161416345  0.3140620502691007  0.3568099096190167  1.0000
  O   O4        1.0  0.9181049173878864  0.6859371949608857  0.6431908816413453  1.0000
  O   O5        1.0  0.6883303584311165  0.5986602545083741  0.6144909651323686  1.0000
  O   O6        1.0  0.3116690776314641  0.4013409634607967  0.38550903956902255  1.0000
  O   O7        1.0  0.7388231540160107  0.8180475923982229  0.863706089550419  1.0000
  O   O8        1.0  0.2611719143901753  0.1819585574188949  0.13629324170952367  1.0000
