data_image0
_chemical_formula_structural       La2H32C30O16
_chemical_formula_sum              "La2 H32 C30 O16"
_cell_length_a       8.869289658313962
_cell_length_b       10.815975248755727
_cell_length_c       11.284682907063969
_cell_angle_alpha    103.76541313307361
_cell_angle_beta     102.84783975132298
_cell_angle_gamma    111.72906032892955

_space_group_name_H-M_alt    "P 1"
_space_group_IT_number       1

loop_
  _space_group_symop_operation_xyz
  'x, y, z'

loop_
  _atom_site_type_symbol
  _atom_site_label
  _atom_site_symmetry_multiplicity
  _atom_site_fract_x
  _atom_site_fract_y
  _atom_site_fract_z
  _atom_site_occupancy
  La  La1       1.0  0.7512826206341074  0.516195023573829  0.47688356798197157  1.0000
  La  La2       1.0  0.24872809126463116  0.48381781069144125  0.5231191445178424  1.0000
  H   H1        1.0  0.4902713230696134  0.5930976737976792  0.3115201179283672  1.0000
  H   H2        1.0  0.5097218976123514  0.4069041643241817  0.688479822182849  1.0000
  H   H3        1.0  0.6799089266977706  0.7000648932667705  0.3221599751317968  1.0000
  H   H4        1.0  0.32007525833250844  0.29993700023971576  0.6778345826391216  1.0000
  H   H5        1.0  0.9724941108860462  0.8069948478313336  0.5259707740045413  1.0000
  H   H6        1.0  0.027510397371315824  0.1930126690309138  0.47402845340490524  1.0000
  H   H7        1.0  0.08395456187422921  0.7455751907044644  0.4602006214464964  1.0000
  H   H8        1.0  0.9160455420728085  0.2544309680688244  0.5398018054126155  1.0000
  H   H9        1.0  0.8960324415831951  0.2987310189656895  0.10018206159764287  1.0000
  H   H10       1.0  0.10401996495149035  0.701289390954379  0.8998390508358084  1.0000
  H   H11       1.0  0.9305087308603177  0.20343944979732242  0.2013702844190632  1.0000
  H   H12       1.0  0.06953248601924134  0.7965974743015138  0.798656225818071  1.0000
  H   H13       1.0  0.6895141148421544  0.9858953473633179  0.1892756999661104  1.0000
  H   H14       1.0  0.31054648907412746  0.0141323283793753  0.8107533431803943  1.0000
  H   H15       1.0  0.9772706281055717  0.12817061628959442  0.8471414901783517  1.0000
  H   H16       1.0  0.022746312397877787  0.8718147044426842  0.15285916116666698  1.0000
  H   H17       1.0  0.6002306697972417  0.21664007326425866  0.9426946832956773  1.0000
  H   H18       1.0  0.39982704846455874  0.7833865049243017  0.05733349593145939  1.0000
  H   H19       1.0  0.685785716018593  0.9475874475558401  0.721969805881244  1.0000
  H   H20       1.0  0.3142206444519502  0.0524219204685892  0.2780355893914646  1.0000
  H   H21       1.0  0.577016439084815  0.819162844169469  0.7844196590496111  1.0000
  H   H22       1.0  0.42298193553264707  0.18083082542478476  0.2155757388030039  1.0000
  H   H23       1.0  0.7656115174531095  0.7606104275572108  0.9525796174066983  1.0000
  H   H24       1.0  0.2344033312971092  0.2393799915817496  0.04742454564249242  1.0000
  H   H25       1.0  0.1284215979543433  0.3778891164454024  0.8690234368468736  1.0000
  H   H26       1.0  0.8715319483193228  0.622091420492602  0.13095596940062396  1.0000
  H   H27       1.0  0.687446771402712  0.43533979296991987  0.916593965050282  1.0000
  H   H28       1.0  0.31250394984984803  0.5646403687845734  0.08339098457441449  1.0000
  H   H29       1.0  0.6589410526917235  0.20435028352531504  0.7512982504535585  1.0000
  H   H30       1.0  0.34099533897070705  0.7956551618713379  0.2486865480224054  1.0000
  H   H31       1.0  0.845598723514172  0.21017387117919384  0.7162207157270969  1.0000
  H   H32       1.0  0.1543027526679879  0.7897667380909682  0.2837602601204097  1.0000
  C   C1        1.0  0.703705414148189  0.7544922530175031  0.6590590415240172  1.0000
  C   C2        1.0  0.2962922482237148  0.24550317399641844  0.340923334514116  1.0000
  C   C3        1.0  0.8234203201451891  0.34321278023403323  0.26521466345079847  1.0000
  C   C4        1.0  0.17660909217737247  0.6567975503978617  0.7347841396737209  1.0000
  C   C5        1.0  0.7383961154774781  0.3351763494267955  0.6416982136564471  1.0000
  C   C6        1.0  0.26156825103846154  0.6648110088893162  0.3582788948708994  1.0000
  C   C7        1.0  0.6654006032370461  0.114756464859866  0.07406195744044909  1.0000
  C   C8        1.0  0.33466486380938676  0.885260017317883  0.9259590639552684  1.0000
  C   C9        1.0  0.8376466009504641  0.23844451930755636  0.15758243898307706  1.0000
  C   C10       1.0  0.16241064988547285  0.7616124412641624  0.8424567976544421  1.0000
  C   C11       1.0  0.6060266768539293  0.992411472144454  0.10623294629021274  1.0000
  C   C12       1.0  0.3940236745451031  0.007597688491721007  0.8937778298777911  1.0000
  C   C13       1.0  0.8529470035320016  0.9370017676093881  0.8857431486268581  1.0000
  C   C14       1.0  0.1470642465561198  0.06298073290142982  0.11424764534228869  1.0000
  C   C15       1.0  0.9868829249390741  0.0714398681180555  0.9142552158196506  1.0000
  C   C16       1.0  0.013086946189041259  0.9285344905847381  0.08572775389166057  1.0000
  C   C17       1.0  0.5567599280990194  0.12060290426036599  0.9669050281016494  1.0000
  C   C18       1.0  0.44328783781895  0.8793989316234345  0.033101611876134016  1.0000
  C   C19       1.0  0.6963111254580526  0.8676664885922208  0.7639320526410457  1.0000
  C   C20       1.0  0.30371044391514357  0.1323501626763246  0.23610401531287548  1.0000
  C   C21       1.0  0.8681363150736416  0.8659938390893772  0.9732419749886956  1.0000
  C   C22       1.0  0.13186535275283973  0.1339784017989061  0.026736305422531397  1.0000
  C   C23       1.0  0.8938364622657249  0.39093874776025933  0.878028035128004  1.0000
  C   C24       1.0  0.10611641213549926  0.6090456164518516  0.12195929343528895  1.0000
  C   C25       1.0  0.07096204624068035  0.4303103903178921  0.92672352410419  1.0000
  C   C26       1.0  0.9289781759653694  0.569663953870105  0.073245397482296  1.0000
  C   C27       1.0  0.8245811446060145  0.4627406747416814  0.952719332766456  1.0000
  C   C28       1.0  0.1753669414243006  0.5372393446415842  0.047247288300795325  1.0000
  C   C29       1.0  0.782528788504507  0.2760242934846032  0.7469560553153369  1.0000
  C   C30       1.0  0.21744715548269514  0.7239679549376208  0.253074354453922  1.0000
  O   O1        1.0  0.5673685121385006  0.6375242772995406  0.590859757454666  1.0000
  O   O2        1.0  0.4326092142078366  0.3624735873277771  0.40912714684665  1.0000
  O   O3        1.0  0.9559489599121491  0.4244914011294513  0.36951201782109416  1.0000
  O   O4        1.0  0.0440430235512395  0.5755224537305068  0.6305022169143868  1.0000
  O   O5        1.0  0.7482903511411225  0.2862101795393954  0.5306368167545442  1.0000
  O   O6        1.0  0.2517095865010006  0.71377023342162  0.4693475937327562  1.0000
  O   O7        1.0  0.8452537805680862  0.7751817584554602  0.6390578507868766  1.0000
  O   O8        1.0  0.1547740850871051  0.22482682860292158  0.3609526285670412  1.0000
  O   O9        1.0  0.694157780196832  0.43562954455513403  0.6669587069586952  1.0000
  O   O10       1.0  0.3058068397448396  0.5643686079952134  0.33303624568426937  1.0000
  O   O11       1.0  0.6826258725046515  0.35196865165701047  0.25321249102989185  1.0000
  O   O12       1.0  0.3174115545372942  0.6480381991919871  0.7467755375717858  1.0000
  O   O13       1.0  0.6067211564788337  0.6024557323727607  0.31086498109323196  1.0000
  O   O14       1.0  0.39327357272883046  0.3975470400258275  0.6891381640658095  1.0000
  O   O15       1.0  0.9668849247137529  0.7437868532324998  0.44502814230882853  1.0000
  O   O16       1.0  0.03311422668562613  0.25621943403564273  0.5549714589570343  1.0000
