data_image0
_chemical_formula_structural       Cd2Cu2H18C12N8O6
_chemical_formula_sum              "Cd2 Cu2 H18 C12 N8 O6"
_cell_length_a       7.604349998716787
_cell_length_b       8.565769480959462
_cell_length_c       9.2693055692106
_cell_angle_alpha    74.33668774211168
_cell_angle_beta     76.45688415703403
_cell_angle_gamma    67.81982657199153

_space_group_name_H-M_alt    "P 1"
_space_group_IT_number       1

loop_
  _space_group_symop_operation_xyz
  'x, y, z'

loop_
  _atom_site_type_symbol
  _atom_site_label
  _atom_site_symmetry_multiplicity
  _atom_site_fract_x
  _atom_site_fract_y
  _atom_site_fract_z
  _atom_site_occupancy
  Cd  Cd1       1.0  0.3090004587887735  0.2531564044386627  0.14990119756267722  1.0000
  Cd  Cd2       1.0  0.6909957384569481  0.7468420795956378  0.8500961745073996  1.0000
  Cu  Cu1       1.0  0.3531081986979104  0.6334406380299384  0.4781156122224601  1.0000
  Cu  Cu2       1.0  0.6468848803201228  0.36655527116960224  0.5218808739480068  1.0000
  H   H1        1.0  0.1539024322983309  0.32854553755700533  0.5867428387558817  1.0000
  H   H2        1.0  0.8461009733349127  0.6714555319656839  0.4132589242786509  1.0000
  H   H3        1.0  0.93673929176159  0.31059798773826947  0.7034040343965844  1.0000
  H   H4        1.0  0.0632607946631011  0.6894081981301884  0.29658952836717134  1.0000
  H   H5        1.0  0.0808133364703281  0.06533980440560332  0.5766471646550073  1.0000
  H   H6        1.0  0.9191864111135927  0.9346638509778699  0.4233557406946461  1.0000
  H   H7        1.0  0.3099635772903397  0.0137554208707016  0.6310135009325394  1.0000
  H   H8        1.0  0.690034405886372  0.9862456564569658  0.3689882520041508  1.0000
  H   H9        1.0  0.0626695761120997  0.8733545281205298  0.7853723111558394  1.0000
  H   H10       1.0  0.9373247418406977  0.12664912998872782  0.21462950794475685  1.0000
  H   H11       1.0  0.2021610576957968  0.5664690992866569  0.9155493794113525  1.0000
  H   H12       1.0  0.7978373217184467  0.43353454915947515  0.08445164014920438  1.0000
  H   H13       1.0  0.3065610636221122  0.6221556423113415  0.013155040798856982  1.0000
  H   H14       1.0  0.6934418488704638  0.3778467042227405  0.9868443365018393  1.0000
  H   H15       1.0  0.6506241393520398  0.14150370332568943  0.9252944391650288  1.0000
  H   H16       1.0  0.3493823558105189  0.8584999207150262  0.07470390516422752  1.0000
  H   H17       1.0  0.73838914767596  0.11900277009657861  0.0746120910554211  1.0000
  H   H18       1.0  0.2616100924181025  0.8810021521399066  0.9253862762579601  1.0000
  C   C1        1.0  0.42123540437236057  0.428504611985538  0.38907614837690124  1.0000
  C   C2        1.0  0.5787708524859524  0.5714887192810706  0.6109237867923341  1.0000
  C   C3        1.0  0.16351749937027185  0.2525522634624338  0.8188612652989492  1.0000
  C   C4        1.0  0.8364827557034998  0.7474501250680206  0.1811461780869693  1.0000
  C   C5        1.0  0.09423731482885954  0.2507286770105281  0.6870353040574244  1.0000
  C   C6        1.0  0.905760653998662  0.7492723901587651  0.31296429657682984  1.0000
  C   C7        1.0  0.1536809005795092  0.0654446709943528  0.6657818163016245  1.0000
  C   C8        1.0  0.8463184364176894  0.9345564031122747  0.33421967012171905  1.0000
  C   C9        1.0  0.8608747894168828  0.3401659972478797  0.3640957351724624  1.0000
  C   C10       1.0  0.13912821997882913  0.6598325011563447  0.6359067612382034  1.0000
  C   C11       1.0  0.3616033896061238  0.8385419396217415  0.33507413902916033  1.0000
  C   C12       1.0  0.6383902794557058  0.16144884443656343  0.6649278519851124  1.0000
  N   N1        1.0  0.22182664666577517  0.2427344995683853  0.9271103053551001  1.0000
  N   N2        1.0  0.7781644346324085  0.7572704165984021  0.0728842802822598  1.0000
  N   N3        1.0  0.39648513635724913  0.34648158594836087  0.3169123560428276  1.0000
  N   N4        1.0  0.6035188988261665  0.6535104696697616  0.6830894217357154  1.0000
  N   N5        1.0  0.3588697005154912  0.9681053834276627  0.248347862205236  1.0000
  N   N6        1.0  0.6411226003766687  0.0318853936933081  0.75165224301994  1.0000
  N   N7        1.0  0.9863556015848404  0.311944854833854  0.2617756072525096  1.0000
  N   N8        1.0  0.013657341821954072  0.6880523186157887  0.7382220285424665  1.0000
  O   O1        1.0  0.6329388352678577  0.1931379432194618  0.012680687142527318  1.0000
  O   O2        1.0  0.3670608764430908  0.8068656867680774  0.9873168374510257  1.0000
  O   O3        1.0  0.24526809357966786  0.5381476000259012  0.013745728145238424  1.0000
  O   O4        1.0  0.7547348189129153  0.46185474650818054  0.986253649155458  1.0000
  O   O5        1.0  0.09684957390572883  0.9639858137569207  0.8072287256644798  1.0000
  O   O6        1.0  0.9031465838336176  0.036016559040724906  0.19277413650538477  1.0000
