data_image0
_chemical_formula_structural       Cd2H30C30N4O8F4
_chemical_formula_sum              "Cd2 H30 C30 N4 O8 F4"
_cell_length_a       8.86012189372016
_cell_length_b       8.786366612664393
_cell_length_c       10.836377394173114
_cell_angle_alpha    97.67332463947493
_cell_angle_beta     96.0411578670081
_cell_angle_gamma    105.19929513405921

_space_group_name_H-M_alt    "P 1"
_space_group_IT_number       1

loop_
  _space_group_symop_operation_xyz
  'x, y, z'

loop_
  _atom_site_type_symbol
  _atom_site_label
  _atom_site_symmetry_multiplicity
  _atom_site_fract_x
  _atom_site_fract_y
  _atom_site_fract_z
  _atom_site_occupancy
  Cd  Cd1       1.0  0.0036407670722695628  0.46095895124645375  0.1268180405169375  1.0000
  Cd  Cd2       1.0  0.9963588010624563  0.5390405968164131  0.8731804983363675  1.0000
  H   H1        1.0  0.9443162816699556  0.015924440017258203  0.16243580905897662  1.0000
  H   H2        1.0  0.05568262522846384  0.9840727244597861  0.8375642674961272  1.0000
  H   H3        1.0  0.8046464468460285  0.9426466735553946  0.9411736364768047  1.0000
  H   H4        1.0  0.19535234058022158  0.057354089565997406  0.05882773510731451  1.0000
  H   H5        1.0  0.7142667365223118  0.051349781665017205  0.044863949341817  1.0000
  H   H6        1.0  0.28573205090393117  0.9486509814563746  0.9551374222423021  1.0000
  H   H7        1.0  0.6057704998512109  0.6872552593056513  0.9530299222126076  1.0000
  H   H8        1.0  0.39422941000608347  0.3127454896524143  0.04696969533947029  1.0000
  H   H9        1.0  0.5087827028456502  0.825792701076047  0.905836140598069  1.0000
  H   H10       1.0  0.49121607902839065  0.17420805749419094  0.0941643072112086  1.0000
  H   H11       1.0  0.4648547387343955  0.9010719246061287  0.12551986722498046  1.0000
  H   H12       1.0  0.535145974040212  0.098927627498  0.8744806126956349  1.0000
  H   H13       1.0  0.6194111741422007  0.6410220176301354  0.18536734711235436  1.0000
  H   H14       1.0  0.380588405096944  0.3589775395350189  0.8146330392906265  1.0000
  H   H15       1.0  0.5258590013426598  0.7446399469881301  0.28980485887910856  1.0000
  H   H16       1.0  0.4741399055557593  0.25535721748891405  0.7101952176759951  1.0000
  H   H17       1.0  0.8182331590930759  0.8718840610156066  0.3276522159624378  1.0000
  H   H18       1.0  0.18176642014606867  0.1281154961495474  0.6723481704405361  1.0000
  H   H19       1.0  0.7179271814160587  0.0052330237271079015  0.27359669910827483  1.0000
  H   H20       1.0  0.28207127539203475  0.9947665476013656  0.7264054413267476  1.0000
  H   H21       1.0  0.7658020308918481  0.42459820624014816  0.34677557365039047  1.0000
  H   H22       1.0  0.2342003682867713  0.57540733213542  0.6532266046647592  1.0000
  H   H23       1.0  0.16986306214710822  0.2572584435419644  0.33416116404201557  1.0000
  H   H24       1.0  0.8301383118637986  0.7427434921479871  0.665837778176801  1.0000
  H   H25       1.0  0.041067286978815815  0.1900990069040702  0.5530927167283722  1.0000
  H   H26       1.0  0.9589348899494041  0.8099017319319374  0.44690708785898187  1.0000
  H   H27       1.0  0.7251443596034689  0.39571371958474094  0.583292374207744  1.0000
  H   H28       1.0  0.2748537443776442  0.6042846417462401  0.4167068399788222  1.0000
  H   H29       1.0  0.834959422106991  0.2848178542080291  0.6605508942706209  1.0000
  H   H30       1.0  0.16504163239018513  0.7151828987913049  0.3394506643487746  1.0000
  C   C1        1.0  0.9115496518008754  0.7697277898569155  0.10410214221092674  1.0000
  C   C2        1.0  0.08844585449115532  0.23026938980321182  0.8958976537912735  1.0000
  C   C3        1.0  0.8408721953106378  0.9096678880073412  0.13558896459217354  1.0000
  C   C4        1.0  0.15912625039304368  0.09033167421884508  0.8644113282931656  1.0000
  C   C5        1.0  0.7382214396206663  0.934939635905977  0.021062984834280533  1.0000
  C   C6        1.0  0.2617773478055767  0.0650611272154151  0.9789383867498387  1.0000
  C   C7        1.0  0.5821295338859257  0.8020950868355643  0.9852228461348533  1.0000
  C   C8        1.0  0.417869247988115  0.19790567173468085  0.014777601674424502  1.0000
  C   C9        1.0  0.4904476487104787  0.7853265286450509  0.09732493308146671  1.0000
  C   C10       1.0  0.5095522666990249  0.21467422486416152  0.9026756082454526  1.0000
  C   C11       1.0  0.5922304833655545  0.7558248394788264  0.20999441714782563  1.0000
  C   C12       1.0  0.40776875970323095  0.2441735213422761  0.7900058143312166  1.0000
  C   C13       1.0  0.7461019705637496  0.8914995517171533  0.24591377616537366  1.0000
  C   C14       1.0  0.25389727250503574  0.10849880910394213  0.7540864553136687  1.0000
  C   C15       1.0  0.32555132604874604  0.665877859493257  0.06437220457045358  1.0000
  C   C16       1.0  0.6744482420859795  0.33412168856960284  0.9356263342828512  1.0000
  C   C17       1.0  0.8590198755792215  0.37022473249518134  0.37137479733728906  1.0000
  C   C18       1.0  0.14098252359939076  0.6297808058803869  0.6286273809778608  1.0000
  C   C19       1.0  0.0670357056688644  0.28163956509624205  0.36925527507080613  1.0000
  C   C20       1.0  0.9329682771355365  0.7183635613668502  0.6307449328820527  1.0000
  C   C21       1.0  0.0047602302494880525  0.24586104439146092  0.4761946510813361  1.0000
  C   C22       1.0  0.9952408131432691  0.7541396995055791  0.5238050599883763  1.0000
  C   C23       1.0  0.7672667555128427  0.2888855657219338  0.5711890748745176  1.0000
  C   C24       1.0  0.2327350907972274  0.7111139813211623  0.4288114985637321  1.0000
  C   C25       1.0  0.6296897757578109  0.14065946164343757  0.5346670313396374  1.0000
  C   C26       1.0  0.3703139959006166  0.8593388743823953  0.46533265043510863  1.0000
  C   C27       1.0  0.6324503903485024  0.9993258484975701  0.5789512772295426  1.0000
  C   C28       1.0  0.3675511086867829  0.0006724930991737005  0.42104729373508587  1.0000
  C   C29       1.0  0.4943961701797761  0.13793163999454797  0.45489237543478117  1.0000
  C   C30       1.0  0.5056075959264348  0.8620666914801376  0.5451063825651234  1.0000
  N   N1        1.0  0.9751200623783873  0.3593153952953685  0.3052721708427342  1.0000
  N   N2        1.0  0.02488199507765645  0.640688942184987  0.6947289287736356  1.0000
  N   N3        1.0  0.8738436287471317  0.30360846594504676  0.4763697979357105  1.0000
  N   N4        1.0  0.12615842870891208  0.6963958715353088  0.5236313016806592  1.0000
  O   O1        1.0  0.9421767477542603  0.6944819851579568  0.19226471515123933  1.0000
  O   O2        1.0  0.057822825932675  0.30551756745605013  0.8077347474769  1.0000
  O   O3        1.0  0.9375684062998461  0.7409087404182629  0.9914294095692356  1.0000
  O   O4        1.0  0.06242482736904982  0.2590884448127754  0.008569275622846801  1.0000
  O   O5        1.0  0.263492645060154  0.6061200078611366  0.15455057444506792  1.0000
  O   O6        1.0  0.7365065924564148  0.3938783484088119  0.8454487332591327  1.0000
  O   O7        1.0  0.2595769230562866  0.6406341392702475  0.9507046209065991  1.0000
  O   O8        1.0  0.7404218588177471  0.3593666192999977  0.049295826902678606  1.0000
  F   F1        1.0  0.7611216056420602  0.9945775221784602  0.6561709313206877  1.0000
  F   F2        1.0  0.23887863483338384  0.005424418572516701  0.3438279173804873  1.0000
  F   F3        1.0  0.4846768277932441  0.27280674220291  0.4099228162087415  1.0000
  F   F4        1.0  0.5153269383129668  0.7271915892717759  0.5900759417911631  1.0000
