data_image0
_chemical_formula_structural       Na2NiH46C28S4N6O16
_chemical_formula_sum              "Na2 Ni1 H46 C28 S4 N6 O16"
_cell_length_a       9.683081707463616
_cell_length_b       10.129639762186539
_cell_length_c       11.6697
_cell_angle_alpha    90.2367034423504
_cell_angle_beta     107.99064415823014
_cell_angle_gamma    112.41717864374813

_space_group_name_H-M_alt    "P 1"
_space_group_IT_number       1

loop_
  _space_group_symop_operation_xyz
  'x, y, z'

loop_
  _atom_site_type_symbol
  _atom_site_label
  _atom_site_symmetry_multiplicity
  _atom_site_fract_x
  _atom_site_fract_y
  _atom_site_fract_z
  _atom_site_occupancy
  Na  Na1       1.0  0.8302094252045011  0.3100466059599967  0.9307316859247765  1.0000
  Na  Na2       1.0  0.16979333629586793  0.6899509625408413  0.06926738493024943  1.0000
  Ni  Ni1       1.0  0.49999907756379974  0.5000009408863376  0.500001523656465  1.0000
  H   H1        1.0  0.19342671972621156  0.19708848653950634  0.1576763269622745  1.0000
  H   H2        1.0  0.8065731299035904  0.8029123169152041  0.8423271507540236  1.0000
  H   H3        1.0  0.340118083617469  0.3279952083785531  0.11088873921795543  1.0000
  H   H4        1.0  0.6598828518303463  0.6720055950761576  0.8891150167738574  1.0000
  H   H5        1.0  0.2748173328602661  0.3817838647824416  0.22367088764326581  1.0000
  H   H6        1.0  0.7251850339890353  0.6182201736261419  0.7763341037115838  1.0000
  H   H7        1.0  0.46779835278728404  0.013346341371857298  0.14864893602408813  1.0000
  H   H8        1.0  0.5322040140620174  0.9866576970367332  0.8513543414906408  1.0000
  H   H9        1.0  0.5182521591969049  0.1799863637183421  0.08891624499175782  1.0000
  H   H10       1.0  0.48175190215459207  0.820016596372291  0.911089176766453  1.0000
  H   H11       1.0  0.3200345205222277  0.0813148789294829  0.09121491269856821  1.0000
  H   H12       1.0  0.6799684550112559  0.9186880811611431  0.9087868031039009  1.0000
  H   H13       1.0  0.7236482798783045  0.195685594875556  0.3291659461511146  1.0000
  H   H14       1.0  0.2763526555695108  0.8043152085791547  0.6708352390805248  1.0000
  H   H15       1.0  0.5791349318938331  0.046908987828913985  0.3651928498239272  1.0000
  H   H16       1.0  0.4208650492863271  0.9530896589898816  0.6348097969525031  1.0000
  H   H17       1.0  0.642830370735588  0.22462872719857066  0.44205800201692813  1.0000
  H   H18       1.0  0.35717056471222725  0.77537207625614  0.5579466108949377  1.0000
  H   H19       1.0  0.7185800560816702  0.7182158328679833  0.500333083373107  1.0000
  H   H20       1.0  0.2814193164143077  0.2817838922687628  0.4996685543554167  1.0000
  H   H21       1.0  0.8026876074357434  0.6018944397350623  0.5536673945999626  1.0000
  H   H22       1.0  0.19731285087824094  0.3981052854016838  0.44633280756395527  1.0000
  H   H23       1.0  0.5689614738973532  0.6471978121238351  0.07511125305322253  1.0000
  H   H24       1.0  0.4310289980213966  0.35279652142313  0.9248855135237405  1.0000
  H   H25       1.0  0.8868451315598733  0.4891951166246074  0.42528932518282403  1.0000
  H   H26       1.0  0.11315220085042907  0.5108024518762235  0.5747092112146959  1.0000
  H   H27       1.0  0.7365674479376096  0.5238166713168723  0.042083965597576926  1.0000
  H   H28       1.0  0.2634251956171738  0.4761776622300857  0.9579150713705362  1.0000
  H   H29       1.0  0.2369577564612868  0.0883509036084362  0.8678170553200958  1.0000
  H   H30       1.0  0.7630420931685222  0.9116498998462743  0.13218299471596856  1.0000
  H   H31       1.0  0.10030600478835791  0.0714299382042896  0.9475477243350455  1.0000
  H   H32       1.0  0.8996899787032149  0.9285719435683858  0.05244876798644776  1.0000
  H   H33       1.0  0.10079291951549145  0.9144815628051929  0.8754007330952477  1.0000
  H   H34       1.0  0.8992058442962972  0.0855192406495178  0.12459646790512838  1.0000
  H   H35       1.0  0.006881798346370236  0.8738300540892183  0.6528907908101617  1.0000
  H   H36       1.0  0.9931203544698164  0.12616859272957726  0.34710555715683716  1.0000
  H   H37       1.0  0.9073825384456314  0.977389554183773  0.5688158821063639  1.0000
  H   H38       1.0  0.0926211773223997  0.022610170952979996  0.43118344104398426  1.0000
  H   H39       1.0  0.1196541981283659  0.0515285019629559  0.6325681143200939  1.0000
  H   H40       1.0  0.880344697233781  0.9484701448558396  0.36742739882036096  1.0000
  H   H41       1.0  0.714593844163872  0.0188037085596164  0.589955721992297  1.0000
  H   H42       1.0  0.2854043109637345  0.9811981732130519  0.4100370422799315  1.0000
  H   H43       1.0  0.7307811573829852  0.1792886919992185  0.6673739853077836  1.0000
  H   H44       1.0  0.2692219497008566  0.8207121114554923  0.3326226149545307  1.0000
  H   H45       1.0  0.8679624970282376  0.1863883374377124  0.5927670858522378  1.0000
  H   H46       1.0  0.1320362667835511  0.8136124660169983  0.4072266874679117  1.0000
  C   C1        1.0  0.42779399019828196  0.2725470206366012  0.2893573229309468  1.0000
  C   C2        1.0  0.5722112885215864  0.7274537828181096  0.7106501169230912  1.0000
  C   C3        1.0  0.3017631103542939  0.2969784706214185  0.18961334458964532  1.0000
  C   C4        1.0  0.6982421683655815  0.7030223328332923  0.8103932383443395  1.0000
  C   C5        1.0  0.4461877287069528  0.1121256579565539  0.13998565507023394  1.0000
  C   C6        1.0  0.5538147696927069  0.8878762238161144  0.8600167915046344  1.0000
  C   C7        1.0  0.617288905708037  0.1619924719455241  0.35606788193363315  1.0000
  C   C8        1.0  0.38271406982544687  0.8380104881451089  0.6439381184691301  1.0000
  C   C9        1.0  0.639859488792446  0.6124048048761708  0.1507979472282203  1.0000
  C   C10       1.0  0.3601313287097767  0.3875927636246672  0.8491997764362724  1.0000
  C   C11       1.0  0.6352568111714305  0.6375824508882459  0.2669078947230831  1.0000
  C   C12       1.0  0.3647510338355389  0.3624118826587121  0.7330933242621145  1.0000
  C   C13       1.0  0.8183098997486482  0.5248863627316638  0.34887716615787673  1.0000
  C   C14       1.0  0.18168756421201238  0.4751090491332519  0.6511213962198356  1.0000
  C   C15       1.0  0.8206212213778201  0.4991436781093626  0.23215053788156584  1.0000
  C   C16       1.0  0.1793735447453884  0.5008603602992281  0.7678465071042807  1.0000
  C   C17       1.0  0.7256604897244543  0.5948853730050772  0.36729406381522983  1.0000
  C   C18       1.0  0.2743315451461399  0.4051100388598385  0.6327039641049694  1.0000
  C   C19       1.0  0.7326319849217099  0.5433072684160364  0.13268404301134504  1.0000
  C   C20       1.0  0.2673588816481143  0.4566805952231761  0.8673136584262693  1.0000
  C   C21       1.0  0.9050514304789985  0.10336324622610957  0.7647516838443806  1.0000
  C   C22       1.0  0.09495697414455859  0.8966397138645162  0.23524114029496  1.0000
  C   C23       1.0  0.1162648147899503  0.0270345095365414  0.8694360916292894  1.0000
  C   C24       1.0  0.8837346892563788  0.9729630589642894  0.13056214439919964  1.0000
  C   C25       1.0  0.008323272348121687  0.9826193962823025  0.6465336162690677  1.0000
  C   C26       1.0  0.991682615055936  0.0173803288544505  0.3534654065122496  1.0000
  C   C27       1.0  0.7979257461980539  0.1223028228484964  0.6466765203248317  1.0000
  C   C28       1.0  0.2020762750677747  0.8776979806062144  0.35332322934220173  1.0000
  S   S1        1.0  0.5127694020846575  0.721461569922951  0.2912695352907946  1.0000
  S   S2        1.0  0.4872280128084014  0.2785435468035971  0.7087307631539093  1.0000
  S   S3        1.0  0.9291138766709182  0.4005908082959379  0.2052508167187881  1.0000
  S   S4        1.0  0.0708861045092419  0.5994078385228576  0.794746688537302  1.0000
  N   N1        1.0  0.4919509664665683  0.1855752856970341  0.2622963696024173  1.0000
  N   N2        1.0  0.5080481429286934  0.8144287527115495  0.7377069300058282  1.0000
  N   N3        1.0  0.7155008994184513  0.616996282743294  0.48417373298890715  1.0000
  N   N4        1.0  0.284500990297019  0.38300667734733196  0.5158242768578134  1.0000
  N   N5        1.0  0.0009109950772980972  0.0369636612980386  0.758999065814763  1.0000
  N   N6        1.0  0.9990892001359768  0.9630403771105449  0.24100022746871028  1.0000
  O   O1        1.0  0.4727352758956301  0.3280976485846097  0.3996165471505791  1.0000
  O   O2        1.0  0.5272651824183541  0.6719020765521435  0.6003827980932783  1.0000
  O   O3        1.0  0.3948365487079144  0.6114785297498528  0.33381148181528897  1.0000
  O   O4        1.0  0.6051656865910288  0.3885276652946458  0.6661926266393082  1.0000
  O   O5        1.0  0.015162867543978076  0.3771125913863926  0.32532537220860297  1.0000
  O   O6        1.0  0.9848344648663245  0.6228849771144382  0.6746723072688569  1.0000
  O   O7        1.0  0.8069063361581925  0.2666626395372873  0.12711558185701222  1.0000
  O   O8        1.0  0.19309247672119767  0.733328459055798  0.8728833107566061  1.0000
  O   O9        1.0  0.4401458533471042  0.759986635624841  0.17328403036461995  1.0000
  O   O10       1.0  0.5598633739937569  0.2400206377376222  0.826721873890719  1.0000
  O   O11       1.0  0.6226938331610298  0.8457204615480902  0.3848670236258017  1.0000
  O   O12       1.0  0.37730818810479866  0.15428034190662024  0.6151335829612847  1.0000
  O   O13       1.0  0.030126151977086048  0.48824080523137064  0.13864719556614352  1.0000
  O   O14       1.0  0.9698694859310208  0.5117578415874178  0.8613509104280015  1.0000
  O   O15       1.0  0.9052714573140861  0.1483258701400061  0.865296653929491  1.0000
  O   O16       1.0  0.09472648378040555  0.8516706200428741  0.13470631919616954  1.0000
