data_image0
_chemical_formula_structural       U2H30C34N2O16
_chemical_formula_sum              "U2 H30 C34 N2 O16"
_cell_length_a       8.443347554143223
_cell_length_b       10.208372584001872
_cell_length_c       10.782414915289204
_cell_angle_alpha    80.66211479065292
_cell_angle_beta     86.62912591295809
_cell_angle_gamma    85.57606071696816

_space_group_name_H-M_alt    "P 1"
_space_group_IT_number       1

loop_
  _space_group_symop_operation_xyz
  'x, y, z'

loop_
  _atom_site_type_symbol
  _atom_site_label
  _atom_site_symmetry_multiplicity
  _atom_site_fract_x
  _atom_site_fract_y
  _atom_site_fract_z
  _atom_site_occupancy
  U   U1        1.0  0.0812531511587409  0.7561548223330233  0.09938420100910858  1.0000
  U   U2        1.0  0.9187470014737827  0.24384246007939228  0.9006196271453388  1.0000
  H   H1        1.0  0.21752602845703709  0.44700206021025196  0.9951350551211106  1.0000
  H   H2        1.0  0.7824810711275987  0.5529972271783307  0.0048680422499956105  1.0000
  H   H3        1.0  0.4643332671541529  0.6002951237754955  0.6866091699325096  1.0000
  H   H4        1.0  0.5356723724152701  0.3997071425060027  0.3133926150171503  1.0000
  H   H5        1.0  0.6235981976765571  0.5420209195132485  0.7887200437433322  1.0000
  H   H6        1.0  0.3764087125570796  0.4579803541598435  0.21128182278786056  1.0000
  H   H7        1.0  0.4868584138089744  0.6776262693844755  0.8211862181596103  1.0000
  H   H8        1.0  0.5131496623670415  0.3223750028863817  0.17881465164726507  1.0000
  H   H9        1.0  0.3275229890235494  0.2939504976269093  0.8987080488716045  1.0000
  H   H10       1.0  0.672476535277923  0.7060527320225487  0.10128930944775758  1.0000
  H   H11       1.0  0.5320809395921203  0.31050149961190937  0.8465340070850828  1.0000
  H   H12       1.0  0.4679188185041169  0.6894987409304105  0.15346288306469802  1.0000
  H   H13       1.0  0.3775000559399047  0.35162854370074825  0.7377684715978033  1.0000
  H   H14       1.0  0.6224981130681899  0.6483766736354538  0.2622286526059554  1.0000
  H   H15       1.0  0.4902037509019976  0.8904159348850907  0.9146129137129151  1.0000
  H   H16       1.0  0.5097874510612995  0.10958727360278427  0.08538401550239877  1.0000
  H   H17       1.0  0.7428751443548691  0.9230898851287745  0.7830664853010346  1.0000
  H   H18       1.0  0.2571204589737093  0.07691832411902769  0.21693310052094006  1.0000
  H   H19       1.0  0.9514806117430652  0.06620332853074727  0.3655592959816047  1.0000
  H   H20       1.0  0.04851596694995663  0.9337929320328157  0.634440268705603  1.0000
  H   H21       1.0  0.04802759945481231  0.26925863714242126  0.22829990436502354  1.0000
  H   H22       1.0  0.9519712867718867  0.7307386273114601  0.7717002916548311  1.0000
  H   H23       1.0  0.7766318208287688  0.5171431841772572  0.46189877982934746  1.0000
  H   H24       1.0  0.2233767990491486  0.48285313593488144  0.5381084072785497  1.0000
  H   H25       1.0  0.6759672798401652  0.3153439554721799  0.5967836520609993  1.0000
  H   H26       1.0  0.3240412353159101  0.6846533558461301  0.40322245674105517  1.0000
  H   H27       1.0  0.4820952821848579  0.18020184739159353  0.4962384984883456  1.0000
  H   H28       1.0  0.5179010024353303  0.8197973906626426  0.5037587570530988  1.0000
  H   H29       1.0  0.23175335314760298  0.15122302885795585  0.6296825629867724  1.0000
  H   H30       1.0  0.7682405435681476  0.8487751898173452  0.3703103581349012  1.0000
  C   C1        1.0  0.28976263672446123  0.5262578168978179  0.9453889386224432  1.0000
  C   C2        1.0  0.7102442692507793  0.4737444673422216  0.054616478461817115  1.0000
  C   C3        1.0  0.4995225333390891  0.5831369210644721  0.7849309323129602  1.0000
  C   C4        1.0  0.5004831707667917  0.4168643462665428  0.2150700793989913  1.0000
  C   C5        1.0  0.40988416159967034  0.3530244806916086  0.8346390533583588  1.0000
  C   C6        1.0  0.5901190456215416  0.6469777690335903  0.16536009618102554  1.0000
  C   C7        1.0  0.19796851776332858  0.003975856119922098  0.8607035262896616  1.0000
  C   C8        1.0  0.8020231116041218  0.9960213664093656  0.13929061504293125  1.0000
  C   C9        1.0  0.3454482010340243  0.01877715814865159  0.7802406998409379  1.0000
  C   C10       1.0  0.6545430453730461  0.981225047516588  0.219754530364888  1.0000
  C   C11       1.0  0.4896068924608131  0.9529043651972056  0.8224761850790754  1.0000
  C   C12       1.0  0.5103818728958914  0.04709983730131029  0.177521659279023  1.0000
  C   C13       1.0  0.6297278644579976  0.9701177458716612  0.749535299854685  1.0000
  C   C14       1.0  0.37026562068789565  0.02988747320132029  0.2504648854745567  1.0000
  C   C15       1.0  0.6262337002840822  0.05418728093953009  0.6331857874638515  1.0000
  C   C16       1.0  0.3737602524513476  0.945811959919176  0.3668134615262274  1.0000
  C   C17       1.0  0.8068571448406131  0.17992589355316818  0.4873702681544429  1.0000
  C   C18       1.0  0.19314298769922542  0.8200713849870949  0.5126326342282255  1.0000
  C   C19       1.0  0.9128149423409154  0.16546394369817818  0.3848725036839013  1.0000
  C   C20       1.0  0.08718621123407642  0.8345343169017096  0.6151264721250341  1.0000
  C   C21       1.0  0.968366813795647  0.2782773302715356  0.310209234538128  1.0000
  C   C22       1.0  0.03163327855881451  0.7217199405244157  0.6897918163009747  1.0000
  C   C23       1.0  0.9193028556698267  0.4054744314299581  0.3376349303034941  1.0000
  C   C24       1.0  0.08070093969705991  0.5945218633138861  0.6623688375274172  1.0000
  C   C25       1.0  0.8120449448988508  0.41809307593398864  0.44017078119975384  1.0000
  C   C26       1.0  0.18796586195660583  0.581904224835547  0.5598314826101003  1.0000
  C   C27       1.0  0.7545242661752383  0.3062258659144063  0.5147549772054346  1.0000
  C   C28       1.0  0.24548173200347637  0.693772423925935  0.48524834365227326  1.0000
  C   C29       1.0  0.9790053457953716  0.5251477910634532  0.2589865090069168  1.0000
  C   C30       1.0  0.020995932594154006  0.47484948220242257  0.741014470879648  1.0000
  C   C31       1.0  0.48326110742884515  0.11828592466578405  0.5885030235189888  1.0000
  C   C32       1.0  0.5167338018052803  0.8817152972030367  0.4114930721350802  1.0000
  C   C33       1.0  0.34371535334535946  0.10095420659121855  0.662367136797357  1.0000
  C   C34       1.0  0.6562793263523902  0.8990489938178  0.3376258764732328  1.0000
  N   N1        1.0  0.3964570874932747  0.4894846599431871  0.8600871439207295  1.0000
  N   N2        1.0  0.6035485721688331  0.5105176102104706  0.1399155668007168  1.0000
  O   O1        1.0  0.270692926792755  0.6435047742494218  0.9705938369072057  1.0000
  O   O2        1.0  0.7293190977663642  0.3564945578682239  0.029417308599796913  1.0000
  O   O3        1.0  0.20252313957963963  0.9241268051379519  0.9646053748795963  1.0000
  O   O4        1.0  0.7974685945096525  0.07586942618515737  0.03538984475884629  1.0000
  O   O5        1.0  0.0844710467317995  0.5148424455405517  0.16929066081890198  1.0000
  O   O6        1.0  0.9155314176927899  0.48515483019524197  0.8307102481151317  1.0000
  O   O7        1.0  0.23520249674665197  0.7649378543420651  0.2071222556825347  1.0000
  O   O8        1.0  0.7647920411029928  0.23507037566874797  0.7928829557226604  1.0000
  O   O9        1.0  0.9252614013814052  0.6421874858119876  0.27696029991378174  1.0000
  O   O10       1.0  0.07474112332125321  0.35780980154026304  0.7230433863355968  1.0000
  O   O11       1.0  0.07019916341216968  0.07260879901382816  0.8245469255436788  1.0000
  O   O12       1.0  0.9297947290451916  0.9273904302284204  0.1754495461310556  1.0000
  O   O13       1.0  0.7678376676359235  0.06336873159486338  0.5632771835686156  1.0000
  O   O14       1.0  0.23216001246301232  0.936628526516941  0.4367221576319975  1.0000
  O   O15       1.0  0.9243740711584962  0.7489836331376548  0.9923701797549638  1.0000
  O   O16       1.0  0.0756237824571357  0.25101062425055426  0.007625915960716195  1.0000
