data_image0
_chemical_formula_structural       V2Mo2H16C20N4O10
_chemical_formula_sum              "V2 Mo2 H16 C20 N4 O10"
_cell_length_a       6.797633228463195
_cell_length_b       9.590416418178236
_cell_length_c       9.590321530504337
_cell_angle_alpha    71.04278636416969
_cell_angle_beta     80.17530657421523
_cell_angle_gamma    80.17540240618926

_space_group_name_H-M_alt    "P 1"
_space_group_IT_number       1

loop_
  _space_group_symop_operation_xyz
  'x, y, z'

loop_
  _atom_site_type_symbol
  _atom_site_label
  _atom_site_symmetry_multiplicity
  _atom_site_fract_x
  _atom_site_fract_y
  _atom_site_fract_z
  _atom_site_occupancy
  V   V1        1.0  0.3356775297498941  0.7526700227723424  0.42217869735792857  1.0000
  V   V2        1.0  0.8356792421109347  0.42217572955762256  0.7526733474758132  1.0000
  Mo  Mo1       1.0  0.3768100896497799  0.3872260484829441  0.6374936302649843  1.0000
  Mo  Mo2       1.0  0.8768067819394713  0.637493083550126  0.3872274340821561  1.0000
  H   H1        1.0  0.40213854018731604  0.557174524454119  0.1953171871024324  1.0000
  H   H2        1.0  0.9021392358465973  0.19532070452580544  0.5571714736995617  1.0000
  H   H3        1.0  0.430520832446838  0.5982176861206129  0.9183021339683106  1.0000
  H   H4        1.0  0.9305115985834076  0.9183075327467308  0.5982179042955451  1.0000
  H   H5        1.0  0.4015726979727246  0.8577761119535269  0.7495233147820811  1.0000
  H   H6        1.0  0.901559781607709  0.7495325398107227  0.8577773255832  1.0000
  H   H7        1.0  0.341935695333099  0.0678368304757342  0.8563065416133212  1.0000
  H   H8        1.0  0.8419317385029782  0.8563148114870814  0.06783797547446813  1.0000
  H   H9        1.0  0.2680790306546967  0.22744540858797543  0.9663812906605359  1.0000
  H   H10       1.0  0.7680846646864051  0.9663844911874694  0.22745115527386867  1.0000
  H   H11       1.0  0.20283332659924713  0.40773353963488296  0.11057764781693176  1.0000
  H   H12       1.0  0.7028366266226482  0.1105792080382599  0.407740761473036  1.0000
  H   H13       1.0  0.20998970750838447  0.3105311014318204  0.3869565931983061  1.0000
  H   H14       1.0  0.7099856995431678  0.38695374517674724  0.31053643782315277  1.0000
  H   H15       1.0  0.2760995161807002  0.036895061072243614  0.5064550867793898  1.0000
  H   H16       1.0  0.7760972566836128  0.5064549292708164  0.03689783661053533  1.0000
  C   C1        1.0  0.3894766677129765  0.6682009746124891  0.11561186238920136  1.0000
  C   C2        1.0  0.889474101301367  0.11561447672713143  0.6682004571808449  1.0000
  C   C3        1.0  0.40457351479912507  0.6914830888439455  0.9632155587822736  1.0000
  C   C4        1.0  0.9045670241934116  0.9632242718456826  0.6914793310551273  1.0000
  C   C5        1.0  0.388980446852912  0.8372208033490623  0.8689555205290416  1.0000
  C   C6        1.0  0.8889711469830244  0.8689608131774806  0.8372209108807025  1.0000
  C   C7        1.0  0.35464737588183926  0.9540004080809086  0.9296020482977666  1.0000
  C   C8        1.0  0.8546423111088257  0.9296086817483343  0.9540018332423869  1.0000
  C   C9        1.0  0.33944600751905085  0.9219786837338049  0.08378300308385887  1.0000
  C   C10       1.0  0.8394483445033385  0.0837863368060212  0.9219811228112461  1.0000
  C   C11       1.0  0.30306017373327176  0.03579897741658301  0.1603702979200392  1.0000
  C   C12       1.0  0.8030638294204733  0.1603730325360289  0.03580218975021412  1.0000
  C   C13       1.0  0.2703117089126579  0.18801031512698782  0.0859727643095809  1.0000
  C   C14       1.0  0.7703147233446116  0.08597281328866302  0.1880181351586714  1.0000
  C   C15       1.0  0.2341839761686798  0.28914987466930603  0.16607097020053627  1.0000
  C   C16       1.0  0.734182301865644  0.1660715526132179  0.2891563386481266  1.0000
  C   C17       1.0  0.23570539021297776  0.2357018432788962  0.31961293553395353  1.0000
  C   C18       1.0  0.7357013175443469  0.31961168278316177  0.23570764818748555  1.0000
  C   C19       1.0  0.270995577577672  0.08354971830330979  0.38732002152827494  1.0000
  C   C20       1.0  0.770990568767388  0.387320906118184  0.08355370247463868  1.0000
  N   N1        1.0  0.3591400072470136  0.7803485792051817  0.17446015008238183  1.0000
  N   N2        1.0  0.8591408708635484  0.17446296232822078  0.7803468892574372  1.0000
  N   N3        1.0  0.30130050370180317  0.9844349291737869  0.3106214956202464  1.0000
  N   N4        1.0  0.8013007849747636  0.310623821982361  0.9844387927596827  1.0000
  O   O1        1.0  0.30977955615303887  0.7772405948976059  0.5833104779296933  1.0000
  O   O2        1.0  0.8097853956164014  0.5833065708349707  0.7772407133543168  1.0000
  O   O3        1.0  0.371209250280934  0.5346072526295131  0.46215071793621826  1.0000
  O   O4        1.0  0.8712058520121315  0.46215165653786994  0.5346081366154394  1.0000
  O   O5        1.0  0.13238618331759963  0.37848477831234817  0.7439800098114232  1.0000
  O   O6        1.0  0.6323848648265055  0.7439776033612588  0.37848875156758055  1.0000
  O   O7        1.0  0.4519456806351696  0.22104559675737795  0.5989515603084712  1.0000
  O   O8        1.0  0.9519349919159976  0.5989561082931728  0.2210409570106506  1.0000
  O   O9        1.0  0.5477885727794599  0.41129482665454026  0.7489651771880972  1.0000
  O   O10       1.0  0.04778503129888626  0.7489637788637468  0.4112935481251724  1.0000
