data_image0
_chemical_formula_structural       Zn2H36C20N4O16
_chemical_formula_sum              "Zn2 H36 C20 N4 O16"
_cell_length_a       7.996308516997418
_cell_length_b       8.510688580675946
_cell_length_c       11.833104281011076
_cell_angle_alpha    89.9998869475071
_cell_angle_beta     90.00014280650795
_cell_angle_gamma    113.63259137719933

_space_group_name_H-M_alt    "P 1"
_space_group_IT_number       1

loop_
  _space_group_symop_operation_xyz
  'x, y, z'

loop_
  _atom_site_type_symbol
  _atom_site_label
  _atom_site_symmetry_multiplicity
  _atom_site_fract_x
  _atom_site_fract_y
  _atom_site_fract_z
  _atom_site_occupancy
  Zn  Zn1       1.0  5.327510166000002e-07  1.2824686806e-06  8.450863262999999e-07  1.0000
  Zn  Zn2       1.0  0.5000019825906892  0.9999989659430644  0.4999995353314119  1.0000
  H   H1        1.0  0.0020391085264249544  0.8340309565121728  0.24430555434715734  1.0000
  H   H2        1.0  0.5020381199892088  0.8340280079382796  0.2556960512796564  1.0000
  H   H3        1.0  0.9979615173017751  0.16597102870407812  0.755697597741154  1.0000
  H   H4        1.0  0.49796144033568623  0.16597141234129964  0.7443045655492213  1.0000
  H   H5        1.0  0.777466808717961  0.323233976960701  0.18316706632876387  1.0000
  H   H6        1.0  0.277465352732456  0.32323039440215956  0.3168340250958792  1.0000
  H   H7        1.0  0.2225325603019712  0.6767679934631943  0.816834395584948  1.0000
  H   H8        1.0  0.7225343988986737  0.6767664757324071  0.6831665917349525  1.0000
  H   H9        1.0  0.01455312088235419  0.38303580344167903  0.1592901508599169  1.0000
  H   H10       1.0  0.5145518565621433  0.38303143316336735  0.34071041785365  1.0000
  H   H11       1.0  0.9854475049432949  0.6169661817759575  0.8407113110548394  1.0000
  H   H12       1.0  0.48544717101172824  0.6169667046475312  0.6592893538889015  1.0000
  H   H13       1.0  0.8884759768314938  0.46167848282888  0.0674070747255016  1.0000
  H   H14       1.0  0.38847540349033954  0.461675993152575  0.43259231770130663  1.0000
  H   H15       1.0  0.11152518174262128  0.5383247848588226  0.9325935421020121  1.0000
  H   H16       1.0  0.6115236240822526  0.5383221446590128  0.5674066089544638  1.0000
  H   H17       1.0  0.0696803839127257  0.5209702971042989  0.3670335579791626  1.0000
  H   H18       1.0  0.5696783003577723  0.5209688172082141  0.13296606425686264  1.0000
  H   H19       1.0  0.9303222227733488  0.4790304352321329  0.6329670588513423  1.0000
  H   H20       1.0  0.43032072721354825  0.47902932060406306  0.8670320173121341  1.0000
  H   H21       1.0  0.828621353252764  0.45355003270697136  0.3791392617081115  1.0000
  H   H22       1.0  0.328621094472716  0.4535480683708927  0.12086004220579132  1.0000
  H   H23       1.0  0.17137927257288513  0.5464519525106583  0.6208622002066448  1.0000
  H   H24       1.0  0.671378465849621  0.5464513519100648  0.8791388844495317  1.0000
  H   H25       1.0  0.9774023299488521  0.6769565576748422  0.3905073366262357  1.0000
  H   H26       1.0  0.4774007800030163  0.6769545971626982  0.10949274746738522  1.0000
  H   H27       1.0  0.02259757182209649  0.32304669521774093  0.6094949703738024  1.0000
  H   H28       1.0  0.5225962667066001  0.32304479353147303  0.8905053340990747  1.0000
  H   H29       1.0  0.946173364258904  0.8842273905869292  0.7902154655961056  1.0000
  H   H30       1.0  0.44617337426210224  0.8842252806131444  0.7097847590476504  1.0000
  H   H31       1.0  0.053827261564194415  0.11577459463209293  0.2097843061450817  1.0000
  H   H32       1.0  0.5538274428672311  0.11577415446086553  0.2902150126954908  1.0000
  H   H33       1.0  0.7550477028572121  0.878600806443281  0.8395007710638822  1.0000
  H   H34       1.0  0.25504756388846067  0.8785987771885646  0.660498297352433  1.0000
  H   H35       1.0  0.2449529229658794  0.12140117877573434  0.1604990006773122  1.0000
  H   H36       1.0  0.7449519964338764  0.12140064309240024  0.3395006293028899  1.0000
  C   C1        1.0  0.6188570348743881  0.9964901270722281  0.035254303101155  1.0000
  C   C2        1.0  0.1188576242174407  0.996490149676035  0.46474473446378545  1.0000
  C   C3        1.0  0.3811407358950448  0.0035079959442399005  0.9647463137271403  1.0000
  C   C4        1.0  0.8811431929067839  0.003509285400745903  0.5352516569322319  1.0000
  C   C5        1.0  0.531480358291553  0.9604049875227646  0.9226021356804636  1.0000
  C   C6        1.0  0.03148122494741289  0.9604031091619306  0.5773981350248861  1.0000
  C   C7        1.0  0.4685174124791518  0.03959313549300701  0.0773993262346124  1.0000
  C   C8        1.0  0.9685192507358595  0.03959249329907521  0.42259994654709493  1.0000
  C   C9        1.0  0.9730992224629562  0.7310271041596724  0.18134831695624604  1.0000
  C   C10       1.0  0.47309579111147576  0.7310247715052186  0.3186516841372651  1.0000
  C   C11       1.0  0.02690087061294829  0.2689735985885946  0.8186531449589651  1.0000
  C   C12       1.0  0.5269025124038649  0.26897463398269406  0.6813463974302323  1.0000
  C   C13       1.0  0.9034994752976861  0.42763781767720854  0.1547180969424176  1.0000
  C   C14       1.0  0.4034991707980353  0.4276367534665013  0.3452805232050268  1.0000
  C   C15       1.0  0.09650115052668433  0.5723641675411173  0.8452825198855578  1.0000
  C   C16       1.0  0.5965011135790023  0.5723613991395169  0.6547175583650073  1.0000
  C   C17       1.0  0.9544545250686343  0.5559683153377647  0.34769530599725584  1.0000
  C   C18       1.0  0.4544536372767639  0.5559675671785272  0.1523049094370776  1.0000
  C   C19       1.0  0.04554735756145326  0.44403368467430243  0.6523053108317498  1.0000
  C   C20       1.0  0.5455464557965899  0.4440331355711181  0.8476948623045715  1.0000
  N   N1        1.0  0.9422698136388308  0.5775203651732924  0.22623349301891693  1.0000
  N   N2        1.0  0.44227054978415486  0.5775194328810117  0.2737666718583966  1.0000
  N   N3        1.0  0.05772723307718053  0.4224790255174185  0.7737688139814481  1.0000
  N   N4        1.0  0.5577284777897163  0.4224787049298798  0.7262330998841549  1.0000
  O   O1        1.0  0.7588409882732422  0.9914441658882329  0.0808434749306528  1.0000
  O   O2        1.0  0.258841972566877  0.9914455456266041  0.4191549582855458  1.0000
  O   O3        1.0  0.24115857204909472  0.008555254392732104  0.9191554517246701  1.0000
  O   O4        1.0  0.7411595686158777  0.008552621773155503  0.5808431232855256  1.0000
  O   O5        1.0  0.5692619110836433  0.9118080359975312  0.8286099593844299  1.0000
  O   O6        1.0  0.06926180503429445  0.9118059889057408  0.6713895974400829  1.0000
  O   O7        1.0  0.430738714739448  0.088193949221484  0.17138981235675743  1.0000
  O   O8        1.0  0.9307422497598951  0.08819220808149451  0.3286084841330634  1.0000
  O   O9        1.0  0.9698489597355506  0.758145159061691  0.07727585821451301  1.0000
  O   O10       1.0  0.4698506788722554  0.7581452652795377  0.42272494451891157  1.0000
  O   O11       1.0  0.030150409285660405  0.24185681136151527  0.92272644878598  1.0000
  O   O12       1.0  0.5301506710068153  0.2418554522638487  0.577274827223775  1.0000
  O   O13       1.0  0.8675200874041309  0.8587104451423433  0.8592192887281201  1.0000
  O   O14       1.0  0.3675204215828033  0.8587097306519668  0.6407791502311468  1.0000
  O   O15       1.0  0.13248053841768845  0.14129154007736847  0.1407796379262862  1.0000
  O   O16       1.0  0.632480395545251  0.14128970442273925  0.35921977642520636  1.0000
