data_image0
_chemical_formula_structural       Na2Co2H28C20N4O16
_chemical_formula_sum              "Na2 Co2 H28 C20 N4 O16"
_cell_length_a       6.328793546860267
_cell_length_b       8.726474636624605
_cell_length_c       13.049950317325987
_cell_angle_alpha    74.23405435757216
_cell_angle_beta     75.9343287786206
_cell_angle_gamma    68.76566821708923

_space_group_name_H-M_alt    "P 1"
_space_group_IT_number       1

loop_
  _space_group_symop_operation_xyz
  'x, y, z'

loop_
  _atom_site_type_symbol
  _atom_site_label
  _atom_site_symmetry_multiplicity
  _atom_site_fract_x
  _atom_site_fract_y
  _atom_site_fract_z
  _atom_site_occupancy
  Na  Na1       1.0  0.4859194297203619  0.24984395529624948  0.7499262256430654  1.0000
  Na  Na2       1.0  0.5140798493188685  0.7501567250666311  0.2500747077890039  1.0000
  Co  Co1       1.0  0.9999998725628244  0.49999912116165035  0.5000005731163311  1.0000
  Co  Co2       1.0  0.9999979645771621  1.1761270215995872e-06  0.9999988092297298  1.0000
  H   H1        1.0  0.9865111238676217  0.8890079614649621  0.4334150178170403  1.0000
  H   H2        1.0  0.308845047680002  0.6109413556118781  0.06648702058419789  1.0000
  H   H3        1.0  0.01348811421985386  0.11099144953632128  0.5665834046081953  1.0000
  H   H4        1.0  0.6911505895106776  0.38905932587111636  0.933514301539432  1.0000
  H   H5        1.0  0.7336987414519885  0.942386807301787  0.5314998637006879  1.0000
  H   H6        1.0  0.20722974062704952  0.5575604588541124  0.968573892800151  1.0000
  H   H7        1.0  0.266301171271259  0.05761260872621679  0.4684995141566261  1.0000
  H   H8        1.0  0.792766440691082  0.44243896704524827  0.03142759569939097  1.0000
  H   H9        1.0  0.6661084189864186  0.7857582879780337  0.6802357318272525  1.0000
  H   H10       1.0  0.13207350121578568  0.7141000798825414  0.8198579026679693  1.0000
  H   H11       1.0  0.3338956166669149  0.21424490000970303  0.3197639025563602  1.0000
  H   H12       1.0  0.8679267620806644  0.2859018486149408  0.18014133135102375  1.0000
  H   H13       1.0  0.9044398012968677  0.633523575627123  0.7370195555180385  1.0000
  H   H14       1.0  0.2745285804017003  0.8667963855852105  0.7630201750933238  1.0000
  H   H15       1.0  0.09556541216793593  0.3664770924420963  0.2629786896667454  1.0000
  H   H16       1.0  0.725474754105221  0.13320177746356168  0.23697974696693785  1.0000
  H   H17       1.0  0.29565233781391953  0.7014780850127095  0.5054680020308807  1.0000
  H   H18       1.0  0.502556657523961  0.798469106440855  0.9943007490656581  1.0000
  H   H19       1.0  0.7043541088552346  0.29851758194894973  0.4945351190774827  1.0000
  H   H20       1.0  0.4974420773878236  0.20153282950567328  0.005700017990491804  1.0000
  H   H21       1.0  0.2549320357678939  0.5870839700309815  0.6404133636002668  1.0000
  H   H22       1.0  0.48255710332775736  0.9127873657552994  0.859366246594405  1.0000
  H   H23       1.0  0.7450646001211254  0.41291420903597487  0.3595900132258548  1.0000
  H   H24       1.0  0.517441281010818  0.08721205772174298  0.14063466430006596  1.0000
  H   H25       1.0  0.141689395980471  0.8114368487936686  0.6136806562891977  1.0000
  H   H26       1.0  0.5664267397566292  0.6884479348305703  0.8861538354885992  1.0000
  H   H27       1.0  0.8583131743341211  0.1885613179796195  0.386320032289646  1.0000
  H   H28       1.0  0.43357761995927296  0.3115527457144082  0.113846898165427  1.0000
  C   C1        1.0  0.8501493556377044  0.8433908413397047  0.4882812600657401  1.0000
  C   C2        1.0  0.18159921702682175  0.6565460752351555  0.0117870507017059  1.0000
  C   C3        1.0  0.14985088114811165  0.15660606724554066  0.5117192170619943  1.0000
  C   C4        1.0  0.8183971843561867  0.34345460252332316  0.9882135049033421  1.0000
  C   C5        1.0  0.7064407188541966  0.5263133867216394  0.6878874202273764  1.0000
  C   C6        1.0  0.9201934475108476  0.9733558747230688  0.8124046033887068  1.0000
  C   C7        1.0  0.29356318629081823  0.47368854065572913  0.31211142510006334  1.0000
  C   C8        1.0  0.07980744946962666  0.026644789439544094  0.18759307505553824  1.0000
  C   C9        1.0  0.7260638580741626  0.8067811000552321  0.4168559345819389  1.0000
  C   C10       1.0  0.9496672105538195  0.6930201002998257  0.08344989648347927  1.0000
  C   C11       1.0  0.2739378175397677  0.19321580983221756  0.5831447314593062  1.0000
  C   C12       1.0  0.05032851619341742  0.3069805724319322  0.9165497036894762  1.0000
  C   C13       1.0  0.8044502234309695  0.6674546237125013  0.6716378226284901  1.0000
  C   C14       1.0  0.14323059816342024  0.8325283177591557  0.8284660794031069  1.0000
  C   C15       1.0  0.19555346164916187  0.33254605180574964  0.32836195559344356  1.0000
  C   C16       1.0  0.8567690944949505  0.16746984640972323  0.1715342313487085  1.0000
  C   C17       1.0  0.1781054831335781  0.6981960715817477  0.5822233379256544  1.0000
  C   C18       1.0  0.4584078231707524  0.8017408679500803  0.9176022813452605  1.0000
  C   C19       1.0  0.8218932517781996  0.30180586436477336  0.4177774291305027  1.0000
  C   C20       1.0  0.5415920265065706  0.19826357674141087  0.08239757535400116  1.0000
  N   N1        1.0  0.9589636068526842  0.6895149981864676  0.5656089963617034  1.0000
  N   N2        1.0  0.21388374770820925  0.8104716523510687  0.9344045553154672  1.0000
  N   N3        1.0  0.04103796476356105  0.31048567100286556  0.43438963751463416  1.0000
  N   N4        1.0  0.7861154008227018  0.18952776740145078  0.06559558906042885  1.0000
  O   O1        1.0  0.7686688396410947  0.6491351552175357  0.4172544687450922  1.0000
  O   O2        1.0  0.8351762616477459  0.8506631632205595  0.08310484580299969  1.0000
  O   O3        1.0  0.2313343643575084  0.35086174722087543  0.582744664258996  1.0000
  O   O4        1.0  0.16481892097203857  0.14933876509483923  0.9168945879940367  1.0000
  O   O5        1.0  0.7737585459799594  0.4397415254011249  0.6125129063965246  1.0000
  O   O6        1.0  0.8256058720289516  0.05990591513594269  0.8877971016723191  1.0000
  O   O7        1.0  0.22623942473948966  0.5602604142699192  0.3874886271782073  1.0000
  O   O8        1.0  0.17439282193107197  0.9400947514489812  0.11220115437699013  1.0000
  O   O9        1.0  0.596483277109165  0.9218368384176047  0.35825997806697524  1.0000
  O   O10       1.0  0.8765940178085146  0.5779184366879445  0.14217869819535167  1.0000
  O   O11       1.0  0.40351726929809933  0.07816131327551548  0.6417378442155907  1.0000
  O   O12       1.0  0.1233991818557101  0.42208474590889006  0.8578203803122619  1.0000
  O   O13       1.0  0.5703513979159993  0.4942953143799045  0.7712156942501024  1.0000
  O   O14       1.0  0.8353482741792891  0.005212599247002499  0.7291828041151617  1.0000
  O   O15       1.0  0.42965210805100884  0.5057053786408333  0.22878752787317314  1.0000
  O   O16       1.0  0.16465824760530284  0.9947868095140533  0.2708148409269596  1.0000
