data_image0
_chemical_formula_structural       Mg6H54C90O18
_chemical_formula_sum              "Mg6 H54 C90 O18"
_cell_length_a       6.891976462281559
_cell_length_b       42.42567440693117
_cell_length_c       42.42615869205399
_cell_angle_alpha    119.71040057578821
_cell_angle_beta     93.101165065868
_cell_angle_gamma    93.10636507177223

_space_group_name_H-M_alt    "P 1"
_space_group_IT_number       1

loop_
  _space_group_symop_operation_xyz
  'x, y, z'

loop_
  _atom_site_type_symbol
  _atom_site_label
  _atom_site_symmetry_multiplicity
  _atom_site_fract_x
  _atom_site_fract_y
  _atom_site_fract_z
  _atom_site_occupancy
  Mg  Mg1       1.0  0.8863798431844927  0.6900265204855458  0.3308507624809138  1.0000
  Mg  Mg2       1.0  0.3609776602925122  0.3109403985568591  0.670758120941386  1.0000
  Mg  Mg3       1.0  0.19632394204455736  0.6408325457781597  0.3099849980750235  1.0000
  Mg  Mg4       1.0  0.0500205847361883  0.35981687295161174  0.6890644474867926  1.0000
  Mg  Mg5       1.0  0.5555393394330537  0.6691502340652845  0.35916876535964803  1.0000
  Mg  Mg6       1.0  0.6902053466975884  0.3292471350775372  0.6401825260422668  1.0000
  H   H1        1.0  0.4308156076153437  0.5950184487903128  0.2074306006726587  1.0000
  H   H2        1.0  0.41597179141249524  0.5702259235720886  0.1445817908096743  1.0000
  H   H3        1.0  0.24866673222358307  0.5602303401852635  0.09672178309746467  1.0000
  H   H4        1.0  0.05822850913905599  0.5298285391047769  0.03735094987214884  1.0000
  H   H5        1.0  0.9670588360301763  0.5267968852817262  0.9865835747427028  1.0000
  H   H6        1.0  0.770832539758004  0.4961159612113875  0.9276862623890094  1.0000
  H   H7        1.0  0.5735409976308218  0.4549164663619791  0.878936774548329  1.0000
  H   H8        1.0  0.8173347599300483  0.41042356810914515  0.7917218225777914  1.0000
  H   H9        1.0  0.9727185664361785  0.5938057406260738  0.16077930021499753  1.0000
  H   H10       1.0  0.1428581553020862  0.6285769083160204  0.22278576926080965  1.0000
  H   H11       1.0  0.8009248665058523  0.5587838706444472  0.10836403668868407  1.0000
  H   H12       1.0  0.17253096972854817  0.41315659673415434  0.8852996567190132  1.0000
  H   H13       1.0  0.369343134928414  0.4438383398741408  0.9444724121866199  1.0000
  H   H14       1.0  0.9220593693200385  0.41189380000543696  0.8443398174653892  1.0000
  H   H15       1.0  0.1010058772268323  0.38122250489455206  0.7774164169299453  1.0000
  H   H16       1.0  0.2724366718087836  0.4208495065497644  0.839342897718673  1.0000
  H   H17       1.0  0.5776689820887029  0.48818796261843306  0.9844310169592703  1.0000
  H   H18       1.0  0.767422386069583  0.5175578992367774  0.044224615393815656  1.0000
  H   H19       1.0  0.8358219971915801  0.6123811915169382  0.4049800156108743  1.0000
  H   H20       1.0  0.8456793975791966  0.5743660606848734  0.42975470049106695  1.0000
  H   H21       1.0  0.688379119779249  0.5365002850470687  0.4397863957021286  1.0000
  H   H22       1.0  0.5283239359675774  0.5075313128919559  0.47019090311191286  1.0000
  H   H23       1.0  0.4401726915863334  0.4597873247292055  0.47320397187417035  1.0000
  H   H24       1.0  0.2745107098379833  0.43156355816605435  0.5038725954563219  1.0000
  H   H25       1.0  0.11831849307199598  0.42402401045724497  0.5450921016222594  1.0000
  H   H26       1.0  0.406785102078409  0.38129384134475686  0.589565845522749  1.0000
  H   H27       1.0  0.37910724409955787  0.5669938268802993  0.40621600217047427  1.0000
  H   H28       1.0  0.5143838304650429  0.5942381849068566  0.37142963931084694  1.0000
  H   H29       1.0  0.24202159691585481  0.549619055222813  0.4412512114302913  1.0000
  H   H30       1.0  0.7591142306915585  0.47213500755746196  0.5868422541161279  1.0000
  H   H31       1.0  0.9253282576525308  0.5006286220744938  0.5561729259235902  1.0000
  H   H32       1.0  0.5098776841621628  0.43245619114898654  0.5881061948407761  1.0000
  H   H33       1.0  0.7196667416979421  0.39619266617864907  0.6187903766463947  1.0000
  H   H34       1.0  0.8514832855931118  0.41849417595126676  0.5791597628926225  1.0000
  H   H35       1.0  0.08947733128552214  0.49623499248421854  0.511796758534274  1.0000
  H   H36       1.0  0.24981234069502983  0.5266908513793354  0.4824467551403586  1.0000
  H   H37       1.0  0.22337247357502574  0.7925927984432092  0.3875930451554623  1.0000
  H   H38       1.0  0.2712290739899429  0.8554138783776606  0.4256398412171406  1.0000
  H   H39       1.0  0.15185220796112006  0.9032955228029347  0.4635117079012047  1.0000
  H   H40       1.0  0.02084634839616232  0.9626728933211339  0.49246155017252136  1.0000
  H   H41       1.0  0.9804585133184175  0.013423323218795198  0.5402127492946036  1.0000
  H   H42       1.0  0.8430942416892719  0.07231850124688317  0.5684308932997979  1.0000
  H   H43       1.0  0.6944670285792327  0.12106220047357395  0.5759583573020207  1.0000
  H   H44       1.0  0.025609388696587077  0.20827006010696886  0.6186932732177226  1.0000
  H   H45       1.0  0.8119233968828395  0.8392462717338629  0.43304667806346936  1.0000
  H   H46       1.0  0.920008996615209  0.7772322707640383  0.4057944228450837  1.0000
  H   H47       1.0  0.6924090353314154  0.8916305145957394  0.450395184511656  1.0000
  H   H48       1.0  0.2871152604546339  0.1147067191762545  0.5278485546414088  1.0000
  H   H49       1.0  0.42479675856376525  0.055536242685704486  0.49935274905979543  1.0000
  H   H50       1.0  0.07761591304218028  0.15566323896877782  0.5675479678995288  1.0000
  H   H51       1.0  0.3236469857854942  0.22259448264279058  0.6037976033436862  1.0000
  H   H52       1.0  0.43309591050002166  0.16066744218356624  0.581501431067494  1.0000
  H   H53       1.0  0.5933422200701414  0.015565621784176602  0.5037557806855729  1.0000
  H   H54       1.0  0.7231634740157984  0.9557536244872932  0.47331218748595916  1.0000
  C   C1        1.0  0.8866088625893982  0.6327446763624636  0.2506077512040648  1.0000
  C   C2        1.0  0.5874757874294758  0.6023729879296339  0.21015885502779946  1.0000
  C   C3        1.0  0.6854478895070812  0.5917373039050273  0.17890956232198352  1.0000
  C   C4        1.0  0.5739957128645229  0.5726607922125593  0.14339561239214754  1.0000
  C   C5        1.0  0.6430393465878196  0.5581975920222034  0.11020455454354314  1.0000
  C   C6        1.0  0.5241490698539124  0.5409260467831416  0.07539523340904013  1.0000
  C   C7        1.0  0.32208072867362597  0.5440147898116122  0.07229692337630673  1.0000
  C   C8        1.0  0.2143643022917487  0.5270774382250137  0.03859327368657266  1.0000
  C   C9        1.0  0.30118474142562224  0.5061313954031447  0.006003175828368485  1.0000
  C   C10       1.0  0.184066187628865  0.4877972663762262  0.9704433881547702  1.0000
  C   C11       1.0  0.011587619637566503  0.5014561531030777  0.9646753246274711  1.0000
  C   C12       1.0  0.9003419128521982  0.48409652852977564  0.9312532492341319  1.0000
  C   C13       1.0  0.9555037584430363  0.45193379658527255  0.9016928919983085  1.0000
  C   C14       1.0  0.239453850608335  0.4557577377651256  0.9409260435649712  1.0000
  C   C15       1.0  0.6603901248469342  0.4367806662229156  0.8573773797264366  1.0000
  C   C16       1.0  0.660911178436663  0.40327809338845794  0.7894481049556176  1.0000
  C   C17       1.0  0.5669017581859066  0.38146252554048476  0.7541906126717918  1.0000
  C   C18       1.0  0.6863778406084291  0.3705300441580873  0.7231968049549877  1.0000
  C   C19       1.0  0.5032222177043194  0.5033700120539704  0.008961282542074334  1.0000
  C   C20       1.0  0.6112076367286787  0.5203804137321623  0.042764315140665525  1.0000
  C   C21       1.0  0.8895067836553351  0.6013515507495767  0.1842956839342875  1.0000
  C   C22       1.0  0.9861394214831593  0.6209511047575801  0.21886879817621716  1.0000
  C   C23       1.0  0.6811404559119579  0.6224192855261064  0.24567561322273687  1.0000
  C   C24       1.0  0.12803928594001943  0.4383733613296739  0.9074901458404837  1.0000
  C   C25       1.0  0.8456434707129433  0.432664033062366  0.8660304727483633  1.0000
  C   C26       1.0  0.5608082560936509  0.4166689400266748  0.8207173340655274  1.0000
  C   C27       1.0  0.3603402593737854  0.37190933227013545  0.7496013871452973  1.0000
  C   C28       1.0  0.25887847940014547  0.38745513784078867  0.7811653374233385  1.0000
  C   C29       1.0  0.35549401818072107  0.40940481422347114  0.8155048346243773  1.0000
  C   C30       1.0  0.5611823758611436  0.6316648125065071  0.27632975369665047  1.0000
  C   C31       1.0  0.25386273537828424  0.6178679206727508  0.36726379738900045  1.0000
  C   C32       1.0  0.9851374995400802  0.6077694846080488  0.39761989037010176  1.0000
  C   C33       1.0  0.0937772513391124  0.5871703080174129  0.408263451633772  1.0000
  C   C34       1.0  0.0012747809368605818  0.5707422277393946  0.42734019430756126  1.0000
  C   C35       1.0  0.08474321339922142  0.5520370731262361  0.4418318140004018  1.0000
  C   C36       1.0  0.9831368013509303  0.5345009146398069  0.4591043481524721  1.0000
  C   C37       1.0  0.7779852047993003  0.5283017343194557  0.4560101841988455  1.0000
  C   C38       1.0  0.6872062375395487  0.5115261231348498  0.47294052020466637  1.0000
  C   C39       1.0  0.7949843710030036  0.49987819952963963  0.4938816187994489  1.0000
  C   C40       1.0  0.6961346395925787  0.48265910177288857  0.5122179574226989  1.0000
  C   C41       1.0  0.5099778091250967  0.4632338848344729  0.4985559094290152  1.0000
  C   C42       1.0  0.4159978233726349  0.44717350028963665  0.5159120070669162  1.0000
  C   C43       1.0  0.5032743503373922  0.44978629831832956  0.5480819771587946  1.0000
  C   C44       1.0  0.7834817489507342  0.485177589521946  0.5442583692080163  1.0000
  C   C45       1.0  0.2233403344438258  0.42059905466794584  0.5632191631936863  1.0000
  C   C46       1.0  0.2574563047107715  0.38613723476379386  0.5966941939016904  1.0000
  C   C47       1.0  0.18527094931275911  0.3726916825350486  0.618507429430899  1.0000
  C   C48       1.0  0.3157427015939476  0.352655623855668  0.6294641393420831  1.0000
  C   C49       1.0  0.9997886901133981  0.5055949249007909  0.4966332103787892  1.0000
  C   C50       1.0  0.09076199624002611  0.5224065684523964  0.4796356346105951  1.0000
  C   C51       1.0  0.28826323391181313  0.5829590786257342  0.39866833480721203  1.0000
  C   C52       1.0  0.3652692882199417  0.5979419525362245  0.3790691731004756  1.0000
  C   C53       1.0  0.058727822503080146  0.6232457617731058  0.3775817577297218  1.0000
  C   C54       1.0  0.6893824220067302  0.46913137861358206  0.5616400043643281  1.0000
  C   C55       1.0  0.4126851669904638  0.43338656893008215  0.5673465889949725  1.0000
  C   C56       1.0  0.1439254643809846  0.40402298964101385  0.5833163959459639  1.0000
  C   C57       1.0  0.9882886126782464  0.3776706929864132  0.6280762541585219  1.0000
  C   C58       1.0  0.8712766320120338  0.39369640218912133  0.6125448272533801  1.0000
  C   C59       1.0  0.9459132482840572  0.40608437558475424  0.5905929537350545  1.0000
  C   C60       1.0  0.9294880771471695  0.64466071833575  0.3683427713239098  1.0000
  C   C61       1.0  0.6359721103443403  0.7494130038476142  0.3821345949274715  1.0000
  C   C62       1.0  0.37729313578804363  0.7898526021783708  0.3922203590928462  1.0000
  C   C63       1.0  0.506473576492567  0.8211049464091499  0.41284480245694505  1.0000
  C   C64       1.0  0.43045232056611116  0.8566115483480982  0.42927082889111995  1.0000
  C   C65       1.0  0.5326937451054404  0.889799113938018  0.44798139657823555  1.0000
  C   C66       1.0  0.4486581419046231  0.9246087362231065  0.4655155195089833  1.0000
  C   C67       1.0  0.24968903928878197  0.9277122173801399  0.4717043380043435  1.0000
  C   C68       1.0  0.17572871842356372  0.961419297408746  0.4884644009005046  1.0000
  C   C69       1.0  0.29517493971662384  0.9940074917502242  0.5001083801339091  1.0000
  C   C70       1.0  0.2135448867684318  0.0295613826834611  0.5173332769382952  1.0000
  C   C71       1.0  0.04685238661289758  0.0353249733539229  0.5367647594921577  1.0000
  C   C72       1.0  0.9689980288952782  0.06874524700386787  0.5528311065828859  1.0000
  C   C73       1.0  0.05370153789881729  0.09830213475607509  0.5502198674028236  1.0000
  C   C74       1.0  0.29840896446646786  0.05908005808012718  0.5148101771145049  1.0000
  C   C75       1.0  0.8029018596317312  0.1426201608650004  0.57938242413843  1.0000
  C   C76       1.0  0.8714687576800203  0.21055091791742336  0.6138251290255354  1.0000
  C   C77       1.0  0.8127279782774007  0.24580813851158462  0.6272765550122301  1.0000
  C   C78       1.0  0.963233646985614  0.27680347947246986  0.6473381199272835  1.0000
  C   C79       1.0  0.4942762425406356  0.9910438413884107  0.4943970859287461  1.0000
  C   C80       1.0  0.5684012737302452  0.9572331838947434  0.4775991603212759  1.0000
  C   C81       1.0  0.7051608424023214  0.8157263156033565  0.41707706091723645  1.0000
  C   C82       1.0  0.7672118612302938  0.7811502573379555  0.40209117039309916  1.0000
  C   C83       1.0  0.4354507474452446  0.7543397042510306  0.3767446214163428  1.0000
  C   C84       1.0  0.22043176782440094  0.09251237726931548  0.530862251812728  1.0000
  C   C85       1.0  0.9795092600170036  0.13396841465904424  0.5666165102212304  1.0000
  C   C86       1.0  0.7400525196372312  0.17928494572173284  0.5959395283841147  1.0000
  C   C87       1.0  0.6107663464353408  0.25040366132299136  0.622309638195695  1.0000
  C   C88       1.0  0.4777448909649706  0.21884712683499424  0.6062847074309302  1.0000
  C   C89       1.0  0.5399873076042212  0.1845052129016125  0.5938890752821634  1.0000
  C   C90       1.0  0.2848570643175421  0.7236782627695818  0.3553361959492065  1.0000
  O   O1        1.0  0.9886242743744871  0.6529967752103473  0.2832405707368295  1.0000
  O   O2        1.0  0.8645753962958266  0.3828552582722651  0.7279619716480709  1.0000
  O   O3        1.0  0.604985789238313  0.3478869696657654  0.6908198915901309  1.0000
  O   O4        1.0  0.38246965017401624  0.6194303633603224  0.27093940904728697  1.0000
  O   O5        1.0  0.6424946992835388  0.6529319398919283  0.3090708018356878  1.0000
  O   O6        1.0  0.2590859915671544  0.3496761759373399  0.7172855763381705  1.0000
  O   O7        1.0  0.33557844128090153  0.6302422792348708  0.3470025589265476  1.0000
  O   O8        1.0  0.48162648952311565  0.3450968783266645  0.6171441218546505  1.0000
  O   O9        1.0  0.25706313242053364  0.3429503384110149  0.6521336403611784  1.0000
  O   O10       1.0  0.7630328921890949  0.6515129541252732  0.38058904154774337  1.0000
  O   O11       1.0  0.9894852755456325  0.6561355506947987  0.34707121552671777  1.0000
  O   O12       1.0  0.909325680409971  0.3676085769859938  0.6503283952771143  1.0000
  O   O13       1.0  0.7053461282409116  0.7167784972813891  0.3697399970248654  1.0000
  O   O14       1.0  0.13664261500405672  0.27203679229814526  0.6549075854745823  1.0000
  O   O15       1.0  0.9142345970467929  0.30917607169200056  0.6570499655730444  1.0000
  O   O16       1.0  0.111547619794706  0.7290648343235088  0.3484827568109949  1.0000
  O   O17       1.0  0.33339535159743144  0.6909376938464431  0.34388157345710363  1.0000
  O   O18       1.0  0.541865084593205  0.28272606922496374  0.6323998601876467  1.0000
