data_image0
_chemical_formula_structural       Ho4Ag4H32C56N8O32
_chemical_formula_sum              "Ho4 Ag4 H32 C56 N8 O32"
_cell_length_a       9.448188149936763
_cell_length_b       11.999534950363286
_cell_length_c       16.636529554677843
_cell_angle_alpha    96.74193383411277
_cell_angle_beta     89.99756149413417
_cell_angle_gamma    113.20216726699863

_space_group_name_H-M_alt    "P 1"
_space_group_IT_number       1

loop_
  _space_group_symop_operation_xyz
  'x, y, z'

loop_
  _atom_site_type_symbol
  _atom_site_label
  _atom_site_symmetry_multiplicity
  _atom_site_fract_x
  _atom_site_fract_y
  _atom_site_fract_z
  _atom_site_occupancy
  Ho  Ho1       1.0  0.7080150758123909  0.009812484772375299  0.4327592974367676  1.0000
  Ho  Ho2       1.0  0.6981839679501005  0.990178865301061  0.06722300142808278  1.0000
  Ho  Ho3       1.0  0.29199206972202735  0.9901933135820538  0.5672389724360443  1.0000
  Ho  Ho4       1.0  0.30181393447688276  0.009816917896941396  0.9327786707092682  1.0000
  Ag  Ag1       1.0  0.9560845016554963  0.6778674407820658  0.4153119894609815  1.0000
  Ag  Ag2       1.0  0.27817549516620227  0.32212550388422295  0.0846159282346193  1.0000
  Ag  Ag3       1.0  0.04390296480029572  0.32213287026812754  0.5846858392855765  1.0000
  Ag  Ag4       1.0  0.7218179777695679  0.6778656551671388  0.9153799621305794  1.0000
  H   H1        1.0  0.5153630887161567  0.6429499891591063  0.3771784047798477  1.0000
  H   H2        1.0  0.8725397208803186  0.3570633110715774  0.1227818277780628  1.0000
  H   H3        1.0  0.48463871973839895  0.35704302280265665  0.6228200389193927  1.0000
  H   H4        1.0  0.1274604706876516  0.6429370488475357  0.8772208135466428  1.0000
  H   H5        1.0  0.40649944165861013  0.8100052523161521  0.72023510413522  1.0000
  H   H6        1.0  0.5964784249922916  0.1897685515097294  0.7797882315248259  1.0000
  H   H7        1.0  0.5935037433267638  0.18999685962585733  0.2797598637813222  1.0000
  H   H8        1.0  0.4035186057707491  0.8102318374368948  0.2202174176682021  1.0000
  H   H9        1.0  0.8839553025840131  0.9106136932701642  0.664922543800877  1.0000
  H   H10       1.0  0.9733623569150538  0.0893046426258479  0.8351644226099282  1.0000
  H   H11       1.0  0.11605045472067128  0.08938298153558577  0.33507679556156217  1.0000
  H   H12       1.0  0.026638142057016794  0.9106984478621242  0.16483723613735884  1.0000
  H   H13       1.0  0.16190471140937004  0.5904039604722511  0.5486646891427184  1.0000
  H   H14       1.0  0.5717529605839076  0.409732144702545  0.9513464289713907  1.0000
  H   H15       1.0  0.8380936413630096  0.40959907080597435  0.45133095387323857  1.0000
  H   H16       1.0  0.4282429630309179  0.5902617982353033  0.048653892974463986  1.0000
  H   H17       1.0  0.44394261662216655  0.41316156936601806  0.3619103842718516  1.0000
  H   H18       1.0  0.031062872436464637  0.5868928898032875  0.13817675201416077  1.0000
  H   H19       1.0  0.5560507327970184  0.5868314591173486  0.6380898641525121  1.0000
  H   H20       1.0  0.9689335278463247  0.4131083542437394  0.8618229549696892  1.0000
  H   H21       1.0  0.9110717802341525  0.7986070345579674  0.7777351248264137  1.0000
  H   H22       1.0  0.11262849579129856  0.20140361056694894  0.7224007916301858  1.0000
  H   H23       1.0  0.08892657358662596  0.2013896510216213  0.22226541768722535  1.0000
  H   H24       1.0  0.8873697334644957  0.7986012901432882  0.2775992094449293  1.0000
  H   H25       1.0  0.23881021369695785  0.2868058208596054  0.4475703785511626  1.0000
  H   H26       1.0  0.9524579157527455  0.7132981713022771  0.0524505222851914  1.0000
  H   H27       1.0  0.7611790593823995  0.7131917540183109  0.5524278311982087  1.0000
  H   H28       1.0  0.04753618369014832  0.28669847245521396  0.9475458092182406  1.0000
  H   H29       1.0  0.44874631644776736  0.6951953941801037  0.8269589195414895  1.0000
  H   H30       1.0  0.7536328359689222  0.3045934045254768  0.6731246219362319  1.0000
  H   H31       1.0  0.5512486916321677  0.3048030661247765  0.1730363558610435  1.0000
  H   H32       1.0  0.24635935380693016  0.6954078860810496  0.3268798976364096  1.0000
  C   C1        1.0  0.4232690713985859  0.5817664495438634  0.4103927087854443  1.0000
  C   C2        1.0  0.8417713743328576  0.4183004471651228  0.08956965283613977  1.0000
  C   C3        1.0  0.5767280741068461  0.41823205229443516  0.5896067776286242  1.0000
  C   C4        1.0  0.15822715460124193  0.5817008207390088  0.9104324604394377  1.0000
  C   C5        1.0  0.5192645794794897  0.8080796005711688  0.7303913736294803  1.0000
  C   C6        1.0  0.7111611857099547  0.19165410767296712  0.7696453346122922  1.0000
  C   C7        1.0  0.48073907737278887  0.1919234549971803  0.269606675676215  1.0000
  C   C8        1.0  0.28883630522106046  0.8083472013315639  0.23036098967682508  1.0000
  C   C9        1.0  0.3408068322255175  0.6309519246435967  0.4629053540140831  1.0000
  C   C10       1.0  0.7101668190088547  0.36912272881593106  0.0370060150107676  1.0000
  C   C11       1.0  0.6591927317869448  0.36904929626802385  0.5370919466747068  1.0000
  C   C12       1.0  0.28983154066138167  0.630873968547874  0.9629957306494034  1.0000
  C   C13       1.0  0.7852341408496456  0.8650140812294607  0.7001651871384951  1.0000
  C   C14       1.0  0.9202556600912288  0.13485597435943927  0.7999040281044927  1.0000
  C   C15       1.0  0.2147672385605617  0.13498442118620343  0.2998342992729163  1.0000
  C   C16       1.0  0.07974575336734055  0.8651489444601307  0.20009777768842693  1.0000
  C   C17       1.0  0.964987496320546  0.9301058235992979  0.48879720185806963  1.0000
  C   C18       1.0  0.03495688140673537  0.06987485289238289  0.0112755080147835  1.0000
  C   C19       1.0  0.0350391901522613  0.06990730203083471  0.511202859333835  1.0000
  C   C20       1.0  0.9650216192704943  0.9301054173598043  0.9887279221083245  1.0000
  C   C21       1.0  0.22628536192345894  0.5533129103826013  0.5070678164996281  1.0000
  C   C22       1.0  0.6732743383354604  0.4467816245856397  0.9929169956562801  1.0000
  C   C23       1.0  0.7737110266604149  0.44668831009600024  0.49292948419115845  1.0000
  C   C24       1.0  0.3267226437555592  0.5532123184965484  0.0070833262888995935  1.0000
  C   C25       1.0  0.384725816419447  0.45620270338621777  0.4028136299609812  1.0000
  C   C26       1.0  0.9288493795442392  0.5438759302142768  0.09720501508389388  1.0000
  C   C27       1.0  0.6152683005718201  0.5437939757239149  0.5971863109820461  1.0000
  C   C28       1.0  0.07114748383126093  0.45612623978276173  0.9027959685693004  1.0000
  C   C29       1.0  0.3772411006204378  0.7657449482452133  0.4751297242097435  1.0000
  C   C30       1.0  0.6119506603226553  0.23429861126692222  0.02470532400790399  1.0000
  C   C31       1.0  0.6227578680085345  0.23425719847207913  0.5248688531490586  1.0000
  C   C32       1.0  0.38805738717140753  0.7656962945613087  0.9752998840395719  1.0000
  C   C33       1.0  0.6217620663319108  0.9458679647273694  0.6219850307591415  1.0000
  C   C34       1.0  0.6758421933496735  0.053769470160929686  0.8780112967178579  1.0000
  C   C35       1.0  0.3782373712392371  0.054135119724151116  0.37801602641554405  1.0000
  C   C36       1.0  0.3241716348922523  0.9462327610666038  0.12199570265735818  1.0000
  C   C37       1.0  0.8007092637150562  0.8017321806775893  0.762252186450432  1.0000
  C   C38       1.0  0.9990804559204494  0.19818937392456354  0.7378453235686847  1.0000
  C   C39       1.0  0.19928710836883565  0.19826265874974064  0.2377464042984343  1.0000
  C   C40       1.0  0.0009177762600812365  0.8018155326777716  0.2621552790796997  1.0000
  C   C41       1.0  0.2704800030056801  0.38480297811620545  0.4499532545788653  1.0000
  C   C42       1.0  0.8860688151644921  0.6152915794089394  0.050054065852641785  1.0000
  C   C43       1.0  0.7295124484269876  0.6151946030868344  0.5500455567417786  1.0000
  C   C44       1.0  0.11392727186473901  0.3847069222850194  0.9499454205620947  1.0000
  C   C45       1.0  0.7078098330911046  0.929060752263936  0.24447381775345886  1.0000
  C   C46       1.0  0.7787922153899912  0.07075553352724738  0.2554459810962797  1.0000
  C   C47       1.0  0.29219549119610383  0.07094775280224039  0.7555210632502066  1.0000
  C   C48       1.0  0.22121127699948284  0.929249308983614  0.7445480042428513  1.0000
  C   C49       1.0  0.5427632435088865  0.7448394189941606  0.7902846171745067  1.0000
  C   C50       1.0  0.7979811106575525  0.25495158782245386  0.7097764588545201  1.0000
  C   C51       1.0  0.4572364674179993  0.25515997962230585  0.20971313804125197  1.0000
  C   C52       1.0  0.20201365623866951  0.745050623130659  0.29022873581287456  1.0000
  C   C53       1.0  0.6432428206176369  0.8715979573494154  0.6849103155310416  1.0000
  C   C54       1.0  0.7716006556621055  0.1281343134398512  0.8151163241738217  1.0000
  C   C55       1.0  0.35676295611175846  0.12840510439971098  0.3150883353465872  1.0000
  C   C56       1.0  0.22839697048441795  0.8718651497011078  0.18488804834919387  1.0000
  N   N1        1.0  0.19346523722381181  0.43272698772103263  0.5020085236939096  1.0000
  N   N2        1.0  0.7610866018600573  0.5673772986648725  0.9980197142186069  1.0000
  N   N3        1.0  0.8065285830138789  0.5672733300873033  0.4979899066219247  1.0000
  N   N4        1.0  0.23890719895292278  0.43261663220008023  0.0019794045820375975  1.0000
  N   N5        1.0  0.6815047671447798  0.7432866752750724  0.8075653552031027  1.0000
  N   N6        1.0  0.9383121291875938  0.2565698987723123  0.6925067747090877  1.0000
  N   N7        1.0  0.31848902489401354  0.25670723791356653  0.19243195887774786  1.0000
  N   N8        1.0  0.06168339358178786  0.743435939239127  0.3074957061839072  1.0000
  O   O1        1.0  0.8473161232577907  0.8837096301162859  0.4406371710025425  1.0000
  O   O2        1.0  0.9637671743492575  0.11618705264093876  0.05952276569265538  1.0000
  O   O3        1.0  0.1527022013736641  0.11630158957449045  0.5593549226959168  1.0000
  O   O4        1.0  0.03622615669361516  0.883793243200422  0.9404830707142011  1.0000
  O   O5        1.0  0.6671283517276477  0.878456622229933  0.30799652551937834  1.0000
  O   O6        1.0  0.7887237736501905  0.12139964778792493  0.1919575020036817  1.0000
  O   O7        1.0  0.3328744305359452  0.12155103319493321  0.6920048992687242  1.0000
  O   O8        1.0  0.21127220928717336  0.8786071102814216  0.8080456539853953  1.0000
  O   O9        1.0  0.7289231827232995  0.9862764260428774  0.5739012331509342  1.0000
  O   O10       1.0  0.7427183330236106  0.013506323101537999  0.9261053650823924  1.0000
  O   O11       1.0  0.27108123877632556  0.013730274260126398  0.42609590710015505  1.0000
  O   O12       1.0  0.2572921154291094  0.9864912664473734  0.07389404780020929  1.0000
  O   O13       1.0  0.5085879410707504  0.8346907326436647  0.45501691840008357  1.0000
  O   O14       1.0  0.6744833452333836  0.16546290323108787  0.0447778493667172  1.0000
  O   O15       1.0  0.4914285644102919  0.16531050236159217  0.544981585424587  1.0000
  O   O16       1.0  0.3255283280346645  0.8345392511103852  0.9552213295573679  1.0000
  O   O17       1.0  0.4964458140988482  0.9609085951537323  0.6226053502424732  1.0000
  O   O18       1.0  0.535382312687041  0.03847218627523569  0.8773619953258701  1.0000
  O   O19       1.0  0.5035608489181486  0.0390898903073023  0.3773923314458045  1.0000
  O   O20       1.0  0.4646250382564004  0.9615319076261596  0.12264876053923496  1.0000
  O   O21       1.0  0.2742889306375389  0.7987213256580504  0.5051519279614495  1.0000
  O   O22       1.0  0.47601244534818216  0.20121857263191598  0.9946448530454362  1.0000
  O   O23       1.0  0.7257227415821034  0.20128717438205962  0.4948423514649534  1.0000
  O   O24       1.0  0.5239811036305679  0.7987727396142075  0.00536667822468929  1.0000
  O   O25       1.0  0.6960587922336429  0.8756068794685632  0.1728327904866092  1.0000
  O   O26       1.0  0.8206934215688692  0.12418706766960946  0.3270908729751127  1.0000
  O   O27       1.0  0.303950654140678  0.12440351917539517  0.8271688548666205  1.0000
  O   O28       1.0  0.1793246249057815  0.875821480373375  0.672908219033431  1.0000
  O   O29       1.0  0.03202797390401437  0.871593599600672  0.5204430366862951  1.0000
  O   O30       1.0  0.1605544188406327  0.12844284910058687  0.9796312592596195  1.0000
  O   O31       1.0  0.9679813167816959  0.12841860366213348  0.4795563494201716  1.0000
  O   O32       1.0  0.839429805138252  0.871538283010139  0.020366830223586905  1.0000
