data_image0
_chemical_formula_structural       La4H108C124N8O40
_chemical_formula_sum              "La4 H108 C124 N8 O40"
_cell_length_a       10.197823497021238
_cell_length_b       12.829895143924551
_cell_length_c       26.327333067981865
_cell_angle_alpha    94.71838229323791
_cell_angle_beta     89.99983456786899
_cell_angle_gamma    89.99984977976268

_space_group_name_H-M_alt    "P 1"
_space_group_IT_number       1

loop_
  _space_group_symop_operation_xyz
  'x, y, z'

loop_
  _atom_site_type_symbol
  _atom_site_label
  _atom_site_symmetry_multiplicity
  _atom_site_fract_x
  _atom_site_fract_y
  _atom_site_fract_z
  _atom_site_occupancy
  La  La1       1.0  0.48899546625089135  0.19444874650316984  0.7208272356200284  1.0000
  La  La2       1.0  0.9889958758216012  0.3055502860163841  0.779171887452705  1.0000
  La  La3       1.0  0.5110027547413551  0.8055515771597258  0.2791728072233752  1.0000
  La  La4       1.0  0.0110023451734591  0.6944492541206913  0.22082774485215853  1.0000
  H   H1        1.0  0.4917829354011404  0.09384803198355482  0.8680774893896129  1.0000
  H   H2        1.0  0.9917811644258165  0.40615177767841704  0.6319220408357965  1.0000
  H   H3        1.0  0.5082182273910831  0.9061530766489058  0.1319233438812901  1.0000
  H   H4        1.0  0.0082180371706571  0.593848543089102  0.36807724222551735  1.0000
  H   H5        1.0  0.5322403094944549  0.05836048748038541  0.9588831497832686  1.0000
  H   H6        1.0  0.0322413995939215  0.4416372437489216  0.5411160564801705  1.0000
  H   H7        1.0  0.4677588920991838  0.9416390555498209  0.04111724230248369  1.0000
  H   H8        1.0  0.9677578020039518  0.5583622949399044  0.4588831959333461  1.0000
  H   H9        1.0  0.14613607054934621  0.4446236351218502  0.0706782879782253  1.0000
  H   H10       1.0  0.6461322678725239  0.05537970693827531  0.4293205541111078  1.0000
  H   H11       1.0  0.8538660728513321  0.5553766856423011  0.929320995081305  1.0000
  H   H12       1.0  0.3538698755281402  0.9446198331943094  0.5706790781913682  1.0000
  H   H13       1.0  0.4865996808424952  0.4302979305340529  0.6635750981804803  1.0000
  H   H14       1.0  0.9865984815816445  0.0697018924488546  0.8364248182337448  1.0000
  H   H15       1.0  0.5134005013553704  0.5697016096007772  0.33642453412318923  1.0000
  H   H16       1.0  0.013399739407787999  0.9302992147398542  0.1635756351481987  1.0000
  H   H17       1.0  0.13325587009132533  0.1466851989205296  0.9960617165206217  1.0000
  H   H18       1.0  0.6332571842696311  0.35331464857222267  0.5039378388279303  1.0000
  H   H19       1.0  0.8667443121037124  0.8533143441085543  0.003938675564533899  1.0000
  H   H20       1.0  0.3667420173254285  0.6466856736424235  0.4960618241241264  1.0000
  H   H21       1.0  0.3539596082715377  0.08988783942719893  0.023236816665715303  1.0000
  H   H22       1.0  0.8539611486583496  0.4101119010972739  0.47676241007424386  1.0000
  H   H23       1.0  0.6460405739221003  0.9101124856805709  0.9767636060672374  1.0000
  H   H24       1.0  0.1460380529381169  0.5898884196702455  0.5232368729870771  1.0000
  H   H25       1.0  0.0995903563195171  0.5612293408666105  0.6789818556621371  1.0000
  H   H26       1.0  0.5995890356937892  0.9387708873711704  0.8210182692968149  1.0000
  H   H27       1.0  0.9004088452713077  0.43877098568940903  0.32101894696215544  1.0000
  H   H28       1.0  0.4004082046984934  0.061230996108847094  0.1789806951705515  1.0000
  H   H29       1.0  0.1638952211519822  0.7036148020428997  0.6246966836009945  1.0000
  H   H30       1.0  0.66389494750878  0.7963837118241627  0.8753025421402896  1.0000
  H   H31       1.0  0.8361029998402714  0.29638552161999604  0.3753033592424089  1.0000
  H   H32       1.0  0.33610131228348916  0.20361660894672443  0.12469674092281482  1.0000
  H   H33       1.0  0.3901191099554567  0.70743116406733  0.588943058051342  1.0000
  H   H34       1.0  0.8901195641498418  0.7925676136146719  0.9110559234417154  1.0000
  H   H35       1.0  0.6098781304339981  0.29257072230694087  0.4110566661975028  1.0000
  H   H36       1.0  0.109876695643834  0.20743192507752892  0.0889433289735919  1.0000
  H   H37       1.0  0.5510114402463984  0.5699286328530205  0.6080827339378772  1.0000
  H   H38       1.0  0.051010945644591695  0.9300701381759213  0.8919162490833373  1.0000
  H   H39       1.0  0.44898383894306454  0.43007168936611606  0.3919169290165669  1.0000
  H   H40       1.0  0.9489843335448641  0.0699301840432156  0.10808341387110691  1.0000
  H   H41       1.0  0.44662672786714097  0.0717039171943341  0.4824200113042494  1.0000
  H   H42       1.0  0.9466267130999313  0.4282940468807296  0.017579041536755796  1.0000
  H   H43       1.0  0.5533734543293107  0.9282956243876228  0.5175800008901632  1.0000
  H   H44       1.0  0.053373469103540606  0.571702364939341  0.9824204681757183  1.0000
  H   H45       1.0  0.35299906408911846  0.34029076409391484  0.5848568215702984  1.0000
  H   H46       1.0  0.852998945203048  0.15970936495731544  0.9151432571878431  1.0000
  H   H47       1.0  0.6469991569087555  0.6597079925173476  0.4151424001960251  1.0000
  H   H48       1.0  0.147000256387777  0.8402909615987041  0.0848575454364493  1.0000
  H   H49       1.0  0.3549474833085213  0.16020037361801087  0.410203437808434  1.0000
  H   H50       1.0  0.8549452630455718  0.3397954528070457  0.0897952546036578  1.0000
  H   H51       1.0  0.6450526988949647  0.8397968188336267  0.5897957226611014  1.0000
  H   H52       1.0  0.1450539385536871  0.6602017425399679  0.910204665647953  1.0000
  H   H53       1.0  0.2654363819771747  0.43151940557449103  0.5120282877461478  1.0000
  H   H54       1.0  0.7654350426636327  0.0684777914219055  0.9879706351509583  1.0000
  H   H55       1.0  0.7345628196235053  0.5684785689569551  0.4879709033717745  1.0000
  H   H56       1.0  0.23456317833564808  0.9315201831106704  0.012028555967567887  1.0000
  H   H57       1.0  0.2623479599648348  0.3409110037871415  0.424957376025951  1.0000
  H   H58       1.0  0.7623474253453041  0.15908659893231197  0.0750414902028709  1.0000
  H   H59       1.0  0.7376512416358523  0.6590877513758715  0.5750414658490257  1.0000
  H   H60       1.0  0.23765079565396965  0.8409105949686901  0.9249580501585939  1.0000
  H   H61       1.0  0.2651525117639508  0.4290563249254332  0.9057736988118563  1.0000
  H   H62       1.0  0.765156047678765  0.07093852503250989  0.5942247525930925  1.0000
  H   H63       1.0  0.7348496316408986  0.5709393077079526  0.0942265400331195  1.0000
  H   H64       1.0  0.234845115116272  0.9290618000741376  0.4057756701392634  1.0000
  H   H65       1.0  0.3436254995039647  0.41105579749021365  0.8165642682110956  1.0000
  H   H66       1.0  0.8436292946292171  0.0889443486893313  0.6834346822626998  1.0000
  H   H67       1.0  0.6563746826924728  0.5889429634601767  0.18343609322625554  1.0000
  H   H68       1.0  0.1563708875644281  0.9110567570500051  0.3165653912273072  1.0000
  H   H69       1.0  0.6436166347933182  0.3103640151140824  0.949850365936996  1.0000
  H   H70       1.0  0.1436165271705789  0.18963579127901645  0.5501446181336362  1.0000
  H   H71       1.0  0.3563864892059598  0.6896386504378924  0.05014862917458629  1.0000
  H   H72       1.0  0.8563836550216521  0.8103653159074469  0.44985583524711364  1.0000
  H   H73       1.0  0.7054723494452446  0.2975557956758763  0.858809647930137  1.0000
  H   H74       1.0  0.20547544635810766  0.20244934500444597  0.6411858554000176  1.0000
  H   H75       1.0  0.2945297939526199  0.7024460892456544  0.1411896964249948  1.0000
  H   H76       1.0  0.7945237552341311  0.7975509801044467  0.3588145673335319  1.0000
  H   H77       1.0  0.5185831801620111  0.35606311253287265  0.11302318397164872  1.0000
  H   H78       1.0  0.0185787622076745  0.1439381682708998  0.38697382171663014  1.0000
  H   H79       1.0  0.4814170020330338  0.6439372111277778  0.8869768588705612  1.0000
  H   H80       1.0  0.981423381187355  0.8560629389133183  0.6130266316629331  1.0000
  H   H81       1.0  0.5951998941220822  0.33676115518539274  0.023132989653952107  1.0000
  H   H82       1.0  0.0951996484579922  0.16323760385406416  0.47686383098772483  1.0000
  H   H83       1.0  0.4048022492771607  0.6632376057627526  0.9768673717822125  1.0000
  H   H84       1.0  0.9048024949412439  0.8367611570940809  0.5231365304484399  1.0000
  H   H85       1.0  0.2029772140739325  0.42570986019523366  0.9789205554680224  1.0000
  H   H86       1.0  0.7029763787911562  0.07429217091513611  0.5210782473219738  1.0000
  H   H87       1.0  0.7970259099295305  0.5742888978575422  0.021079046186059696  1.0000
  H   H88       1.0  0.2970247840081086  0.9257073692185712  0.47892138498109926  1.0000
  H   H89       1.0  0.09557163909476431  0.18125933664126853  0.9050318626531463  1.0000
  H   H90       1.0  0.5955723916476501  0.3187413778155915  0.5949673892447365  1.0000
  H   H91       1.0  0.9044285430960672  0.8187425526238812  0.0949686213754006  1.0000
  H   H92       1.0  0.4044268099459956  0.6812589458461744  0.40503265359807017  1.0000
  H   H93       1.0  0.5662429384857431  0.033389321029226  0.6314797595501602  1.0000
  H   H94       1.0  0.06624151649874932  0.46661067854141447  0.8685194973399675  1.0000
  H   H95       1.0  0.4337562631065097  0.9666125653427996  0.368519964697498  1.0000
  H   H96       1.0  0.9337596463005156  0.5333888615922932  0.1314801349631054  1.0000
  H   H97       1.0  0.5844911885603138  0.9671187468131135  0.6810614614474133  1.0000
  H   H98       1.0  0.08449156393838558  0.5328815131196052  0.8189379220767492  1.0000
  H   H99       1.0  0.41551193543894266  0.03288235747572801  0.31893823215006023  1.0000
  H   H100      1.0  0.9155125406608634  0.4671195926152407  0.18106215141087742  1.0000
  H   H101      1.0  0.2178024885289602  0.09321394206512679  0.7161123445401641  1.0000
  H   H102      1.0  0.7178025294736585  0.40678961779084233  0.7838861216392417  1.0000
  H   H103      1.0  0.782197693664685  0.9067871636742169  0.2838877289498356  1.0000
  H   H104      1.0  0.28219667211999416  0.5932114865024901  0.2161135719606193  1.0000
  H   H105      1.0  0.2823067308813095  0.006665293167671402  0.6784824333695597  1.0000
  H   H106      1.0  0.782306207328766  0.4933349978351486  0.8215177312904914  1.0000
  H   H107      1.0  0.7176944319137489  0.993336593202109  0.3215172908769048  1.0000
  H   H108      1.0  0.21769299426348  0.5066661079053106  0.17848234220011255  1.0000
  C   C1        1.0  0.2916097024608675  0.14044798114402823  0.881694550933581  1.0000
  C   C2        1.0  0.7916081861164272  0.3595538483634895  0.6183045240459535  1.0000
  C   C3        1.0  0.7083924409299697  0.8595562529078294  0.11830564514642822  1.0000
  C   C4        1.0  0.2083910154772326  0.6404472559298428  0.3816951695539075  1.0000
  C   C5        1.0  0.19024379983089548  0.1539015697274593  0.9175699368662793  1.0000
  C   C6        1.0  0.6902435746698572  0.34609971136912787  0.5824296105300206  1.0000
  C   C7        1.0  0.8097583435585207  0.8461018851399588  0.0824309883474186  1.0000
  C   C8        1.0  0.30975660752520173  0.6539013929230891  0.41757008306924354  1.0000
  C   C9        1.0  0.41419763028488177  0.10399302604035647  0.8965402682507246  1.0000
  C   C10       1.0  0.9141970845732814  0.396006965704025  0.6034604959238195  1.0000
  C   C11       1.0  0.5858035325073557  0.8960096438552372  0.10345986653427992  1.0000
  C   C12       1.0  0.08580309761892121  0.6039917995877389  0.3965410051857604  1.0000
  C   C13       1.0  0.45678721928205585  0.14782877570728908  0.5834402204772786  1.0000
  C   C14       1.0  0.9567864556162106  0.35216642020697003  0.9165587884949744  1.0000
  C   C15       1.0  0.543212962912989  0.8521715479533611  0.4165598223649313  1.0000
  C   C16       1.0  0.04321372658584719  0.6478299930602277  0.08344110110824941  1.0000
  C   C17       1.0  0.40535573665026453  0.2005172138589444  0.5384279736196262  1.0000
  C   C18       1.0  0.9053587349653042  0.29948201461171914  0.9615723907584339  1.0000
  C   C19       1.0  0.5946415037433894  0.7994815456476944  0.4615720079287726  1.0000
  C   C20       1.0  0.0946434084325318  0.7005175284151194  0.0384280013255278  1.0000
  C   C21       1.0  0.35340033622780714  0.30181321407396666  0.5463835297854729  1.0000
  C   C22       1.0  0.8533998050195424  0.19818222013918063  0.9536159847077741  1.0000
  C   C23       1.0  0.6465978847700596  0.6981847619057293  0.4536160412237891  1.0000
  C   C24       1.0  0.1465993965797168  0.8018149752078257  0.0463839355438367  1.0000
  C   C25       1.0  0.4065699869370789  0.1503220575299338  0.48909981866971464  1.0000
  C   C26       1.0  0.9065712614415274  0.34967443415342797  0.010899221549792096  1.0000
  C   C27       1.0  0.5934301952621867  0.8496767005262028  0.5108997829861509  1.0000
  C   C28       1.0  0.09342990135912288  0.6503235432700264  0.9891007293484222  1.0000
  C   C29       1.0  0.3547305623512145  0.20043317264699573  0.448404422548201  1.0000
  C   C30       1.0  0.8547316999868002  0.29956421698141616  0.0515939515302932  1.0000
  C   C31       1.0  0.6452686392508724  0.799564019805757  0.5515947379219241  1.0000
  C   C32       1.0  0.1452684822152648  0.7004329769173482  0.9484055888299779  1.0000
  C   C33       1.0  0.3030006998929622  0.30145241162649944  0.45657931239910715  1.0000
  C   C34       1.0  0.8029983087096682  0.19854509796253692  0.043419504431732  1.0000
  C   C35       1.0  0.6969985017077177  0.6985455629049468  0.5434198787188151  1.0000
  C   C36       1.0  0.19699991228959848  0.8014520959384726  0.9565800359297327  1.0000
  C   C37       1.0  0.27232729933311367  0.17311981453817538  0.8287011675615759  1.0000
  C   C38       1.0  0.7723313809859106  0.3268797172428535  0.6712989785743702  1.0000
  C   C39       1.0  0.7276699410521134  0.8268828568090354  0.17129934711655886  1.0000
  C   C40       1.0  0.22766978181054037  0.6731206064166672  0.3287010642672428  1.0000
  C   C41       1.0  0.4360393896756563  0.08467217240785631  0.947213785484017  1.0000
  C   C42       1.0  0.9360401369637757  0.415327764955748  0.5527858124765359  1.0000
  C   C43       1.0  0.5639607925165748  0.9153289347786071  0.0527866678967328  1.0000
  C   C44       1.0  0.0639590646298771  0.5846733393375841  0.44721388112332505  1.0000
  C   C45       1.0  0.4050493046758917  0.3919470437942748  0.8482084132531823  1.0000
  C   C46       1.0  0.9050522910744689  0.10805451714323058  0.6517882445332078  1.0000
  C   C47       1.0  0.5949518581275797  0.6080501501033596  0.15179112710649184  1.0000
  C   C48       1.0  0.0949449493220129  0.891945020100721  0.3482106279907597  1.0000
  C   C49       1.0  0.4477257580106765  0.37265587310901094  0.9376770511778363  1.0000
  C   C50       1.0  0.9477273836191743  0.12734167966787166  0.5623194015121697  1.0000
  C   C51       1.0  0.5522773659899727  0.6273436684695781  0.062322961014785995  1.0000
  C   C52       1.0  0.05227475978288249  0.8726562977544533  0.43768054938544765  1.0000
  C   C53       1.0  0.5727103875449658  0.3356896813222717  0.9225968801811532  1.0000
  C   C54       1.0  0.0727131029249009  0.1643095126657173  0.5774000588552894  1.0000
  C   C55       1.0  0.4272927364570832  0.664309078177624  0.0774031013636716  1.0000
  C   C56       1.0  0.9272880598729429  0.8356892482835504  0.42260030258146497  1.0000
  C   C57       1.0  0.6102283994688449  0.3266344684683203  0.8720856823833644  1.0000
  C   C58       1.0  0.1102307101477464  0.17336463522764942  0.627910071391149  1.0000
  C   C59       1.0  0.38977472453181866  0.673365853741835  0.1279139805663121  1.0000
  C   C60       1.0  0.8897704526486975  0.8266349078003045  0.3720903206934096  1.0000
  C   C61       1.0  0.40695606147891533  0.38099571554898387  0.9912991656010277  1.0000
  C   C62       1.0  0.9069532095125581  0.11900115289620318  0.5086984456573589  1.0000
  C   C63       1.0  0.5930451013203283  0.6190022633215904  0.008701165187936493  1.0000
  C   C64       1.0  0.09304697268530052  0.8809983872386339  0.4913011866463037  1.0000
  C   C65       1.0  0.4940429480477846  0.36022246563906896  0.0307257434974417  1.0000
  C   C66       1.0  0.9940415125330446  0.13977616465348316  0.4692713829207733  1.0000
  C   C67       1.0  0.5059591953514797  0.6397778565722092  0.9692739194528315  1.0000
  C   C68       1.0  0.0059616114689973005  0.8602218142148458  0.5307289478669972  1.0000
  C   C69       1.0  0.4553482142589829  0.36987427916572113  0.0810217855411253  1.0000
  C   C70       1.0  0.9553452226105038  0.13012756809026627  0.4189755104890622  1.0000
  C   C71       1.0  0.5446529485346616  0.630127608651179  0.918978318596082  1.0000
  C   C72       1.0  0.044656920787339495  0.869871974936565  0.5810248815948996  1.0000
  C   C73       1.0  0.27902158258061865  0.41073441788321935  0.006527525608632303  1.0000
  C   C74       1.0  0.7790220951429703  0.0892670541361511  0.4934707138161301  1.0000
  C   C75       1.0  0.7209805608214452  0.5892643401706722  0.9934720760460465  1.0000
  C   C76       1.0  0.22098004825627274  0.9107317068119941  0.5065296476200345  1.0000
  C   C77       1.0  0.24320491237035208  0.42035813279750295  0.057248638701239  1.0000
  C   C78       1.0  0.7432009300624145  0.0796442019120391  0.44274929500587484  1.0000
  C   C79       1.0  0.7567991922331316  0.5796429685959695  0.9427502951141521  1.0000
  C   C80       1.0  0.2568002327340295  0.9203561217474885  0.557250747835738  1.0000
  C   C81       1.0  0.24793491247347535  0.40263560154896544  0.7071156334267528  1.0000
  C   C82       1.0  0.7479368869777048  0.09736633379890239  0.7928850141849821  1.0000
  C   C83       1.0  0.7520642891173565  0.5973655056386208  0.2928848199545939  1.0000
  C   C84       1.0  0.25206231460750667  0.9026371210718765  0.2071159110305061  1.0000
  C   C85       1.0  0.28862200852440617  0.4871803004580143  0.6742195169687336  1.0000
  C   C86       1.0  0.788620095120109  0.012819193999860102  0.8257806093703692  1.0000
  C   C87       1.0  0.7113801348706373  0.5128215873577701  0.32578058716788416  1.0000
  C   C88       1.0  0.21137812586931656  0.9871811325572821  0.17422019325452004  1.0000
  C   C89       1.0  0.41618262973665304  0.4899427258725169  0.6544866874626649  1.0000
  C   C90       1.0  0.9161825401951162  0.010057256982477702  0.8455129346273011  1.0000
  C   C91       1.0  0.5838165718555929  0.5100583798679424  0.3455133860279318  1.0000
  C   C92       1.0  0.0838156807929167  0.9899446322849244  0.1544875494024396  1.0000
  C   C93       1.0  0.3644541672720649  0.4007405501574155  0.8983739636775567  1.0000
  C   C94       1.0  0.8644585355523944  0.09925641709545371  0.601624079113293  1.0000
  C   C95       1.0  0.6355479761285778  0.5992574287120361  0.1016263671108106  1.0000
  C   C96       1.0  0.1355426272454494  0.900742343853814  0.39837628232346134  1.0000
  C   C97       1.0  0.21216596817805575  0.1348293273046366  0.9682296468244119  1.0000
  C   C98       1.0  0.7121650755237425  0.36517268709638984  0.5317702844721452  1.0000
  C   C99       1.0  0.7878361752113605  0.8651741275627742  0.03177127838928579  1.0000
  C   C100      1.0  0.287833145467097  0.6348284186451991  0.46822978901904827  1.0000
  C   C101      1.0  0.335811958875702  0.10165222630578089  0.9832467360742143  1.0000
  C   C102      1.0  0.8358140101398489  0.3983479392231501  0.5167526037860029  1.0000
  C   C103      1.0  0.6641882233151152  0.8983488823278093  0.01675409719728549  1.0000
  C   C104      1.0  0.1641851914538108  0.6016531650701822  0.4832470898138581  1.0000
  C   C105      1.0  0.30347896752832076  0.3522253375680151  0.5056763786747567  1.0000
  C   C106      1.0  0.8034763391475294  0.14777099598679647  0.9943239869109205  1.0000
  C   C107      1.0  0.6965192534709601  0.647772636964554  0.4943228124437625  1.0000
  C   C108      1.0  0.1965218818475023  0.8522262022555863  0.005676693122779899  1.0000
  C   C109      1.0  0.19796336257780206  0.5642226694361554  0.6629941386800269  1.0000
  C   C110      1.0  0.697962913770894  0.9357765499092281  0.837005456202057  1.0000
  C   C111      1.0  0.8020338778116239  0.43577687504342316  0.337006633297662  1.0000
  C   C112      1.0  0.3020343266185606  0.06422533646505002  0.16299426804678768  1.0000
  C   C113      1.0  0.2341916651583986  0.6429621809931304  0.6323804765839043  1.0000
  C   C114      1.0  0.7341932098530819  0.8570369553534863  0.8676190742742095  1.0000
  C   C115      1.0  0.7658055752310347  0.3570381441180076  0.3676199461508389  1.0000
  C   C116      1.0  0.2658040305377725  0.1429641489420987  0.1323806193268453  1.0000
  C   C117      1.0  0.36138750342731646  0.6453389537564574  0.6126093645997059  1.0000
  C   C118      1.0  0.8613879286268826  0.8546598897476583  0.8873896518065294  1.0000
  C   C119      1.0  0.6386097369649448  0.3546613684604337  0.3873902983535444  1.0000
  C   C120      1.0  0.1386083311597588  0.14534199807486206  0.1126104523336551  1.0000
  C   C121      1.0  0.4520177120985381  0.5686422396219654  0.6236367207362506  1.0000
  C   C122      1.0  0.9520199275722163  0.9313571826727698  0.8763633558597874  1.0000
  C   C123      1.0  0.5479805088965364  0.43135808114667645  0.3763625623256672  1.0000
  C   C124      1.0  0.047979274012981014  0.0686447109348833  0.12363826784159221  1.0000
  N   N1        1.0  0.5266773277429736  0.3548085976843893  0.8353268103096526  1.0000
  N   N2        1.0  0.026680439057486204  0.14519461504933423  0.6646710976840284  1.0000
  N   N3        1.0  0.4733228544534853  0.6451917245291343  0.1646728526418144  1.0000
  N   N4        1.0  0.9733207237403647  0.8548049265315001  0.3353289145097876  1.0000
  N   N5        1.0  0.3306548390473125  0.40044887521263917  0.0947074248758213  1.0000
  N   N6        1.0  0.8306500885218141  0.09955325915618832  0.40529040256712534  1.0000
  N   N7        1.0  0.6693482849491231  0.5995522319704492  0.9052930285031382  1.0000
  N   N8        1.0  0.16935107427464402  0.9004478451349059  0.5947092910315419  1.0000
  O   O1        1.0  0.4316590729097243  0.19209285891388103  0.6272471551906663  1.0000
  O   O2        1.0  0.9316577996218314  0.30790474225096176  0.872752356150457  1.0000
  O   O3        1.0  0.5683401286783081  0.8079098124310846  0.372753359486275  1.0000
  O   O4        1.0  0.0683394407704228  0.6920947993343634  0.1272476560457392  1.0000
  O   O5        1.0  0.5215306160004829  0.0625787464793959  0.5755178806718817  1.0000
  O   O6        1.0  0.0215298555021519  0.43741744657693  0.9244816572017029  1.0000
  O   O7        1.0  0.4784695661917411  0.9374215800755011  0.4244829219518138  1.0000
  O   O8        1.0  0.9784722878998977  0.5625797502138354  0.0755186429388672  1.0000
  O   O9        1.0  0.3724605361107082  0.17320528158809614  0.8002590695085205  1.0000
  O   O10       1.0  0.872459503960613  0.3267963612482063  0.6997395273342166  1.0000
  O   O11       1.0  0.6275406266829435  0.8267973868603702  0.1997406853857413  1.0000
  O   O12       1.0  0.1275387170358613  0.6732031774417495  0.3002597250798971  1.0000
  O   O13       1.0  0.5632853340125976  0.3452654211607751  0.7870682782481778  1.0000
  O   O14       1.0  0.06328903633443872  0.15474004815349224  0.7129281576414073  1.0000
  O   O15       1.0  0.43671386758386876  0.6547341189751776  0.2129313540560887  1.0000
  O   O16       1.0  0.9367131070648114  0.8452594934262193  0.28707185455181167  1.0000
  O   O17       1.0  0.3283678598068533  0.32894782565598746  0.7134051101237802  1.0000
  O   O18       1.0  0.8283647351369794  0.1710531433528431  0.7865954091052885  1.0000
  O   O19       1.0  0.6716372253881601  0.671054847129362  0.2865957844403297  1.0000
  O   O20       1.0  0.17163250524964008  0.8289479652841153  0.21340542416798772  1.0000
  O   O21       1.0  0.30397880991160525  0.061692477478395305  0.7059277753845096  1.0000
  O   O22       1.0  0.8039776907882654  0.43831010577061136  0.7940713152122783  1.0000
  O   O23       1.0  0.6960213722792261  0.9383094117867613  0.2940727086440376  1.0000
  O   O24       1.0  0.1960215108053873  0.5616902178911615  0.20592872763052844  1.0000
  O   O25       1.0  0.6017699920641065  0.0340156895543373  0.667623463392367  1.0000
  O   O26       1.0  0.10176884037669252  0.4659842300731541  0.8323761302176962  1.0000
  O   O27       1.0  0.39822822892391935  0.9659861997130647  0.3323770206373666  1.0000
  O   O28       1.0  0.898233303021158  0.5340160935852437  0.1676239126233199  1.0000
  O   O29       1.0  0.1584990867489182  0.20273021351135878  0.8161047634663917  1.0000
  O   O30       1.0  0.6584982695007825  0.29726723136446515  0.6838950491565541  1.0000
  O   O31       1.0  0.8415020760489257  0.797268547437909  0.1838955979703698  1.0000
  O   O32       1.0  0.3414989708900791  0.7027338729311127  0.3161046444444935  1.0000
  O   O33       1.0  0.1342841074761765  0.40863994169028933  0.7269025701988953  1.0000
  O   O34       1.0  0.6342813456111429  0.0913606884244587  0.7730977743319586  1.0000
  O   O35       1.0  0.8657170553202603  0.5913596013376718  0.2730978218856634  1.0000
  O   O36       1.0  0.3657139335769131  0.9086404158733715  0.22690191927028283  1.0000
  O   O37       1.0  0.2971298486721352  0.40795560049019736  0.1424979611541062  1.0000
  O   O38       1.0  0.7971244969506232  0.09204817773432689  0.357500728104121  1.0000
  O   O39       1.0  0.7028713141201096  0.5920470694053962  0.8575021736308984  1.0000
  O   O40       1.0  0.2028766658416075  0.9079537115297  0.6424997559238292  1.0000
