data_image0
_chemical_formula_structural       Zn4H24C32S4N16O16
_chemical_formula_sum              "Zn4 H24 C32 S4 N16 O16"
_cell_length_a       8.812733959535723
_cell_length_b       10.06420667549885
_cell_length_c       13.552150332000476
_cell_angle_alpha    89.99999390968138
_cell_angle_beta     89.99997757879282
_cell_angle_gamma    117.12139986373995

_space_group_name_H-M_alt    "P 1"
_space_group_IT_number       1

loop_
  _space_group_symop_operation_xyz
  'x, y, z'

loop_
  _atom_site_type_symbol
  _atom_site_label
  _atom_site_symmetry_multiplicity
  _atom_site_fract_x
  _atom_site_fract_y
  _atom_site_fract_z
  _atom_site_occupancy
  Zn  Zn1       1.0  0.22027774446694096  0.7656896162791755  0.3883331615827643  1.0000
  Zn  Zn2       1.0  0.77972106176221  0.7343124388295268  0.8883341838678049  1.0000
  Zn  Zn3       1.0  0.7797195654181767  0.23431177745465703  0.6116644480219904  1.0000
  Zn  Zn4       1.0  0.22027910515706858  0.2656878784864107  0.1116663772977233  1.0000
  H   H1        1.0  0.13197227801954636  0.25675518147166804  0.6618336921596537  1.0000
  H   H2        1.0  0.86802863169779  0.24324447309630418  0.16183471551297401  1.0000
  H   H3        1.0  0.8680261796910715  0.7432440062582232  0.33816244166444426  1.0000
  H   H4        1.0  0.13197267051998562  0.7567580768092912  0.8381651077620803  1.0000
  H   H5        1.0  0.44461447333678455  0.4574324151274354  0.6349434494288957  1.0000
  H   H6        1.0  0.5553853183925741  0.042567241133426116  0.1349445630929296  1.0000
  H   H7        1.0  0.5553805596889705  0.5425667327246018  0.3650534222859321  1.0000
  H   H8        1.0  0.44461713165102185  0.9574331027684343  0.8650530465111858  1.0000
  H   H9        1.0  0.48781224680752205  0.672763789196921  0.526316397349909  1.0000
  H   H10       1.0  0.5121845999276006  0.8272362217756212  0.0263167720019197  1.0000
  H   H11       1.0  0.5121850568139267  0.32723982383360817  0.4736819501450782  1.0000
  H   H12       1.0  0.4878172824659331  0.1727630058308947  0.9736830512731344  1.0000
  H   H13       1.0  0.9666539084912319  0.15311346324879346  0.4123432893592138  1.0000
  H   H14       1.0  0.03334450475604463  0.34688380583329353  0.9123415499252019  1.0000
  H   H15       1.0  0.03334341391830266  0.8468834918897985  0.5876594854776016  1.0000
  H   H16       1.0  0.9666556746899109  0.6531120728888455  0.08765901124042591  1.0000
  H   H17       1.0  0.8584887903654492  0.9559871796485739  0.2782302518643291  1.0000
  H   H18       1.0  0.14151011238733702  0.5440149368191385  0.7782292352839661  1.0000
  H   H19       1.0  0.14150851951804813  0.04401421408422831  0.7217710471918296  1.0000
  H   H20       1.0  0.8584894806195112  0.45598648349897547  0.2217713258816119  1.0000
  H   H21       1.0  0.5345661738769325  0.7895954816860498  0.2710373432976994  1.0000
  H   H22       1.0  0.4654338830051899  0.7104044327849978  0.7710391865171643  1.0000
  H   H23       1.0  0.465431709919642  0.21040480904498796  0.7289624799778451  1.0000
  H   H24       1.0  0.5345674317386157  0.2895936785263871  0.2289621125385466  1.0000
  C   C1        1.0  0.0728137076036361  0.4915093251000329  0.5206878283816038  1.0000
  C   C2        1.0  0.9271850489908574  0.0084881622440847  0.0206888465198602  1.0000
  C   C3        1.0  0.9271841824566  0.5084887463343152  0.4793112570037081  1.0000
  C   C4        1.0  0.07281569810386647  0.991508832772574  0.9793124525359431  1.0000
  C   C5        1.0  0.16756226754905876  0.3552346858599905  0.6155450902325228  1.0000
  C   C6        1.0  0.8324375411860886  0.14476498121126016  0.115546127159412  1.0000
  C   C7        1.0  0.8324367578109674  0.6447656181648329  0.3844503057011934  1.0000
  C   C8        1.0  0.1675637672947019  0.8552353493972263  0.884454434005967  1.0000
  C   C9        1.0  0.33522713845366786  0.46326290105992746  0.6010750376212569  1.0000
  C   C10       1.0  0.6647721027926182  0.03674009637532551  0.101072433546598  1.0000
  C   C11       1.0  0.6647707328159032  0.5367418282647094  0.3989255235444702  1.0000
  C   C12       1.0  0.33522920568881914  0.9632602342335804  0.8989266518382237  1.0000
  C   C13       1.0  0.35985409594681544  0.584487578943197  0.5417516048370601  1.0000
  C   C14       1.0  0.6401455880290287  0.9155135663074107  0.04175194225893359  1.0000
  C   C15       1.0  0.6401454907976644  0.4155160606724382  0.4582467426576287  1.0000
  C   C16       1.0  0.3598562943645121  0.08448566129911231  0.9582478810161135  1.0000
  C   C17       1.0  0.5590183316124497  0.99395453963016  0.4630068708449002  1.0000
  C   C18       1.0  0.44098670340154206  0.5060419987319592  0.9630043019989928  1.0000
  C   C19       1.0  0.4409812739201089  0.006042442093530604  0.5369959039916168  1.0000
  C   C20       1.0  0.5590203254147852  0.4939539597463067  0.0369933076046109  1.0000
  C   C21       1.0  0.8317033806019938  0.07498269469599711  0.40570967505029637  1.0000
  C   C22       1.0  0.16829503219608458  0.4250167973789802  0.9057108485648726  1.0000
  C   C23       1.0  0.16829336789575705  0.9250153634451768  0.5942916240060044  1.0000
  C   C24       1.0  0.8317051347225474  0.5749835199365522  0.0942911883812201  1.0000
  C   C25       1.0  0.7714900100814719  0.9674370067277851  0.3311561811718349  1.0000
  C   C26       1.0  0.2285077172381592  0.5325606283586739  0.8311558802809316  1.0000
  C   C27       1.0  0.22850787997747096  0.03256106470573881  0.6688458557745989  1.0000
  C   C28       1.0  0.7714924559447812  0.46743746966057415  0.1688439429943642  1.0000
  C   C29       1.0  0.5962606937244957  0.8756663736484996  0.3269790091559273  1.0000
  C   C30       1.0  0.4037381725546327  0.6243334963548793  0.8269801343296166  1.0000
  C   C31       1.0  0.40373604851055944  0.12433390378998872  0.6730208141197735  1.0000
  C   C32       1.0  0.5962631359255044  0.3756668342532025  0.1730219026163198  1.0000
  S   S1        1.0  0.17965685728691488  0.47848849487512995  0.2714978399054999  1.0000
  S   S2        1.0  0.8203433823792425  0.021512201580684107  0.7715003366365281  1.0000
  S   S3        1.0  0.8203438772827384  0.5215129387363575  0.7284997696988142  1.0000
  S   S4        1.0  0.17965848748632868  0.9784914646188131  0.2285024381995484  1.0000
  N   N1        1.0  0.229292997778309  0.5990000402309621  0.5016635184345404  1.0000
  N   N2        1.0  0.7707055923053406  0.9009966754730745  0.0016660360935602998  1.0000
  N   N3        1.0  0.7707043246334919  0.4009969149090652  0.4983340911703138  1.0000
  N   N4        1.0  0.22929401322754472  0.09900030625082223  0.9983360008526744  1.0000
  N   N5        1.0  0.9626414520026146  0.6307372679500461  0.42547698857554656  1.0000
  N   N6        1.0  0.03735676027854144  0.8692614308675747  0.925477460791285  1.0000
  N   N7        1.0  0.0373552964967558  0.36926079019215763  0.5745206210293645  1.0000
  N   N8        1.0  0.9626462636761846  0.13073781003129173  0.0745231003738951  1.0000
  N   N9        1.0  0.4903857953708411  0.8890580663714688  0.3930511941081534  1.0000
  N   N10       1.0  0.5096164376710136  0.6109418066893043  0.8930500785689119  1.0000
  N   N11       1.0  0.5096126623378369  0.11094112135719311  0.6069493670576236  1.0000
  N   N12       1.0  0.49038715393280097  0.38905855050428784  0.10695048259616868  1.0000
  N   N13       1.0  0.27507740949317144  0.9122800934413889  0.528702757054134  1.0000
  N   N14       1.0  0.7249222921854043  0.5877188397842162  0.028703086626912004  1.0000
  N   N15       1.0  0.7249199066539945  0.08771908099472372  0.4712978041117921  1.0000
  N   N16       1.0  0.2750824409799223  0.4122815307019253  0.9712974745380194  1.0000
  O   O1        1.0  0.21442540194303228  0.6404912128197823  0.2685949714825639  1.0000
  O   O2        1.0  0.785574650816912  0.8595109223092836  0.7685967246801582  1.0000
  O   O3        1.0  0.7855713402929967  0.3595090646193243  0.7314026381222902  1.0000
  O   O4        1.0  0.21442721904897877  0.1404927438904195  0.2314053122656361  1.0000
  O   O5        1.0  0.17602845867644856  0.4353638673019305  0.164266150080465  1.0000
  O   O6        1.0  0.8239730228205533  0.06463468290809973  0.6642679060969314  1.0000
  O   O7        1.0  0.823974565279251  0.5646353735975539  0.8357321974138756  1.0000
  O   O8        1.0  0.17603170408079186  0.9353679068745322  0.33573413084851467  1.0000
  O   O9        1.0  0.31616379536851713  0.46343049895382643  0.3248900872885017  1.0000
  O   O10       1.0  0.6838324114208519  0.0365667922783288  0.8248918810914105  1.0000
  O   O11       1.0  0.6838335207789685  0.5365686754824923  0.6751097359871422  1.0000
  O   O12       1.0  0.3161666139356213  0.9634335117442346  0.17511163163538163  1.0000
  O   O13       1.0  0.009010948630532289  0.3859411743245289  0.3155521275556055  1.0000
  O   O14       1.0  0.9909881171162243  0.11405726499074122  0.8155560515137098  1.0000
  O   O15       1.0  0.9909875090804051  0.6140580134055754  0.6844432683782102  1.0000
  O   O16       1.0  0.009011482151379473  0.8859419360288217  0.1844504127741544  1.0000
