data_image0
_chemical_formula_structural       Li4H60C64S4N8
_chemical_formula_sum              "Li4 H60 C64 S4 N8"
_cell_length_a       8.554172379
_cell_length_b       9.61260052291401
_cell_length_c       18.0044
_cell_angle_alpha    90.0
_cell_angle_beta     90.0
_cell_angle_gamma    100.07557407700273

_space_group_name_H-M_alt    "P 1"
_space_group_IT_number       1

loop_
  _space_group_symop_operation_xyz
  'x, y, z'

loop_
  _atom_site_type_symbol
  _atom_site_label
  _atom_site_symmetry_multiplicity
  _atom_site_fract_x
  _atom_site_fract_y
  _atom_site_fract_z
  _atom_site_occupancy
  Li  Li1       1.0  0.8579651453593016  0.49998449069988027  0.7773049921130379  1.0000
  Li  Li2       1.0  0.6420420005522018  0.5000119622010288  0.277306658372396  1.0000
  Li  Li3       1.0  0.14203963249686782  0.5000140753934232  0.22269500788696206  1.0000
  Li  Li4       1.0  0.3579625695839042  0.4999855472960775  0.722693341627604  1.0000
  H   H1        1.0  0.6758554514812687  0.2086608435732131  0.8058352402745967  1.0000
  H   H2        1.0  0.8241405500885648  0.7913324395390973  0.3058341294350271  1.0000
  H   H3        1.0  0.3241407277936261  0.7913356093276889  0.1941642043056149  1.0000
  H   H4        1.0  0.17585575960617209  0.2086587303808187  0.6941630934660452  1.0000
  H   H5        1.0  0.605568177815492  0.9815715283995274  0.7367682344315867  1.0000
  H   H6        1.0  0.8944402675360195  0.0184196415203886  0.2367682344315867  1.0000
  H   H7        1.0  0.3944315085199008  0.0184249245013746  0.2632300993090553  1.0000
  H   H8        1.0  0.10556560204009459  0.9815725849957245  0.7632317655684132  1.0000
  H   H9        1.0  0.711782138671829  0.9664157125348822  0.6072721112616932  1.0000
  H   H10       1.0  0.7882273452800064  0.0335807403660269  0.1072726666814745  1.0000
  H   H11       1.0  0.2882203011440154  0.0335828535584213  0.3927273333185255  1.0000
  H   H12       1.0  0.2117770944362647  0.9664220521120653  0.8927289995778835  1.0000
  H   H13       1.0  0.8868883003847046  0.1803271599266409  0.5532958610117547  1.0000
  H   H14       1.0  0.6131182996668372  0.8196724627628527  0.0532930839128198  1.0000
  H   H15       1.0  0.113111801390815  0.8196714061666555  0.44670413898824524  1.0000
  H   H16       1.0  0.3868822948490376  0.1803345561000285  0.9467041389882453  1.0000
  H   H17       1.0  0.9517570863269285  0.3977260540576211  0.6327892070827161  1.0000
  H   H18       1.0  0.5482424996036173  0.6022735686318725  0.132787540823351  1.0000
  H   H19       1.0  0.048240885128322517  0.6022735686318725  0.3672102374975026  1.0000
  H   H20       1.0  0.4517553414317915  0.3977313370386142  0.8672080158183562  1.0000
  H   H21       1.0  0.0287896065624835  0.3159972815432326  0.8646186487747443  1.0000
  H   H22       1.0  0.47122462385984687  0.6839981147614722  0.3646175379351746  1.0000
  H   H23       1.0  0.9712165480339223  0.684002341146261  0.1353835729044022  1.0000
  H   H24       1.0  0.5287830378966305  0.3159972815432326  0.6353802403856861  1.0000
  H   H25       1.0  0.0409197692350531  0.22624471750094696  0.9946974073004355  1.0000
  H   H26       1.0  0.4590824328457259  0.7737549051885466  0.4946940747817195  1.0000
  H   H27       1.0  0.959075318319904  0.7737580749771453  0.0053075914776386  1.0000
  H   H28       1.0  0.540908031748188  0.2262362647313623  0.5053020372797761  1.0000
  H   H29       1.0  0.8526049847886625  0.2964270067631887  0.0903534691519852  1.0000
  H   H30       1.0  0.647382703220181  0.7035715593301148  0.5903551354113432  1.0000
  H   H31       1.0  0.1473819196251469  0.7035757857149036  0.9096481971073729  1.0000
  H   H32       1.0  0.3525916028114935  0.2964206671859984  0.4096470862678032  1.0000
  H   H33       1.0  0.6596772730411898  0.4488167066175208  0.049791717580149  1.0000
  H   H34       1.0  0.8403182599688961  0.5511860858605715  0.5498000488769392  1.0000
  H   H35       1.0  0.3403114235529756  0.5511892556491631  0.9502049499011349  1.0000
  H   H36       1.0  0.159671528345207  0.44881353682892927  0.45020772700006967  1.0000
  H   H37       1.0  0.6710592922724246  0.5373605246092481  0.918147786096732  1.0000
  H   H38       1.0  0.8289508148396081  0.46263909808024545  0.4181555619737409  1.0000
  H   H39       1.0  0.32894418614374393  0.4626433244650414  0.0818488813845519  1.0000
  H   H40       1.0  0.1710557551969245  0.5373626378016496  0.5818516584834796  1.0000
  H   H41       1.0  0.41256533261238804  0.7892836995111026  0.694032014396484  1.0000
  H   H42       1.0  0.0874323479881838  0.2107286023327717  0.1940359023349814  1.0000
  H   H43       1.0  0.5874394452437883  0.2107148665821938  0.3059668747639464  1.0000
  H   H44       1.0  0.9125718840080239  0.7892731335491234  0.805966319344158  1.0000
  H   H45       1.0  0.4425679997820496  0.9808688919278339  0.5999894470240577  1.0000
  H   H46       1.0  0.0574205363772649  0.0191444665122376  0.09999333496256209  1.0000
  H   H47       1.0  0.5574385702544831  0.0191328439540612  0.4000105529759422  1.0000
  H   H48       1.0  0.9425786813983736  0.9808614957544464  0.9000072204572191  1.0000
  H   H49       1.0  0.2061767112269948  0.0422913194226453  0.5361139499233545  1.0000
  H   H50       1.0  0.29380857871151284  0.957711473055447  0.0361133945035661  1.0000
  H   H51       1.0  0.7938311051299252  0.9577167560364401  0.4638888271755803  1.0000
  H   H52       1.0  0.7061858856832472  0.0422881496340466  0.9638827175579293  1.0000
  H   H53       1.0  0.937535592153516  0.9052060381863781  0.5658761191708663  1.0000
  H   H54       1.0  0.5624542261755892  0.0947914713107281  0.0658766745906547  1.0000
  H   H55       1.0  0.062470224302984406  0.0947978108879113  0.43412443624891484  1.0000
  H   H56       1.0  0.437544498859701  0.9052060381863781  0.9341205483104105  1.0000
  H   H57       1.0  0.9045958264054973  0.7211522634692571  0.6636455533091876  1.0000
  H   H58       1.0  0.5953998370244307  0.2788452460278421  0.1636433316300483  1.0000
  H   H59       1.0  0.0954107436310352  0.278849472412638  0.3363550021105937  1.0000
  H   H60       1.0  0.40460377181157986  0.7211533200654543  0.8363533358512356  1.0000
  C   C1        1.0  0.7206914212854655  0.1980790326498649  0.7497695007886946  1.0000
  C   C2        1.0  0.7793124252856174  0.8019184768472343  0.2497678345293366  1.0000
  C   C3        1.0  0.2793047579894292  0.8019174202510371  0.250229943791517  1.0000
  C   C4        1.0  0.2206925602906225  0.1980811458422664  0.7502293883717284  1.0000
  C   C5        1.0  0.6808569488691205  0.0714681668352455  0.7108745639954677  1.0000
  C   C6        1.0  0.8191451828218206  0.9285325124504454  0.2108756748350373  1.0000
  C   C7        1.0  0.319141983886233  0.9285303992580509  0.2891243251649627  1.0000
  C   C8        1.0  0.1808543730937231  0.0714692234314427  0.7891254360045322  1.0000
  C   C9        1.0  0.7406167457521349  0.0638839193257326  0.639204861033967  1.0000
  C   C10       1.0  0.7593945303800639  0.936115703363761  0.1392054164537555  1.0000
  C   C11       1.0  0.2593841096034168  0.9361125335751694  0.3607945835462445  1.0000
  C   C12       1.0  0.24061190923663392  0.0638913154991201  0.8607968052253908  1.0000
  C   C13       1.0  0.8382345678666355  0.1821096377127276  0.6091672035724613  1.0000
  C   C14       1.0  0.661772578044868  0.8178868151881744  0.1091672035724613  1.0000
  C   C15       1.0  0.1617684951094063  0.8178920981691604  0.3908322410077503  1.0000
  C   C16       1.0  0.3382265624305489  0.1821128075013263  0.890833351847327  1.0000
  C   C17       1.0  0.8730193866911192  0.3033297497249663  0.6526760125302715  1.0000
  C   C18       1.0  0.626982329559695  0.6966688163683372  0.15267601253027147  1.0000
  C   C19       1.0  0.1269783770440682  0.6966688163683372  0.3473239874697285  1.0000
  C   C20       1.0  0.3730172263558487  0.3033329195135579  0.8473223212103703  1.0000
  C   C21       1.0  0.948758891782326  0.3431697659681632  0.9074131878874069  1.0000
  C   C22       1.0  0.5512510076096362  0.6568288001251403  0.4074137433071883  1.0000
  C   C23       1.0  0.0512418331533837  0.6568319699137319  0.0925884783719511  1.0000
  C   C24       1.0  0.4487517703461137  0.3431655395833673  0.5925873675323814  1.0000
  C   C25       1.0  0.9541887969617376  0.2921488487573356  0.9797488391726502  1.0000
  C   C26       1.0  0.5458129192890766  0.7078497173359679  0.4797455066539271  1.0000
  C   C27       1.0  0.045815019594336114  0.7078507739321651  0.0202539379262845  1.0000
  C   C28       1.0  0.45417583042470266  0.2921446223725397  0.5202511608273568  1.0000
  C   C29       1.0  0.8493993552675434  0.3298566538728878  0.0323781964408667  1.0000
  C   C30       1.0  0.6505959700224793  0.6701450820090002  0.5323815289595899  1.0000
  C   C31       1.0  0.15059435554718453  0.6701450820090002  0.9676206927195564  1.0000
  C   C32       1.0  0.3493898184907707  0.3298460879109086  0.46762291439870296  1.0000
  C   C33       1.0  0.7430765044815429  0.4168081813941811  0.0102602697118499  1.0000
  C   C34       1.0  0.7569246659093025  0.583193554487714  0.5102669347492821  1.0000
  C   C35       1.0  0.2569234668741345  0.5831956676801155  0.9897369531892224  1.0000
  C   C36       1.0  0.24306566826476944  0.416802898413188  0.4897386194485803  1.0000
  C   C37       1.0  0.7478620244189571  0.46490021394404824  0.9371792450734232  1.0000
  C   C38       1.0  0.7521449910727114  0.5351015219378468  0.4371853546910742  1.0000
  C   C39       1.0  0.2521391159568864  0.5351036351302412  0.0628190886672115  1.0000
  C   C40       1.0  0.2478541494027056  0.46489810075165383  0.5628201995067883  1.0000
  C   C41       1.0  0.1561367838180061  0.7415318909370043  0.6865138521694688  1.0000
  C   C42       1.0  0.3438707948038484  0.2584772411182783  0.1865144075892573  1.0000
  C   C43       1.0  0.8438758390394128  0.258470901541088  0.31348670325031947  1.0000
  C   C44       1.0  0.6561324758922567  0.741525551359814  0.8134867032503195  1.0000
  C   C45       1.0  0.3078716129571433  0.8159067539130476  0.666478194219188  1.0000
  C   C46       1.0  0.19212723666359469  0.1841055479308267  0.16648041589833437  1.0000
  C   C47       1.0  0.69213358033916  0.1840939253726432  0.333521805780812  1.0000
  C   C48       1.0  0.807873903712249  0.81589830114347  0.833520139521454  1.0000
  C   C49       1.0  0.3247222631798863  0.9222954250934308  0.61297682788652  1.0000
  C   C50       1.0  0.1752677801394995  0.0777137069618448  0.11297682788652  1.0000
  C   C51       1.0  0.6752840991365829  0.07770525419226  0.38702539379262646  1.0000
  C   C52       1.0  0.8247294377357194  0.9222880289200502  0.8870220612739104  1.0000
  C   C53       1.0  0.19216531751833804  0.9569063467525467  0.5767312434738159  1.0000
  C   C54       1.0  0.3078270638413798  0.0431027853027359  0.07673068805403459  1.0000
  C   C55       1.0  0.8078416679583283  0.0430975023217428  0.4232698673657537  1.0000
  C   C56       1.0  0.6921686468737677  0.956903176963948  0.9232654240074679  1.0000
  C   C57       1.0  0.04200272222319513  0.8814368501153282  0.5944746839661406  1.0000
  C   C58       1.0  0.45798958183630134  0.1185659423627641  0.0944735731265709  1.0000
  C   C59       1.0  0.9580026787931785  0.1185648857665669  0.4055264268734291  1.0000
  C   C60       1.0  0.542004467118332  0.8814315671343351  0.9055236497745013  1.0000
  C   C61       1.0  0.02333337310506074  0.7762389628501367  0.6487019839594765  1.0000
  C   C62       1.0  0.4766657373553542  0.2237627730317584  0.1487014285396882  1.0000
  C   C63       1.0  0.9766731969314719  0.2237627730317584  0.3512974606207351  1.0000
  C   C64       1.0  0.5233334031200627  0.7762368496577352  0.851297460620735  1.0000
  S   S1        1.0  0.1346716137087327  0.6121168188127939  0.756114616427098  1.0000
  S   S2        1.0  0.3653321728323391  0.3878849170691012  0.2561168381062373  1.0000
  S   S3        1.0  0.8653324105674116  0.387883860472904  0.24388482815312068  1.0000
  S   S4        1.0  0.6346739817640666  0.6121147056203924  0.7438842727333324  1.0000
  N   N1        1.0  0.8152894071630925  0.3123847791421426  0.7216186043411597  1.0000
  N   N2        1.0  0.6847113477876263  0.687614843547351  0.2216186043411597  1.0000
  N   N3        1.0  0.1847069798318728  0.6876127303549566  0.278380840239052  1.0000
  N   N4        1.0  0.31528937714808336  0.312386892334537  0.7783780631401241  1.0000
  N   N5        1.0  0.8486094367261998  0.42900235811572424  0.886081180155962  1.0000
  N   N6        1.0  0.6513971633253419  0.5709972645737693  0.3860834018351085  1.0000
  N   N7        1.0  0.151391288209517  0.5709993777661637  0.113918819844038  1.0000
  N   N8        1.0  0.34860293845017765  0.4290013015195271  0.6139177090044683  1.0000
