data_image0
_chemical_formula_structural       Rb4H6C12N6O18
_chemical_formula_sum              "Rb4 H6 C12 N6 O18"
_cell_length_a       7.23513766139554
_cell_length_b       9.61604983979513
_cell_length_c       10.13909912176659
_cell_angle_alpha    115.30722205109788
_cell_angle_beta     109.79104393253378
_cell_angle_gamma    93.91530064644311

_space_group_name_H-M_alt    "P 1"
_space_group_IT_number       1

loop_
  _space_group_symop_operation_xyz
  'x, y, z'

loop_
  _atom_site_type_symbol
  _atom_site_label
  _atom_site_symmetry_multiplicity
  _atom_site_fract_x
  _atom_site_fract_y
  _atom_site_fract_z
  _atom_site_occupancy
  Rb  Rb1       1.0  0.9361144160625655  0.7178362282605589  0.07550301956256075  1.0000
  Rb  Rb2       1.0  0.06388544677220409  0.28216302349735395  0.9244988232618283  1.0000
  Rb  Rb3       1.0  0.5411802035631935  0.9033878645506661  0.2821792883358681  1.0000
  Rb  Rb4       1.0  0.4588156511059793  0.09661262793545687  0.7178211446461586  1.0000
  H   H1        1.0  0.5995588591788346  0.25900202427298064  0.30938547332624466  1.0000
  H   H2        1.0  0.40043865271344  0.7409948675524021  0.6906109151288005  1.0000
  H   H3        1.0  0.18065233843045547  0.9465343692621885  0.983796192976875  1.0000
  H   H4        1.0  0.8193445351763629  0.05346491673310539  0.01620201113033209  1.0000
  H   H5        1.0  0.18731782690563387  0.09150932165569259  0.13657047927831198  1.0000
  H   H6        1.0  0.8126805307569143  0.9084899470327911  0.863429048470145  1.0000
  C   C1        1.0  0.706137966362071  0.4625612775416741  0.297228267362513  1.0000
  C   C2        1.0  0.29386121595427284  0.5374403676336713  0.7027734082446598  1.0000
  C   C3        1.0  0.7950083185098221  0.6342213391440057  0.37778077388983167  1.0000
  C   C4        1.0  0.2049886781158889  0.3657827163793499  0.622218419424186  1.0000
  C   C5        1.0  0.8564918128494908  0.7088996244880262  0.5486453933292877  1.0000
  C   C6        1.0  0.1435017964595886  0.2910985099467425  0.45135454245684054  1.0000
  C   C7        1.0  0.8252391031172833  0.6347725433360337  0.6391512050774107  1.0000
  C   C8        1.0  0.17476366447952063  0.36522667267955455  0.36085031072541074  1.0000
  C   C9        1.0  0.7345448843631812  0.4624201366933319  0.5432411847004557  1.0000
  C   C10       1.0  0.2654547208382993  0.53758269691356  0.4567620605534229  1.0000
  C   C11       1.0  0.6732851012687175  0.38518573270243184  0.37792667898175836  1.0000
  C   C12       1.0  0.3267133582962529  0.6148183051378808  0.6220728465388203  1.0000
  N   N1        1.0  0.6403216209991455  0.3695807791390777  0.12836820725553355  1.0000
  N   N2        1.0  0.35967938379216224  0.6304220356560675  0.8716323959008389  1.0000
  N   N3        1.0  0.9477341532490015  0.8754784430010288  0.6360670647355986  1.0000
  N   N4        1.0  0.0522690161164618  0.12452196106987401  0.36393502927924  1.0000
  N   N5        1.0  0.6991372195981  0.3679628150187427  0.6121154036312362  1.0000
  N   N6        1.0  0.30085955210630294  0.6320317018247154  0.38788280270383513  1.0000
  O   O1        1.0  0.49887104494793283  0.245360263196737  0.055143094640094106  1.0000
  O   O2        1.0  0.5011328434889321  0.7546425154798582  0.9448561900600363  1.0000
  O   O3        1.0  0.7240269447429952  0.41180371621002365  0.056975457400433464  1.0000
  O   O4        1.0  0.275976347641361  0.5882014573889407  0.943027625821223  1.0000
  O   O5        1.0  0.8132831720857393  0.7084730536119251  0.3047713419460506  1.0000
  O   O6        1.0  0.18671601023061152  0.2915285915634199  0.6952303336611221  1.0000
  O   O7        1.0  0.8660959246223994  0.9657849055187809  0.5894226068315473  1.0000
  O   O8        1.0  0.1339127966338509  0.03421900891646599  0.4105802355696539  1.0000
  O   O9        1.0  0.11233638971796009  0.928276716330231  0.7586196648151924  1.0000
  O   O10       1.0  0.8876666566286032  0.07171891821261059  0.24138143999283557  1.0000
  O   O11       1.0  0.8590635998449865  0.7148131390450131  0.7850784467475118  1.0000
  O   O12       1.0  0.14093980603727368  0.285183682800664  0.21492125340315474  1.0000
  O   O13       1.0  0.7603669997700989  0.4262414438059493  0.7610252592770193  1.0000
  O   O14       1.0  0.2396338608858314  0.5737566010849021  0.23897336323785354  1.0000
  O   O15       1.0  0.6049382772606933  0.2231590526608827  0.5212437874850407  1.0000
  O   O16       1.0  0.3950585541131699  0.7768402325819391  0.4787524337527882  1.0000
  O   O17       1.0  0.21690930901220895  0.9854663292738974  0.09777663241684537  1.0000
  O   O18       1.0  0.7830886046487321  0.014531750606799699  0.9022203342502165  1.0000
