data_image0
_chemical_formula_structural       CoH32C34Br4N4O6
_chemical_formula_sum              "Co1 H32 C34 Br4 N4 O6"
_cell_length_a       9.174365993780103
_cell_length_b       9.572118195432045
_cell_length_c       11.253588507614577
_cell_angle_alpha    99.00546888346739
_cell_angle_beta     94.3225848651118
_cell_angle_gamma    118.06831339042536

_space_group_name_H-M_alt    "P 1"
_space_group_IT_number       1

loop_
  _space_group_symop_operation_xyz
  'x, y, z'

loop_
  _atom_site_type_symbol
  _atom_site_label
  _atom_site_symmetry_multiplicity
  _atom_site_fract_x
  _atom_site_fract_y
  _atom_site_fract_z
  _atom_site_occupancy
  Co  Co1       1.0  0.4999973988925319  2.1071135521004367e-06  0.9999990082996817  1.0000
  H   H1        1.0  0.2008091054674279  0.9294307662702507  0.04795482060433189  1.0000
  H   H2        1.0  0.7991909789505413  0.07057613641523372  0.9520444279539363  1.0000
  H   H3        1.0  0.1506841137610734  0.8828901564336321  0.8979097664347295  1.0000
  H   H4        1.0  0.8493171348738854  0.11710824060614299  0.10208761960821282  1.0000
  H   H5        1.0  0.039121515882022936  0.810751947026901  0.3351283104002221  1.0000
  H   H6        1.0  0.9608802135346294  0.18924529831508616  0.6648734083540688  1.0000
  H   H7        1.0  0.8870172823349022  0.6088484592776525  0.32175514322334925  1.0000
  H   H8        1.0  0.1129828754968969  0.39114999977053344  0.6782466220507716  1.0000
  H   H9        1.0  0.11325182868368686  0.6437514647256392  0.492432236837459  1.0000
  H   H10       1.0  0.8867520844749917  0.3562457183145398  0.5075651745367794  1.0000
  H   H11       1.0  0.8020225656894552  0.8648979986447928  0.5516288211928781  1.0000
  H   H12       1.0  0.19797548010556903  0.1350920296959046  0.4483762073113128  1.0000
  H   H13       1.0  0.36778402832997154  0.19202206864939336  0.11697643756539831  1.0000
  H   H14       1.0  0.6322177646011794  0.8079860838910662  0.8830257437154431  1.0000
  H   H15       1.0  0.8219260844266997  0.8989259944342293  0.35095250957288465  1.0000
  H   H16       1.0  0.17808138140526347  0.1010761148480839  0.6490510758394876  1.0000
  H   H17       1.0  0.666624549967146  0.6975923913877652  0.3438823446563291  1.0000
  H   H18       1.0  0.3333769729516192  0.3024109451173588  0.6561218900878603  1.0000
  H   H19       1.0  0.787191868357432  0.2939710098293986  0.9552099073380874  1.0000
  H   H20       1.0  0.21279906347312744  0.7060285538917981  0.04478338954989169  1.0000
  H   H21       1.0  0.900462342715663  0.5911251418335794  0.024609996098945347  1.0000
  H   H22       1.0  0.09952906818802626  0.4088732208178314  0.9753840726345475  1.0000
  H   H23       1.0  0.8726790301520919  0.8902122816529783  0.7721841744793139  1.0000
  H   H24       1.0  0.1273201090089415  0.1097777587373088  0.22782181609245103  1.0000
  H   H25       1.0  0.17927511417649084  0.6857951866068246  0.7176779281319696  1.0000
  H   H26       1.0  0.8207308500673063  0.31419959400037095  0.2823210987844078  1.0000
  H   H27       1.0  0.4619681236084289  0.48258524393587987  0.19117151223186823  1.0000
  H   H28       1.0  0.5380344943849165  0.517418153990839  0.8088372454457302  1.0000
  H   H29       1.0  0.6702078230065353  0.7798432312966455  0.1432047765089237  1.0000
  H   H30       1.0  0.3298005284121359  0.22016494416939028  0.8567996163115482  1.0000
  H   H31       1.0  0.8773293758198901  0.8156356617125625  0.1435399354146085  1.0000
  H   H32       1.0  0.12267822565897997  0.18436887410192074  0.85646395859078  1.0000
  C   C1        1.0  0.39071054330799604  0.9765657571116431  0.2414177624218538  1.0000
  C   C2        1.0  0.6092816188169082  0.0234362822203309  0.7585794757760951  1.0000
  C   C3        1.0  0.44634679904692126  0.9903662656822476  0.37587242346860716  1.0000
  C   C4        1.0  0.5536513076997522  0.009634595798907202  0.6241277262633674  1.0000
  C   C5        1.0  0.6934401824281834  0.5647663870019315  0.1180700859295953  1.0000
  C   C6        1.0  0.306561474001782  0.4352393143203557  0.8819300063253124  1.0000
  C   C7        1.0  0.9200457784387123  0.7340518687790121  0.3647310369228122  1.0000
  C   C8        1.0  0.07995656569796236  0.2659466020253589  0.6352717622700084  1.0000
  C   C9        1.0  0.523301795105219  0.1391185552496168  0.4608970866702506  1.0000
  C   C10       1.0  0.47669398840824306  0.8608798309141787  0.539099049900635  1.0000
  C   C11       1.0  0.058365102661390604  0.7005763302671041  0.5515208550632451  1.0000
  C   C12       1.0  0.9416380635474862  0.29941729952252427  0.4484822890111246  1.0000
  C   C13       1.0  0.8841391779095743  0.8203142261881453  0.5830422466395788  1.0000
  C   C14       1.0  0.11586412650906651  0.17968190419166064  0.4169665473265596  1.0000
  C   C15       1.0  0.5775048859600461  0.1485904764923731  0.5831942735175488  1.0000
  C   C16       1.0  0.42249553932128225  0.8514127245331481  0.41680009699447146  1.0000
  C   C17       1.0  0.4856717246540398  0.2838339536757744  0.0991432058159063  1.0000
  C   C18       1.0  0.514321052618044  0.7161693234615782  0.9008560030370276  1.0000
  C   C19       1.0  0.7864182664232968  0.7717464806577039  0.3145339559355734  1.0000
  C   C20       1.0  0.2135870131037834  0.2282556168684167  0.6854685955581061  1.0000
  C   C21       1.0  0.7200606867681502  0.3409317065108226  0.009219419430557707  1.0000
  C   C22       1.0  0.2799348915288462  0.6590728078451066  0.9907819037795988  1.0000
  C   C23       1.0  0.9524863912218535  0.7522484657095843  0.5008378146822139  1.0000
  C   C24       1.0  0.04751533862193467  0.24774879197540398  0.4991647942885394  1.0000
  C   C25       1.0  0.781820610836206  0.506976119745218  0.04828716958179055  1.0000
  C   C26       1.0  0.2181693023235951  0.4930150253180941  0.9517103526038327  1.0000
  C   C27       1.0  0.9235948357988517  0.8342962730500715  0.7080731796118016  1.0000
  C   C28       1.0  0.07641235873929723  0.16570098316789475  0.2919297886145458  1.0000
  C   C29       1.0  0.09313983029392137  0.7210634510539576  0.677178786212103  1.0000
  C   C30       1.0  0.9068614909005817  0.27892647766251594  0.322819336113767  1.0000
  C   C31       1.0  0.5396585822306079  0.4471829189318016  0.13960890546843535  1.0000
  C   C32       1.0  0.4603425964076563  0.5528240204892754  0.8603930855903386  1.0000
  C   C33       1.0  0.7591599462800074  0.7408352142617928  0.1740181689408828  1.0000
  C   C34       1.0  0.24084499067513576  0.25917053555228625  0.8259856997332166  1.0000
  Br  Br1       1.0  0.5528069609993763  0.3283908542374121  0.4085112183833033  1.0000
  Br  Br2       1.0  0.44719380557246763  0.671608657471147  0.5914791642989101  1.0000
  Br  Br3       1.0  0.6921919899158482  0.3524770232103336  0.6960658548914722  1.0000
  Br  Br4       1.0  0.3078091840238527  0.6475297804377361  0.3039263437862445  1.0000
  N   N1        1.0  0.5755372610685539  0.2289692712457096  0.03659978080636957  1.0000
  N   N2        1.0  0.42445551492210115  0.7710339688626459  0.9633967573971844  1.0000
  N   N3        1.0  0.027211272934792224  0.7869106854712127  0.7558620718074707  1.0000
  N   N4        1.0  0.9727951716635558  0.213082931095208  0.24414039760379316  1.0000
  O   O1        1.0  0.23880653633020185  0.9587077758604252  0.9710776906280998  1.0000
  O   O2        1.0  0.7611921838550798  0.041294274054124  0.02892086889302449  1.0000
  O   O3        1.0  0.2403494888349654  0.9385645042744813  0.20750813105427568  1.0000
  O   O4        1.0  0.759646431179682  0.061436333107486994  0.7924900945425435  1.0000
  O   O5        1.0  0.5066677714197282  0.0033414340326772003  0.1777082012433979  1.0000
  O   O6        1.0  0.4933245272063684  0.9966630565174623  0.8222911259804847  1.0000
