data_image0
_chemical_formula_structural       Cd4H40C48N8Cl8O24
_chemical_formula_sum              "Cd4 H40 C48 N8 Cl8 O24"
_cell_length_a       8.145497695
_cell_length_b       10.487749090210785
_cell_length_c       19.661
_cell_angle_alpha    105.73618265217327
_cell_angle_beta     90.0
_cell_angle_gamma    90.0

_space_group_name_H-M_alt    "P 1"
_space_group_IT_number       1

loop_
  _space_group_symop_operation_xyz
  'x, y, z'

loop_
  _atom_site_type_symbol
  _atom_site_label
  _atom_site_symmetry_multiplicity
  _atom_site_fract_x
  _atom_site_fract_y
  _atom_site_fract_z
  _atom_site_occupancy
  Cd  Cd1       1.0  0.4323394508062677  0.3410590147060972  0.35789869916914097  1.0000
  Cd  Cd2       1.0  0.06766069068294198  0.841059249186152  0.8578973343833668  1.0000
  Cd  Cd3       1.0  0.5676608321721446  0.6589414542540055  0.6421021316072031  1.0000
  Cd  Cd4       1.0  0.9323395922954703  0.1589412197739506  0.14210197052959472  1.0000
  H   H1        1.0  0.4091033015754846  0.5965006145646896  0.44803852655238074  1.0000
  H   H2        1.0  0.09089683991371797  0.0965003800846418  0.9480383654747726  1.0000
  H   H3        1.0  0.5908969814029275  0.4034998543954131  0.5519617956028355  1.0000
  H   H4        1.0  0.9091046707367594  0.9035000888754682  0.05196144805931625  1.0000
  H   H5        1.0  0.3835750885937728  0.6190659764012665  0.3711291183544391  1.0000
  H   H6        1.0  0.1164262805675023  0.1190657419212116  0.8711289572768312  1.0000
  H   H7        1.0  0.6164251943846395  0.3809344925588434  0.62887069517965  1.0000
  H   H8        1.0  0.8835752300829824  0.8809357176601651  0.12887099957085013  1.0000
  H   H9        1.0  0.5184336375900216  0.36436932373531056  0.22642537772780716  1.0000
  H   H10       1.0  0.981566786877593  0.8643655957302984  0.7264244569299338  1.0000
  H   H11       1.0  0.4815666453883907  0.6356301546035326  0.7735737838715694  1.0000
  H   H12       1.0  0.0184322684287466  0.1356299201234776  0.27357362279396114  1.0000
  H   H13       1.0  0.3437211702507241  0.2899370136113077  0.21335622266011714  1.0000
  H   H14       1.0  0.1562789712384784  0.7899322949850287  0.7133546499275241  1.0000
  H   H15       1.0  0.6562803403997535  0.7100624647275282  0.7866434475603868  1.0000
  H   H16       1.0  0.8437200840678682  0.2100642114900069  0.28664408173108313  1.0000
  H   H17       1.0  0.20405628510830803  0.922489307938875  0.1886972331201662  1.0000
  H   H18       1.0  0.29594385638089443  0.4224920453226204  0.6886969933621927  1.0000
  H   H19       1.0  0.7959427701980317  0.07750818915743451  0.8113021504731606  1.0000
  H   H20       1.0  0.7040588819416485  0.577510404880023  0.3113025981779458  1.0000
  H   H21       1.0  0.1678350484144389  0.6741148001976782  0.15157817728825052  1.0000
  H   H22       1.0  0.3321638654027055  0.1741165469601569  0.6515767769744301  1.0000
  H   H23       1.0  0.8321640068919081  0.3258826968986313  0.8484227321684585  1.0000
  H   H24       1.0  0.6678351899036414  0.8258839219999531  0.3484225279385313  1.0000
  H   H25       1.0  0.2351998701289943  0.546170119862083  0.23921759691681646  1.0000
  H   H26       1.0  0.2648002713602153  0.0461708760032948  0.7392165619105386  1.0000
  H   H27       1.0  0.7648016405214904  0.4538303490980269  0.7607832338595273  1.0000
  H   H28       1.0  0.7352000116181969  0.9538315741993486  0.2607835382507275  1.0000
  H   H29       1.0  0.8307165815237523  0.2395470816326934  0.5263562044071082  1.0000
  H   H30       1.0  0.669280159927659  0.7395473161127413  0.02635636548471615  1.0000
  H   H31       1.0  0.1692837014546598  0.7604533873274164  0.47364360912698106  1.0000
  H   H32       1.0  0.3307164400345428  0.2604521622260947  0.973643304735781  1.0000
  H   H33       1.0  0.1146326516761746  0.2066802492426021  0.5691614906229036  1.0000
  H   H34       1.0  0.3853625791247595  0.7066824649651906  0.06916092108543381  1.0000
  H   H35       1.0  0.8853664036301723  0.793319229096241  0.4308391968398554  1.0000
  H   H36       1.0  0.6146340208374497  0.2933180039949193  0.9308388924486551  1.0000
  H   H37       1.0  0.3560776896150131  0.2754353088865358  0.5067300011373277  1.0000
  H   H38       1.0  0.1439212242021242  0.7754365339878575  0.006727762422883592  1.0000
  H   H39       1.0  0.6439238210354716  0.724565160073567  0.49327133826014363  1.0000
  H   H40       1.0  0.8560778311042156  0.2245649255935191  0.9932711771825355  1.0000
  C   C1        1.0  0.3132012426405808  0.8443560367620863  0.3383224026501567  1.0000
  C   C2        1.0  0.1868013541927596  0.3443558022820312  0.8383222415725486  1.0000
  C   C3        1.0  0.6867965849936937  0.1556424509554901  0.66167814149901  1.0000
  C   C4        1.0  0.8132038394739212  0.6556446666780786  0.16167808058266792  1.0000
  C   C5        1.0  0.2861200244928668  0.9255215996365678  0.2932577816362496  1.0000
  C   C6        1.0  0.21387888932427043  0.4255213651565128  0.793258129179769  1.0000
  C   C7        1.0  0.7138765754693424  0.0744768880810085  0.7067417452706624  1.0000
  C   C8        1.0  0.7861238489982796  0.574479103803597  0.20674219297544744  1.0000
  C   C9        1.0  0.2302977755615245  0.8626399334835213  0.22501107951796948  1.0000
  C   C10       1.0  0.2697011382556198  0.3626406896247332  0.7250105531328259  1.0000
  C   C11       1.0  0.769700052072757  0.1373575636127882  0.7749883040753505  1.0000
  C   C12       1.0  0.7303003723948649  0.6373587887141028  0.27498809984542316  1.0000
  C   C13       1.0  0.2103763409143014  0.7255300251874388  0.20441850414995602  1.0000
  C   C14       1.0  0.2896225729028359  0.2255317719499175  0.7044176124572703  1.0000
  C   C15       1.0  0.7896239420641109  0.2744664812876039  0.7955817533720335  1.0000
  C   C16       1.0  0.710376482403511  0.7744696876314521  0.2955818357692835  1.0000
  C   C17       1.0  0.24446142820988104  0.6540051884815128  0.25295506169244675  1.0000
  C   C18       1.0  0.2555387132793213  0.1540049540014579  0.7529543919937112  1.0000
  C   C19       1.0  0.7555376270964587  0.3459913179935299  0.7470451958295428  1.0000
  C   C20       1.0  0.7444627973711562  0.8459925430948445  0.247045500220743  1.0000
  C   C21       1.0  0.3181278906494143  0.0721340687850116  0.3135911510380823  1.0000
  C   C22       1.0  0.18187225083979536  0.5721343032650665  0.813591820736818  1.0000
  C   C23       1.0  0.6818674816407295  0.9278664001750982  0.6864081538748792  1.0000
  C   C24       1.0  0.8181341704989578  0.42786814693757697  0.18640878804557565  1.0000
  C   C25       1.0  0.0596771392248243  0.3661633388494963  0.4173710485380512  1.0000
  C   C26       1.0  0.4403242299364507  0.866164563950818  0.9173708443081241  1.0000
  C   C27       1.0  0.9403255990977257  0.63383514886808  0.5826294956111155  1.0000
  C   C28       1.0  0.5596748253698962  0.1338368956305587  0.08262911253955711  1.0000
  C   C29       1.0  0.9166327558576484  0.3274250942110513  0.4464445591829289  1.0000
  C   C30       1.0  0.5833676686099665  0.8274273099336398  0.9464444982665868  1.0000
  C   C31       1.0  0.0833699824648946  0.672573393506525  0.5535554763451103  1.0000
  C   C32       1.0  0.4166313866963803  0.1725741496477369  0.05355596720221461  1.0000
  C   C33       1.0  0.9390365434263401  0.2700909071521167  0.5023252694736656  1.0000
  C   C34       1.0  0.5609614256971438  0.7700931228747052  0.0023246999361959024  1.0000
  C   C35       1.0  0.06096496722414459  0.7299085711867193  0.49767541798909326  1.0000
  C   C36       1.0  0.4390364019371303  0.2299083367066714  0.9976757655326126  1.0000
  C   C37       1.0  0.0959941343400033  0.2510363070851085  0.52570158616561  1.0000
  C   C38       1.0  0.404004779477134  0.7510395134289639  0.025701668562859936  1.0000
  C   C39       1.0  0.904006148638409  0.7489641618750014  0.47429924461073375  1.0000
  C   C40       1.0  0.5959942758292058  0.24896392739494644  0.9742985749119982  1.0000
  C   C41       1.0  0.22974777847506533  0.289295091030418  0.49192364740342504  1.0000
  C   C42       1.0  0.2702474523258687  0.7892963161317397  0.9919229345523634  1.0000
  C   C43       1.0  0.7702512768312813  0.710704387308418  0.5080760228170718  1.0000
  C   C44       1.0  0.7297491476363405  0.21070514344963703  0.008076513674183201  1.0000
  C   C45       1.0  0.7456880140950091  0.3380346479785388  0.4195988973855621  1.0000
  C   C46       1.0  0.7543124103726129  0.8380358730798605  0.9195971672922454  1.0000
  C   C47       1.0  0.2543122688834032  0.6619638397390305  0.5804021553847393  1.0000
  C   C48       1.0  0.2456878726057994  0.1619645958802423  0.08040264624184353  1.0000
  N   N1        1.0  0.2932994507464528  0.7136514855771665  0.3194423125870359  1.0000
  N   N2        1.0  0.2067006907427498  0.2136512510971116  0.8194416428883005  1.0000
  N   N3        1.0  0.7066983768878217  0.2863489833829362  0.6805585181893079  1.0000
  N   N4        1.0  0.7933020475797932  0.7863502084842581  0.18055831395938077  1.0000
  N   N5        1.0  0.2108109368263698  0.346212226536025  0.4388079924587346  1.0000
  N   N6        1.0  0.2891904323349053  0.8462134516373468  0.9388067709865454  1.0000
  N   N7        1.0  0.7891905738241078  0.653787251802818  0.5611926950040244  1.0000
  N   N8        1.0  0.7108098506435068  0.1537880079440299  0.0611931858611285  1.0000
  Cl  Cl1       1.0  0.3731816168661979  0.9131388338014902  0.42573013269954885  1.0000
  Cl  Cl2       1.0  0.1268185246230047  0.41313859932143526  0.9257304802430681  1.0000
  Cl  Cl3       1.0  0.6268174384401419  0.0868616351586198  0.5742691722134126  1.0000
  Cl  Cl4       1.0  0.8731829860274729  0.5868638508812012  0.0742691112970704  1.0000
  Cl  Cl5       1.0  0.0519747246702735  0.44615303428027897  0.3515361413636456  1.0000
  Cl  Cl6       1.0  0.44802787216306666  0.9461542593816007  0.8515354285125841  1.0000
  Cl  Cl7       1.0  0.9480267859802038  0.5538444628160235  0.6484632422296814  1.0000
  Cl  Cl8       1.0  0.5519736384874179  0.05384720019977611  0.14846452833509016  1.0000
  O   O1        1.0  0.4562041681358551  0.11198180924228042  0.34141890742309045  1.0000
  O   O2        1.0  0.043794745681282186  0.6119810531010685  0.8414189251871137  1.0000
  O   O3        1.0  0.5437912041542816  0.8880186597178223  0.6585824319743807  1.0000
  O   O4        1.0  0.956211675657471  0.3880204064803081  0.15858306614507714  1.0000
  O   O5        1.0  0.20902099095124524  0.1478046554925214  0.3000529163786183  1.0000
  O   O6        1.0  0.2909791505379573  0.6478048899725763  0.8000540946984814  1.0000
  O   O7        1.0  0.7909756090109639  0.8521918509825213  0.6999437807954793  1.0000
  O   O8        1.0  0.7090272708007959  0.3521935977449999  0.19994492358730306  1.0000
  O   O9        1.0  0.7256855530913029  0.3237370112347335  0.35367459559333986  1.0000
  O   O10       1.0  0.774314871376319  0.8237372457147815  0.8536737394286933  1.0000
  O   O11       1.0  0.2743147298871094  0.6762614764828427  0.6463259485558268  1.0000
  O   O12       1.0  0.2256854116020932  0.1762622326240546  0.1463259307918108  1.0000
  O   O13       1.0  0.6271918784208808  0.3564849690728025  0.46312819129529  1.0000
  O   O14       1.0  0.8728085460467341  0.856487184795391  0.9631276217578204  1.0000
  O   O15       1.0  0.3728108599016693  0.6435145092660406  0.5368724961674616  1.0000
  O   O16       1.0  0.1271905092596057  0.1435152654072525  0.036872987024573006  1.0000
  O   O17       1.0  0.4506919205505966  0.5697696903012002  0.3984966667592503  1.0000
  O   O18       1.0  0.0493082209386131  0.069770446442412  0.8984961403740999  1.0000
  O   O19       1.0  0.5493083624278157  0.4302297880376429  0.6015040207035085  1.0000
  O   O20       1.0  0.9506920620397992  0.9302310131389647  0.10150330785244682  1.0000
  O   O21       1.0  0.4048113600258034  0.3634232804255149  0.24616491831684334  1.0000
  O   O22       1.0  0.0951887814633992  0.8634185617992288  0.7461633455842575  1.0000
  O   O23       1.0  0.5951913782967466  0.636577188534595  0.7538348952172457  1.0000
  O   O24       1.0  0.9048078184988027  0.1365769540545401  0.25383524276076497  1.0000
