data_image0
_chemical_formula_structural       Li4H32C36N16O8F12
_chemical_formula_sum              "Li4 H32 C36 N16 O8 F12"
_cell_length_a       8.500487491952125
_cell_length_b       10.058286951536791
_cell_length_c       15.347778127743597
_cell_angle_alpha    102.76574324642998
_cell_angle_beta     99.44739421584525
_cell_angle_gamma    98.64443947854197

_space_group_name_H-M_alt    "P 1"
_space_group_IT_number       1

loop_
  _space_group_symop_operation_xyz
  'x, y, z'

loop_
  _atom_site_type_symbol
  _atom_site_label
  _atom_site_symmetry_multiplicity
  _atom_site_fract_x
  _atom_site_fract_y
  _atom_site_fract_z
  _atom_site_occupancy
  Li  Li1       1.0  0.9286905192034851  0.7255204143648367  0.37619001855487977  1.0000
  Li  Li2       1.0  0.0713112857304026  0.2744782010416458  0.6238098536983756  1.0000
  Li  Li3       1.0  0.7673523620939096  0.2744241955715482  0.0184541875852346  1.0000
  Li  Li4       1.0  0.23264514995461377  0.7255765032884793  0.9815462514942651  1.0000
  H   H1        1.0  0.28694652767740086  0.9236851013557369  0.3702664549349278  1.0000
  H   H2        1.0  0.7130540871528979  0.076313515775233  0.6297339620697286  1.0000
  H   H3        1.0  0.09981650469241994  0.9653711893525453  0.32127596368228245  1.0000
  H   H4        1.0  0.9001838686387701  0.034626387512282995  0.6787229779643837  1.0000
  H   H5        1.0  0.23096636804690718  0.901092378855452  0.24868003370605862  1.0000
  H   H6        1.0  0.7690375866445083  0.09890519567640153  0.7513205328973597  1.0000
  H   H7        1.0  0.2959338888741243  0.6816834855116979  0.3541287468568868  1.0000
  H   H8        1.0  0.7040667259561816  0.3183151316192721  0.6458716701477698  1.0000
  H   H9        1.0  0.251682783972015  0.6513038573788563  0.23238088435006432  1.0000
  H   H10       1.0  0.7483202154852506  0.3486947574393326  0.7676197468361747  1.0000
  H   H11       1.0  0.9994900497946946  0.4846341771375221  0.21948696920553348  1.0000
  H   H12       1.0  0.0005119922185343597  0.5153654773989088  0.780513074721334  1.0000
  H   H13       1.0  0.1636626074007523  0.4358088523914816  0.2865268580792275  1.0000
  H   H14       1.0  0.8363391975331356  0.5641897630150012  0.7134730141740347  1.0000
  H   H15       1.0  0.9131381355516909  0.3313086867823998  0.3620521557745846  1.0000
  H   H16       1.0  0.08686367159209142  0.6686899291921832  0.6379483683208633  1.0000
  H   H17       1.0  0.7923856794344035  0.4024248849010661  0.28356721753782915  1.0000
  H   H18       1.0  0.20761612770937182  0.5975737310735099  0.7164333065576258  1.0000
  H   H19       1.0  0.6691352376635892  0.4039302653879773  0.41801340286899347  1.0000
  H   H20       1.0  0.3308653727469348  0.5960683506068064  0.5819857104512849  1.0000
  H   H21       1.0  0.8564113284562822  0.49535743438558183  0.49397340774610393  1.0000
  H   H22       1.0  0.14358904929468957  0.5046401436154467  0.5060268375849404  1.0000
  H   H23       1.0  0.5382755891132335  0.6029808162364391  0.47248050548156334  1.0000
  H   H24       1.0  0.4617288353170608  0.39701883541911087  0.5275191007847013  1.0000
  H   H25       1.0  0.639635971128179  0.7703650290260454  0.4678918807447801  1.0000
  H   H26       1.0  0.3603696478254789  0.22963462204121035  0.5321084844544615  1.0000
  H   H27       1.0  0.7272279030972157  0.6860041495200163  0.5497223151245123  1.0000
  H   H28       1.0  0.27277509415015533  0.31399446473007936  0.45027766421953425  1.0000
  H   H29       1.0  0.7400012173279652  0.04323869909737249  0.8967769107922193  1.0000
  H   H30       1.0  0.2600012988439174  0.9567630336989408  0.10322347648187248  1.0000
  H   H31       1.0  0.6108859187068845  0.12779769238363065  0.8597693637687271  1.0000
  H   H32       1.0  0.3891139757587042  0.8722030035955228  0.14023063765016267  1.0000
  C   C1        1.0  0.34845442173214997  0.20008068930427206  0.7478138196990898  1.0000
  C   C2        1.0  0.6515466650469223  0.7999200055184943  0.2521862888105986  1.0000
  C   C3        1.0  0.3945611920190046  0.9990601858911957  0.6938047401330749  1.0000
  C   C4        1.0  0.6054389395259179  0.0009415492179059  0.3061954329594272  1.0000
  C   C5        1.0  0.2561271983249114  0.0208338621857891  0.6375432601943913  1.0000
  C   C6        1.0  0.7438738884541609  0.9791668326369702  0.362456848315297  1.0000
  C   C7        1.0  0.4695006923283316  0.8819788602724828  0.6828901775334444  1.0000
  C   C8        1.0  0.5305035063592385  0.11801455658320487  0.3171098094663236  1.0000
  C   C9        1.0  0.15212062144075128  0.9256419340505743  0.5613991678105349  1.0000
  C   C10       1.0  0.8478828499652877  0.0743587584594039  0.4386011548807359  1.0000
  C   C11       1.0  0.3729329820140777  0.3437169426662408  0.8084255207608848  1.0000
  C   C12       1.0  0.6270683418443211  0.6562847912864668  0.1915747594224158  1.0000
  C   C13       1.0  0.18490246841764704  0.8946415638402175  0.3106882755556414  1.0000
  C   C14       1.0  0.8150976700441035  0.10535497446276308  0.6893111462596054  1.0000
  C   C15       1.0  0.19687392985854046  0.6551928992534427  0.2928812064383521  1.0000
  C   C16       1.0  0.8031288347292788  0.344804677002891  0.7071199049164676  1.0000
  C   C17       1.0  0.08944981450656539  0.5166483698167923  0.2843343023804508  1.0000
  C   C18       1.0  0.9105505654542938  0.48334920875232984  0.7156665947927863  1.0000
  C   C19       1.0  0.8714386642791041  0.42650145308364523  0.3518455448063023  1.0000
  C   C20       1.0  0.12856409588893314  0.5734961220365021  0.6481542628641392  1.0000
  C   C21       1.0  0.781410075535611  0.4796690779742577  0.42529768028455084  1.0000
  C   C22       1.0  0.218589101062328  0.5203284989107786  0.5746998505869385  1.0000
  C   C23       1.0  0.6575212744688416  0.6696523358643773  0.4797738783166992  1.0000
  C   C24       1.0  0.3424841074054897  0.33034627607293027  0.5202263152089373  1.0000
  C   C25       1.0  0.9650668936677678  0.8599908334958214  0.8930205190283331  1.0000
  C   C26       1.0  0.0349303790915343  0.1400088256661718  0.1069790965353619  1.0000
  C   C27       1.0  0.8495239671210301  0.6867661305130212  0.9328390256546584  1.0000
  C   C28       1.0  0.1504735427176058  0.3132345677789132  0.0671607615826559  1.0000
  C   C29       1.0  0.7341360390701582  0.7684973859158148  0.9110938755291542  1.0000
  C   C30       1.0  0.2658593188010627  0.2315043526826558  0.0889045655157972  1.0000
  C   C31       1.0  0.8242506433196156  0.5640963560196822  0.9627741736913222  1.0000
  C   C32       1.0  0.17574734509745576  0.43590642166832777  0.03722726057758758  1.0000
  C   C33       1.0  0.5674604562422375  0.7467180089340317  0.9141611566882446  1.0000
  C   C34       1.0  0.43253489941909623  0.2532837290963387  0.08583663251451411  1.0000
  C   C35       1.0  0.09016986077209307  0.9510919774686784  0.862886411226441  1.0000
  C   C36       1.0  0.9098264545431719  0.04890872141155709  0.1371126170778822  1.0000
  N   N1        1.0  0.22868776938438634  0.15061947502954345  0.6729866322064382  1.0000
  N   N2        1.0  0.7713133173946861  0.8493812197932228  0.3270134763032502  1.0000
  N   N3        1.0  0.4511846219637193  0.1146519548851899  0.76400268362422  1.0000
  N   N4        1.0  0.5488155117910907  0.8853497807919977  0.2359981413104819  1.0000
  N   N5        1.0  0.06534953816480275  0.8440037442924292  0.4995337221143785  1.0000
  N   N6        1.0  0.9346515464043821  0.15599694996223684  0.5004657345531172  1.0000
  N   N7        1.0  0.5318510215874  0.7852326056487583  0.6717042103026074  1.0000
  N   N8        1.0  0.46814648796407  0.21477329115356977  0.32829828373853337  1.0000
  N   N9        1.0  0.810616372335815  0.8791427479745124  0.8860772213663495  1.0000
  N   N10       1.0  0.18938113308303883  0.12085794918122866  0.1139212621865724  1.0000
  N   N11       1.0  0.9973940968474154  0.7469819195000156  0.9209364214881859  1.0000
  N   N12       1.0  0.0026019880181848733  0.2530177419545509  0.07906439066910309  1.0000
  N   N13       1.0  0.43017581324161114  0.7261687635934421  0.9176435016845446  1.0000
  N   N14       1.0  0.569819303130501  0.2738319347388867  0.08235346400241639  1.0000
  N   N15       1.0  0.8003641228955587  0.46203817999263197  0.9867250298588671  1.0000
  N   N16       1.0  0.19963601085925123  0.5379635556845558  0.013275795075834712  1.0000
  O   O1        1.0  0.09683711657583416  0.7577456698616698  0.3008759530060274  1.0000
  O   O2        1.0  0.9031637331239041  0.24225398583114807  0.6991239838300487  1.0000
  O   O3        1.0  0.007162275561455451  0.5354067025852912  0.3594289472493131  1.0000
  O   O4        1.0  0.9928395315823195  0.4645919133892846  0.6405715768461349  1.0000
  O   O5        1.0  0.7428303501352076  0.609460163726034  0.4132696893688959  1.0000
  O   O6        1.0  0.2571740765049739  0.39053948849760906  0.5867305687395614  1.0000
  O   O7        1.0  0.7067125629882939  0.1348969548435477  0.9084147832388609  1.0000
  O   O8        1.0  0.2932885260006657  0.8651037405473048  0.091585977113013  1.0000
  F   F1        1.0  0.4944553490271489  0.43354570266704673  0.7900777454576016  1.0000
  F   F2        1.0  0.5055488405336989  0.5664529104266549  0.2099223409772435  1.0000
  F   F3        1.0  0.41588934131918626  0.3451760234426047  0.8979010211627809  1.0000
  F   F4        1.0  0.5841060209718166  0.654825716292052  0.10209872356654869  1.0000
  F   F5        1.0  0.23602670244160606  0.39804014790095  0.797161946509739  1.0000
  F   F6        1.0  0.7639746081574615  0.6019615826431844  0.2028344226204126  1.0000
  F   F7        1.0  0.0651191653693104  0.08355163759573969  0.8746193148162007  1.0000
  F   F8        1.0  0.9348745282396608  0.9164480244673214  0.12537932763292758  1.0000
  F   F9        1.0  0.2435533339702048  0.955347170706169  0.9072041928369713  1.0000
  F   F10       1.0  0.7564448848965314  0.04465664440750319  0.09279545757897983  1.0000
  F   F11       1.0  0.08648520208387815  0.9015626233146746  0.7708943397624352  1.0000
  F   F12       1.0  0.9135108783619476  0.09843703700370549  0.2291051687104684  1.0000
