data_image0
_chemical_formula_structural       Zn4H44C68N16O16
_chemical_formula_sum              "Zn4 H44 C68 N16 O16"
_cell_length_a       7.3520296080008585
_cell_length_b       15.121696100661813
_cell_length_c       16.745124496759722
_cell_angle_alpha    105.58088782231269
_cell_angle_beta     89.9999870018998
_cell_angle_gamma    90.00005530619602

_space_group_name_H-M_alt    "P 1"
_space_group_IT_number       1

loop_
  _space_group_symop_operation_xyz
  'x, y, z'

loop_
  _atom_site_type_symbol
  _atom_site_label
  _atom_site_symmetry_multiplicity
  _atom_site_fract_x
  _atom_site_fract_y
  _atom_site_fract_z
  _atom_site_occupancy
  Zn  Zn1       1.0  0.8533399248213558  0.18698615189585144  0.5140508067957088  1.0000
  Zn  Zn2       1.0  0.853338568468118  0.31301398806322567  0.9859491967542912  1.0000
  Zn  Zn3       1.0  0.14665814319540973  0.8130141504790415  0.4859492762926224  1.0000
  Zn  Zn4       1.0  0.14665949954801505  0.6869856278280649  0.014050712884312566  1.0000
  H   H1        1.0  0.694899178131877  0.0725878404170928  0.6340625523802432  1.0000
  H   H2        1.0  0.6948994705127235  0.42741086740701917  0.8659359114976938  1.0000
  H   H3        1.0  0.3050988898825082  0.9274090694171164  0.3659336873897488  1.0000
  H   H4        1.0  0.3050999576744148  0.5725914864435425  0.13406528715378133  1.0000
  H   H5        1.0  0.23843347226786454  0.1478592102416556  0.5988017832025607  1.0000
  H   H6        1.0  0.23843223705814862  0.35214133264033615  0.9011977894833125  1.0000
  H   H7        1.0  0.7615659559175258  0.8521410921335574  0.4011982998857847  1.0000
  H   H8        1.0  0.7615658309581408  0.64785829122642  0.0988015249413507  1.0000
  H   H9        1.0  0.5670658735772705  0.8932973595518943  0.7530179384550664  1.0000
  H   H10       1.0  0.5670655908730283  0.6067033385579064  0.7469831630160045  1.0000
  H   H11       1.0  0.43293083426959816  0.106701569855467  0.24698179773379542  1.0000
  H   H12       1.0  0.43293111697494885  0.39329695584119406  0.2530175152862526  1.0000
  H   H13       1.0  0.7047398991671587  0.029945939547040692  0.8547404153602829  1.0000
  H   H14       1.0  0.7047403894758519  0.4700540980571474  0.6452619668463841  1.0000
  H   H15       1.0  0.29525952901615693  0.9700522954018922  0.14525974259281327  1.0000
  H   H16       1.0  0.2952617590471078  0.529946874851383  0.3547394801195907  1.0000
  H   H17       1.0  0.2968690410516359  0.20247533203762905  0.7928707199486669  1.0000
  H   H18       1.0  0.2968677971748548  0.2975245600413885  0.7071280849383188  1.0000
  H   H19       1.0  0.7031303871334346  0.7975242998049197  0.20712799926207034  1.0000
  H   H20       1.0  0.7031316310106919  0.7024757503092902  0.29287140293608627  1.0000
  H   H21       1.0  0.16403773060398666  0.13022379115809457  0.36936558567593647  1.0000
  H   H22       1.0  0.16403938967506096  0.3697759800199307  0.1306340702642714  1.0000
  H   H23       1.0  0.8359589772433509  0.8697758167574035  0.6306349191766005  1.0000
  H   H24       1.0  0.8359573181741882  0.6302256873463818  0.8693669549374479  1.0000
  H   H25       1.0  0.4360919840148797  0.25428012948052  0.35800946577014514  1.0000
  H   H26       1.0  0.4360933911673898  0.2457204571659659  0.14199036764588877  1.0000
  H   H27       1.0  0.5639088043348367  0.7457160300669796  0.6419913622616493  1.0000
  H   H28       1.0  0.5639073971896453  0.7542832696521272  0.8580111779050555  1.0000
  H   H29       1.0  0.08587719221810632  0.3727473023863012  0.5605052428491675  1.0000
  H   H30       1.0  0.08587549123468821  0.12725247370732967  0.9394947493432471  1.0000
  H   H31       1.0  0.9141249563037308  0.6272523055304827  0.4394952620034047  1.0000
  H   H32       1.0  0.9141266572884278  0.8727485071766664  0.060506102408780245  1.0000
  H   H33       1.0  0.6418393268184062  0.3491244595336198  0.4298028937545056  1.0000
  H   H34       1.0  0.6418378623657189  0.15087550627455215  0.0701991501123587  1.0000
  H   H35       1.0  0.3581669022067686  0.6508724024497138  0.5701969172991782  1.0000
  H   H36       1.0  0.3581670064963944  0.849127526085432  0.9298028172028269  1.0000
  H   H37       1.0  0.1719882495202967  0.5096494016984252  0.536897298035399  1.0000
  H   H38       1.0  0.1719886168473082  0.9903504545176957  0.9631012432834896  1.0000
  H   H39       1.0  0.8280179795056669  0.4903481547439838  0.46310209125407203  1.0000
  H   H40       1.0  0.8280162520152885  0.009652601768699798  0.036898938389875006  1.0000
  H   H41       1.0  0.9251633966793806  0.011612552260743295  0.741554071443453  1.0000
  H   H42       1.0  0.9251625050539972  0.4883862567592701  0.7584449910560596  1.0000
  H   H43       1.0  0.07483331116622338  0.9883843495976732  0.258442763540458  1.0000
  H   H44       1.0  0.07483692313250151  0.5116154106076891  0.2415560341456812  1.0000
  C   C1        1.0  0.8411948377226041  0.07746675812569488  0.6418719581568768  1.0000
  C   C2        1.0  0.8411937642681124  0.42253269756714923  0.8581272765497306  1.0000
  C   C3        1.0  0.15880323029146134  0.9225301357575758  0.3581254720409888  1.0000
  C   C4        1.0  0.15880566391902562  0.5774696562834123  0.14187392210174474  1.0000
  C   C5        1.0  0.11868147244013734  0.11964947919071278  0.6213893360565664  1.0000
  C   C6        1.0  0.11868030478932212  0.38035031245604484  0.8786106566213194  1.0000
  C   C7        1.0  0.8813165955766281  0.8803508231841801  0.37861074703176467  1.0000
  C   C8        1.0  0.8813177632268038  0.6196493034352456  0.12138925301727703  1.0000
  C   C9        1.0  0.2864500252552845  0.05963836968489029  0.7245729890711204  1.0000
  C   C10       1.0  0.2864476694734038  0.44036150947859193  0.7754264108756035  1.0000
  C   C11       1.0  0.7135494029285213  0.9403598891904463  0.2754253832401545  1.0000
  C   C12       1.0  0.713550398543994  0.5596394793799108  0.22457384566246225  1.0000
  C   C13       1.0  0.36284888451185543  0.9716221925605024  0.7112860596895915  1.0000
  C   C14       1.0  0.36284706483416324  0.52837772224305  0.788714865309558  1.0000
  C   C15       1.0  0.6371505436720996  0.028376728872032696  0.2887142717132321  1.0000
  C   C16       1.0  0.6371523633510635  0.4716225721566971  0.21128581299272042  1.0000
  C   C17       1.0  0.5117451614344688  0.961957607357945  0.7605815142624551  1.0000
  C   C18       1.0  0.5117447464146353  0.5380417075071903  0.7394180490625928  1.0000
  C   C19       1.0  0.48825426674916633  0.038040643541926  0.23941745326275313  1.0000
  C   C20       1.0  0.48825468177059145  0.4619585868925568  0.2605826292396928  1.0000
  C   C21       1.0  0.5878878298581327  0.03759746498482739  0.8171932631266902  1.0000
  C   C22       1.0  0.5878896458729275  0.46240185466119493  0.682807158259152  1.0000
  C   C23       1.0  0.41211023815625236  0.9624000994311144  0.18280553094878363  1.0000
  C   C24       1.0  0.4121111424806045  0.5375984237879408  0.31719471047101433  1.0000
  C   C25       1.0  0.5137015969943165  0.1253021482140113  0.8278199974954676  1.0000
  C   C26       1.0  0.5137018843232752  0.37469920368513954  0.6721803479277428  1.0000
  C   C27       1.0  0.4862991913592226  0.8746974756533914  0.17217931692921695  1.0000
  C   C28       1.0  0.4862989040305764  0.6253010907149273  0.3278203303745428  1.0000
  C   C29       1.0  0.3593918480336953  0.13505312203546538  0.7824098452509959  1.0000
  C   C30       1.0  0.3593934528645805  0.36494678373627204  0.7175901509891534  1.0000
  C   C31       1.0  0.640607580150416  0.8649458073725351  0.21758989093788728  1.0000
  C   C32       1.0  0.6406086956580597  0.6350535186395874  0.2824099320992062  1.0000
  C   C33       1.0  0.5944779992867881  0.20923728223473853  0.886492160137472  1.0000
  C   C34       1.0  0.5944795104173722  0.29076272701931316  0.6135084347956338  1.0000
  C   C35       1.0  0.4055214288966908  0.790760960689667  0.11350740260168377  1.0000
  C   C36       1.0  0.4055226381052607  0.7092375753565533  0.38649164829273275  1.0000
  C   C37       1.0  0.2969527304227455  0.8891104218965608  0.6446762257837336  1.0000
  C   C38       1.0  0.2969510402095565  0.6108887672056156  0.8553251200044374  1.0000
  C   C39       1.0  0.7030466977605698  0.1108878130523721  0.3553239321693554  1.0000
  C   C40       1.0  0.70304702780561  0.3891101462511272  0.14467580661231239  1.0000
  C   C41       1.0  0.18743677104920664  0.19988868028938356  0.40635942503940475  1.0000
  C   C42       1.0  0.18743831092816524  0.3001111019824378  0.09364023124708609  1.0000
  C   C43       1.0  0.8125626571341159  0.8001095546595492  0.5936407329136913  1.0000
  C   C44       1.0  0.8125611172583336  0.699890565384514  0.9063607939546614  1.0000
  C   C45       1.0  0.32018929108474475  0.2608391919436812  0.3992689696823818  1.0000
  C   C46       1.0  0.3201893462479575  0.23916066124318294  0.10073009335473421  1.0000
  C   C47       1.0  0.6798128574345486  0.7391576700386862  0.6007308413712664  1.0000
  C   C48       1.0  0.6798114421084452  0.7608423790913078  0.8992712787464756  1.0000
  C   C49       1.0  0.14025669964739512  0.3241655079511076  0.5059782030837569  1.0000
  C   C50       1.0  0.1402564271986009  0.17583498838406797  0.9940213681492128  1.0000
  C   C51       1.0  0.8597440887059808  0.6758341079408297  0.494021706554861  1.0000
  C   C52       1.0  0.8597443611565299  0.824166678983218  0.005979657052534935  1.0000
  C   C53       1.0  0.39532650378436074  0.42088495174532164  0.4811670141645764  1.0000
  C   C54       1.0  0.39532628353276783  0.07911560759779948  0.018833413862097404  1.0000
  C   C55       1.0  0.6046770049040335  0.5791125887455024  0.5188335655527538  1.0000
  C   C56       1.0  0.6046772251610406  0.9208874407128035  0.9811673630251935  1.0000
  C   C57       1.0  0.5793641195678845  0.4152660430371924  0.4593453665673196  1.0000
  C   C58       1.0  0.5793638992538916  0.08473390112632727  0.0406560811610532  1.0000
  C   C59       1.0  0.4206380289512525  0.5847308109697094  0.540655039700269  1.0000
  C   C60       1.0  0.42063824927129195  0.9152691471839489  0.9593446957262304  1.0000
  C   C61       1.0  0.316311661314714  0.5052001946406719  0.5214927918787212  1.0000
  C   C62       1.0  0.3163120295556326  0.9947997220258243  0.9785063467899281  1.0000
  C   C63       1.0  0.6836918473744832  0.4947980403092274  0.4785073660744035  1.0000
  C   C64       1.0  0.6836914791370602  0.005201961293039399  0.0214934879839674  1.0000
  C   C65       1.0  0.9523844986766365  0.0472052113468422  0.6947825843498452  1.0000
  C   C66       1.0  0.9523821522580109  0.4527949835459636  0.8052168254519574  1.0000
  C   C67       1.0  0.047612209168803994  0.9527916825361088  0.3052148458480062  1.0000
  C   C68       1.0  0.04761455559171421  0.5472073623284857  0.1947849684134297  1.0000
  N   N1        1.0  0.9467548603337477  0.12218533137714618  0.5965486364895869  1.0000
  N   N2        1.0  0.9467536748958028  0.37781555530590777  0.9034503514647059  1.0000
  N   N3        1.0  0.0532445678526017  0.8778156734326145  0.4034504296206124  1.0000
  N   N4        1.0  0.05324439312175851  0.6221854415280603  0.09654930985941226  1.0000
  N   N5        1.0  0.1266424793654082  0.074615790051709  0.6812358808887568  1.0000
  N   N6        1.0  0.12664143178325563  0.4253833268613647  0.8187633432432764  1.0000
  N   N7        1.0  0.8733542284816238  0.9253831473311177  0.31876326008617173  1.0000
  N   N8        1.0  0.8733566362328704  0.5746162890299261  0.18123656639532734  1.0000
  N   N9        1.0  0.07677347462767872  0.24015996511760562  0.47281501395301734  1.0000
  N   N10       1.0  0.0767736085860307  0.25984114562946553  0.027184392381286688  1.0000
  N   N11       1.0  0.9232259535578748  0.75984034523308  0.5271844739213877  1.0000
  N   N12       1.0  0.9232244594320067  0.7401605297126321  0.9728160376065066  1.0000
  N   N13       1.0  0.2887028095217873  0.33973158960041155  0.4628208681753563  1.0000
  N   N14       1.0  0.28870274082905223  0.16026891919089079  0.037179558273408  1.0000
  N   N15       1.0  0.7113020593358712  0.6602666373743417  0.5371798849917155  1.0000
  N   N16       1.0  0.711300767864593  0.8397341211442466  0.962821813827823  1.0000
  O   O1        1.0  0.5164207144981958  0.28527959641076706  0.8988789954470563  1.0000
  O   O2        1.0  0.5164207209793119  0.21472038381028818  0.60112100311693  1.0000
  O   O3        1.0  0.48358007385374446  0.7147186385384927  0.10112116250604693  1.0000
  O   O4        1.0  0.4835800673758258  0.7852806289752576  0.3988774677793359  1.0000
  O   O5        1.0  0.746925676576339  0.1957333742499898  0.9206160460115742  1.0000
  O   O6        1.0  0.7469258718518431  0.3042667152568938  0.5793839559636285  1.0000
  O   O7        1.0  0.2530764719445528  0.804264876650521  0.07938292151365542  1.0000
  O   O8        1.0  0.2530762766719051  0.6957349521107048  0.42061706923813363  1.0000
  O   O9        1.0  0.2455628761747946  0.9087278002327891  0.5774260505708995  1.0000
  O   O10       1.0  0.24555975233793256  0.5912700074880917  0.9225737571294134  1.0000
  O   O11       1.0  0.754437912177309  0.09127044269193617  0.42257351216826333  1.0000
  O   O12       1.0  0.7544369555087725  0.4087289139438042  0.07742657427338878  1.0000
  O   O13       1.0  0.3007516011761027  0.8114438416346273  0.6570701221873564  1.0000
  O   O14       1.0  0.30075279173131975  0.6885560437284114  0.8429308018928484  1.0000
  O   O15       1.0  0.6992464668387511  0.18855440128945125  0.34292944055179225  1.0000
  O   O16       1.0  0.6992493567914694  0.3114449212046466  0.1570712402870598  1.0000
