data_image0
_chemical_formula_structural       Mn3H24C30N42
_chemical_formula_sum              "Mn3 H24 C30 N42"
_cell_length_a       8.329499022474845
_cell_length_b       11.609015861769468
_cell_length_c       11.631973125899453
_cell_angle_alpha    90.49584687501155
_cell_angle_beta     92.11188007312542
_cell_angle_gamma    98.74969042235044

_space_group_name_H-M_alt    "P 1"
_space_group_IT_number       1

loop_
  _space_group_symop_operation_xyz
  'x, y, z'

loop_
  _atom_site_type_symbol
  _atom_site_label
  _atom_site_symmetry_multiplicity
  _atom_site_fract_x
  _atom_site_fract_y
  _atom_site_fract_z
  _atom_site_occupancy
  Mn  Mn1       1.0  0.5064869072223388  0.5201129555071019  0.8559254270488096  1.0000
  Mn  Mn2       1.0  0.49272281061170997  0.47994285577104273  0.1466278614826919  1.0000
  Mn  Mn3       1.0  0.9996805865736248  0.4997915960235346  0.4978004276358944  1.0000
  H   H1        1.0  0.13137956448580468  0.4604363192740804  0.8989753240488625  1.0000
  H   H2        1.0  0.8684697809031618  0.5396759778369926  0.10089223574109239  1.0000
  H   H3        1.0  0.8875065496895189  0.32049547221511426  0.8307871368242842  1.0000
  H   H4        1.0  0.11247688893890744  0.6796281619334863  0.1689411278383517  1.0000
  H   H5        1.0  0.2166998256428982  0.11000442314368539  0.6851666436150765  1.0000
  H   H6        1.0  0.7836141699844748  0.8901615046029859  0.314785105998709  1.0000
  H   H7        1.0  0.4457092704665797  0.2589603264646101  0.7591098203960982  1.0000
  H   H8        1.0  0.5544777196636589  0.7412387272865217  0.24097151628554767  1.0000
  H   H9        1.0  0.5554148178288756  0.7944556667240902  0.8813908609139529  1.0000
  H   H10       1.0  0.4445915177555619  0.2054880548382485  0.11873941355529638  1.0000
  H   H11       1.0  0.776291030663451  0.9650289938310055  0.8953578596191958  1.0000
  H   H12       1.0  0.2237410766665704  0.034955006487578495  0.10451553223856538  1.0000
  H   H13       1.0  0.12066432706547658  0.7249263532668021  0.8561239807462117  1.0000
  H   H14       1.0  0.8793554811876447  0.2749924375840608  0.1435335464089462  1.0000
  H   H15       1.0  0.885281160719849  0.5644671779068631  0.8432882296679478  1.0000
  H   H16       1.0  0.11455488624105212  0.4354673879765869  0.1564448746856257  1.0000
  H   H17       1.0  0.9534483723924582  0.2378997757115116  0.4444742320075932  1.0000
  H   H18       1.0  0.046659653500626064  0.7618514816280634  0.55529215774294  1.0000
  H   H19       1.0  0.1126519360514209  0.0796411438987477  0.3934539383292233  1.0000
  H   H20       1.0  0.8875566708363394  0.9200399597288679  0.6067492553674043  1.0000
  H   H21       1.0  0.5486321577005171  0.3170394188965274  0.4930986529333835  1.0000
  H   H22       1.0  0.45140261067572146  0.6827854877937583  0.5073329188559228  1.0000
  H   H23       1.0  0.3706247718695863  0.4630007622637963  0.5435166548302774  1.0000
  H   H24       1.0  0.6291995656738223  0.5368733827492419  0.45657836591681183  1.0000
  C   C1        1.0  0.14460387524702162  0.38206577069845354  0.8499481937984967  1.0000
  C   C2        1.0  0.8553695528227435  0.6180821923894726  0.1498961212361394  1.0000
  C   C3        1.0  0.009219191060395789  0.30453469547107653  0.8118196819058525  1.0000
  C   C4        1.0  0.9908160144316724  0.6955827430506288  0.18797857434230278  1.0000
  C   C5        1.0  0.0337954722907483  0.20530898948347698  0.7495504091200118  1.0000
  C   C6        1.0  0.9663886604916455  0.7947960813249467  0.2503115761006285  1.0000
  C   C7        1.0  0.1933372085831664  0.1866492273935805  0.7324311915115232  1.0000
  C   C8        1.0  0.8068899078192331  0.8135324966570393  0.2674712873367255  1.0000
  C   C9        1.0  0.32053069855034977  0.2696689311541292  0.7732320414035385  1.0000
  C   C10       1.0  0.6796316471265627  0.7305397958945222  0.2267645314312148  1.0000
  C   C11       1.0  0.6821164209293116  0.7820118727771899  0.8775884837580322  1.0000
  C   C12       1.0  0.31788679617210386  0.21793448431066048  0.12251852760108048  1.0000
  C   C13       1.0  0.804953304079689  0.8772312320077305  0.8852568560233819  1.0000
  C   C14       1.0  0.19506235146347708  0.12272480543590089  0.1147190218811787  1.0000
  C   C15       1.0  0.9666421724790341  0.8582668144330796  0.8779185537902379  1.0000
  C   C16       1.0  0.0333629592047586  0.14164655485106434  0.12200334703394589  1.0000
  C   C17       1.0  0.9973339915374382  0.7438226677726972  0.8627159620783046  1.0000
  C   C18       1.0  0.00266517917262379  0.25609773890410986  0.1371293469803305  1.0000
  C   C19       1.0  0.8661468482933048  0.654361507455711  0.8564918418206489  1.0000
  C   C20       1.0  0.1337620373070934  0.3455737357293884  0.1434227420687009  1.0000
  C   C21       1.0  0.0853572863517584  0.2518027893256373  0.45418225219774644  1.0000
  C   C22       1.0  0.9147432729651187  0.7479292369079856  0.5456594197468689  1.0000
  C   C23       1.0  0.1732602790199067  0.16413678602017967  0.4256568059602515  1.0000
  C   C24       1.0  0.8269041283333607  0.8356037377172925  0.5744091853231694  1.0000
  C   C25       1.0  0.342986400984053  0.18758047804056582  0.4374877595128055  1.0000
  C   C26       1.0  0.6571672333171535  0.8122654769426771  0.5626606663171856  1.0000
  C   C27       1.0  0.4171112117588365  0.29632494161384665  0.4810942374199881  1.0000
  C   C28       1.0  0.5829290782925014  0.7035236689761387  0.5191150387973167  1.0000
  C   C29       1.0  0.31796300797442  0.377604178327232  0.5084248361498851  1.0000
  C   C30       1.0  0.681986663160778  0.6222620953179288  0.49157776984490903  1.0000
  N   N1        1.0  0.6156219272161039  0.4213726336906162  0.9954949971598875  1.0000
  N   N2        1.0  0.3833236080553418  0.5787298574660014  0.0055606523892777  1.0000
  N   N3        1.0  0.6466875475923999  0.3249406104041127  0.9762759398353394  1.0000
  N   N4        1.0  0.3528610528978504  0.6753611962203221  0.024598785401067896  1.0000
  N   N5        1.0  0.677912048635214  0.2321320927479461  0.9564186958238423  1.0000
  N   N6        1.0  0.3221806921538147  0.7683209877559206  0.0444563008147441  1.0000
  N   N7        1.0  0.37485696829178045  0.6241139801945721  0.7407050305442126  1.0000
  N   N8        1.0  0.6237234732007907  0.3775686437275638  0.260117176281085  1.0000
  N   N9        1.0  0.24117131527582814  0.5950934531086389  0.700797868448461  1.0000
  N   N10       1.0  0.7580738324383489  0.4056050060019272  0.2992530909011677  1.0000
  N   N11       1.0  0.10676372277617223  0.5668760253484778  0.6636524265152772  1.0000
  N   N12       1.0  0.8931758145668881  0.4332523780237736  0.3355830530371975  1.0000
  N   N13       1.0  0.6436460285114977  0.43509202266915986  0.7334982242238011  1.0000
  N   N14       1.0  0.3586632634565277  0.5651875239665499  0.2663610989916947  1.0000
  N   N15       1.0  0.7259224883386396  0.4132586350833592  0.6584677088066471  1.0000
  N   N16       1.0  0.2748232465523657  0.586184727878745  0.3408617705138397  1.0000
  N   N17       1.0  0.8058682540819079  0.3871104570665622  0.5827754205374731  1.0000
  N   N18       1.0  0.19329968078655926  0.6115708549573569  0.41599793616408925  1.0000
  N   N19       1.0  0.29866073546080685  0.36765888650573697  0.829933508528036  1.0000
  N   N20       1.0  0.7014010605432688  0.6325289908041397  0.1700681201216412  1.0000
  N   N21       1.0  0.908727745883617  0.12197029720413609  0.7018438443161868  1.0000
  N   N22       1.0  0.09150450763533512  0.8780562606607845  0.2980383342373898  1.0000
  N   N23       1.0  0.7660877508310903  0.13990305281991058  0.7008149991353392  1.0000
  N   N24       1.0  0.23409175572839297  0.86002576590905  0.2992497620604553  1.0000
  N   N25       1.0  0.629002800733268  0.14065031941998274  0.6907844477364335  1.0000
  N   N26       1.0  0.37112893304183103  0.8591424032647267  0.3094557669527944  1.0000
  N   N27       1.0  0.7105311893097053  0.6714249764528474  0.86404811248655  1.0000
  N   N28       1.0  0.28939713172844256  0.3285022411892768  0.1360817976698954  1.0000
  N   N29       1.0  0.0869269964273371  0.9567054804616645  0.8850817371344419  1.0000
  N   N30       1.0  0.9130897654233721  0.04323923941978341  0.11487256509296627  1.0000
  N   N31       1.0  0.2312626406391516  0.9486681453781853  0.8710063714533688  1.0000
  N   N32       1.0  0.7687626349985237  0.05125478058607059  0.1289384713074995  1.0000
  N   N33       1.0  0.3686648912265157  0.9592131030867607  0.8590631182371169  1.0000
  N   N34       1.0  0.6313734393506111  0.0407926033594137  0.1409198208903533  1.0000
  N   N35       1.0  0.1549688688838273  0.35763058592061  0.49389816829530275  1.0000
  N   N36       1.0  0.845013808104767  0.6422045400098924  0.505761926187084  1.0000
  N   N37       1.0  0.4280763400993309  0.09810483161617607  0.4046971795486839  1.0000
  N   N38       1.0  0.5721390754179156  0.9017890555977885  0.5954102513491007  1.0000
  N   N39       1.0  0.577703297540303  0.1120029367500095  0.40640040959829804  1.0000
  N   N40       1.0  0.422503554682919  0.8879476891712909  0.5936205337467442  1.0000
  N   N41       1.0  0.7141206391156487  0.10795175378233783  0.4020776971392194  1.0000
  N   N42       1.0  0.2860848595232355  0.8920347580754893  0.5977578672006487  1.0000
