data_image0
_chemical_formula_structural       Cd2H14C16N2O10
_chemical_formula_sum              "Cd2 H14 C16 N2 O10"
_cell_length_a       6.924772363882838
_cell_length_b       8.372727623375548
_cell_length_c       9.040073848301535
_cell_angle_alpha    90.50996971835706
_cell_angle_beta     81.75543679287773
_cell_angle_gamma    69.87929547601672

_space_group_name_H-M_alt    "P 1"
_space_group_IT_number       1

loop_
  _space_group_symop_operation_xyz
  'x, y, z'

loop_
  _atom_site_type_symbol
  _atom_site_label
  _atom_site_symmetry_multiplicity
  _atom_site_fract_x
  _atom_site_fract_y
  _atom_site_fract_z
  _atom_site_occupancy
  Cd  Cd1       1.0  0.0001856109914939128  0.12277402133115341  0.7944928334242365  1.0000
  Cd  Cd2       1.0  0.999806295645939  0.8772288301099423  0.20549597699985625  1.0000
  H   H1        1.0  0.4126658852686376  0.7936363600655909  0.2997941722868589  1.0000
  H   H2        1.0  0.587339396989684  0.2063667848209292  0.7002002930597088  1.0000
  H   H3        1.0  0.24384016903948683  0.8132056841522372  0.45513257769986404  1.0000
  H   H4        1.0  0.756155606514554  0.18680647469107473  0.5448663076862419  1.0000
  H   H5        1.0  0.5719927471145213  0.5417762543849564  0.13880534031004296  1.0000
  H   H6        1.0  0.4280190295651209  0.4582280756289236  0.8611847319019009  1.0000
  H   H7        1.0  0.16893712406754705  0.5655856356768183  0.5564439205926207  1.0000
  H   H8        1.0  0.8310836202923756  0.4344063071730631  0.44355305255624  1.0000
  H   H9        1.0  0.49700950818307627  0.08451637436640173  0.3050706013197982  1.0000
  H   H10       1.0  0.502979095772581  0.9154911324690148  0.6949418058292665  1.0000
  H   H11       1.0  0.8885263573855654  0.8796234125633688  0.6455834891007728  1.0000
  H   H12       1.0  0.11146864217347034  0.12037491898402658  0.354421664040629  1.0000
  H   H13       1.0  0.8730389102658126  0.8428910691856047  0.8204960103760544  1.0000
  H   H14       1.0  0.12695074608302556  0.1571121953672971  0.17950643588820722  1.0000
  C   C1        1.0  0.7054868478608188  0.20245746635246317  0.07914459957134312  1.0000
  C   C2        1.0  0.2945079688870181  0.7975344296160644  0.9208597530863404  1.0000
  C   C3        1.0  0.5499432324245319  0.30331451966397793  0.2089841308189194  1.0000
  C   C4        1.0  0.4500528831891586  0.6966812647150391  0.7910209587769903  1.0000
  C   C5        1.0  0.4985531201951475  0.4799159778357307  0.22309039794839694  1.0000
  C   C6        1.0  0.501451757105642  0.5200845626351267  0.7769031349556529  1.0000
  C   C7        1.0  0.35620577632388994  0.5758819665387662  0.3447698181571611  1.0000
  C   C8        1.0  0.6437970314390571  0.42411746687329105  0.6552285222244623  1.0000
  C   C9        1.0  0.2715867859509586  0.4938728237994781  0.45673909703869253  1.0000
  C   C10       1.0  0.7284223185053734  0.5061253308342516  0.5432572062879758  1.0000
  C   C11       1.0  0.3213986340211223  0.3170256367393236  0.44143839433593274  1.0000
  C   C12       1.0  0.6786008649129941  0.6829711714357957  0.5585594681572417  1.0000
  C   C13       1.0  0.4574151857914331  0.22201959360605633  0.31654524450505767  1.0000
  C   C14       1.0  0.542578406490101  0.777985069436248  0.6834587440489701  1.0000
  C   C15       1.0  0.22876338928361414  0.22803511697735251  0.5579746336326539  1.0000
  C   C16       1.0  0.7712427719662996  0.7719732835771753  0.44202279277300266  1.0000
  N   N1        1.0  0.2948646973478192  0.7558027139262505  0.3496753099199595  1.0000
  N   N2        1.0  0.7051304660190922  0.2442066999914019  0.6503193545014414  1.0000
  O   O1        1.0  0.7826130092575884  0.2866867518512493  0.9862695073526739  1.0000
  O   O2        1.0  0.21738218270636614  0.7132974349542283  0.013734013048555507  1.0000
  O   O3        1.0  0.7530296149926415  0.04061288883673341  0.06616519946786072  1.0000
  O   O4        1.0  0.24696129024088975  0.959371313573513  0.9338400989385323  1.0000
  O   O5        1.0  0.18414773050628955  0.0997674166895166  0.5157619080550264  1.0000
  O   O6        1.0  0.8158471647276996  0.9002404596450548  0.4842572632043274  1.0000
  O   O7        1.0  0.19492291945405066  0.28144587282524475  0.6950339705729436  1.0000
  O   O8        1.0  0.8050881854635962  0.7185533420306173  0.3049564291020914  1.0000
  O   O9        1.0  0.9619035573015684  0.8668669651901479  0.7364373911893766  1.0000
  O   O10       1.0  0.038092000284791525  0.13313009277305812  0.2635677301792826  1.0000
