data_image0
_chemical_formula_structural       Zn2H12C16O10
_chemical_formula_sum              "Zn2 H12 C16 O10"
_cell_length_a       5.880678138096392
_cell_length_b       7.789644635315265
_cell_length_c       9.676990425135951
_cell_angle_alpha    89.85131257618603
_cell_angle_beta     111.07434666353653
_cell_angle_gamma    86.26624447913021

_space_group_name_H-M_alt    "P 1"
_space_group_IT_number       1

loop_
  _space_group_symop_operation_xyz
  'x, y, z'

loop_
  _atom_site_type_symbol
  _atom_site_label
  _atom_site_symmetry_multiplicity
  _atom_site_fract_x
  _atom_site_fract_y
  _atom_site_fract_z
  _atom_site_occupancy
  Zn  Zn1       1.0  0.6958042074551257  0.25235902069848487  0.00911906624158827  1.0000
  Zn  Zn2       1.0  0.30420794212322727  0.7476468683783325  0.9908889401939401  1.0000
  H   H1        1.0  0.13367207930450317  0.34191818138290847  0.049627333119062186  1.0000
  H   H2        1.0  0.1266120271533566  0.14644261822677157  0.9963177052508524  1.0000
  H   H3        1.0  0.8663472969095308  0.6580866428122223  0.9503615599172189  1.0000
  H   H4        1.0  0.8733839738536204  0.8535562824945373  0.0036691584974306466  1.0000
  H   H5        1.0  0.8731677843125212  0.9184858646471029  0.7092714958685418  1.0000
  H   H6        1.0  0.14179975303008518  0.6002950401967551  0.2777214007720018  1.0000
  H   H7        1.0  0.1268461578944979  0.08151897159949331  0.290722419691633  1.0000
  H   H8        1.0  0.8581552101134375  0.39968903385099713  0.7222770824641171  1.0000
  H   H9        1.0  0.3843298268075798  0.1472625920968156  0.5509435705230243  1.0000
  H   H10       1.0  0.8620256538632205  0.34729457272360514  0.4681018618719148  1.0000
  H   H11       1.0  0.6156820011419981  0.8527463832973936  0.4490375261444298  1.0000
  H   H12       1.0  0.13798238943087426  0.652685665746823  0.5319080956965292  1.0000
  C   C1        1.0  0.29204175740410676  0.07987233893548762  0.8003284534003112  1.0000
  C   C2        1.0  0.5026273727627385  0.435088813207507  0.206559874187377  1.0000
  C   C3        1.0  0.7079833313605803  0.9201295055337367  0.19967611769981627  1.0000
  C   C4        1.0  0.4973527468742417  0.564904564022008  0.7934637959036122  1.0000
  C   C5        1.0  0.14337106046099987  0.037088247348961496  0.6452161892637915  1.0000
  C   C6        1.0  0.5027031534384605  0.47108935218264497  0.3579242378499713  1.0000
  C   C7        1.0  0.8566200632862859  0.9629328216964624  0.3547584716635653  1.0000
  C   C8        1.0  0.49728355407801667  0.5288766284141033  0.6420468425202868  1.0000
  C   C9        1.0  0.9265127369542868  0.954480754622544  0.616931576026303  1.0000
  C   C10       1.0  0.2980158802502472  0.5570696437946552  0.3755579315613743  1.0000
  C   C11       1.0  0.07352720988915  0.0455503373611208  0.3830734122739371  1.0000
  C   C12       1.0  0.7019659732427215  0.4429261434250264  0.6244723399421871  1.0000
  C   C13       1.0  0.21625409552139982  0.08248739043536801  0.5276578980519344  1.0000
  C   C14       1.0  0.7045564924638511  0.4141134574380629  0.4832794477290958  1.0000
  C   C15       1.0  0.7837675325560908  0.9175432070262559  0.47232450884571603  1.0000
  C   C16       1.0  0.2954162756273461  0.585882428962705  0.5167550551940536  1.0000
  O   O1        1.0  0.46012436928275235  0.18305386737538504  0.8177585795547271  1.0000
  O   O2        1.0  0.6781987295329869  0.33637096222894064  0.1977421966925731  1.0000
  O   O3        1.0  0.5398876482046333  0.8169534857648275  0.18224011145032643  1.0000
  O   O4        1.0  0.3217451201215837  0.6636171128615943  0.8022601174310962  1.0000
  O   O5        1.0  0.24101753185821911  0.017332348222908  0.9070423314969884  1.0000
  O   O6        1.0  0.3240745295211909  0.4968723563281118  0.09269303771970527  1.0000
  O   O7        1.0  0.758994367899916  0.9826764294330418  0.09294911380437292  1.0000
  O   O8        1.0  0.6759478151043297  0.5031149733841147  0.9073345623936644  1.0000
  O   O9        1.0  0.0537319119583657  0.2326583608373696  0.04831769839211119  1.0000
  O   O10       1.0  0.946268049036277  0.7673341013547913  0.9516658253067117  1.0000
