data_image0
_chemical_formula_structural       Zn4H39C72N25O10
_chemical_formula_sum              "Zn4 H39 C72 N25 O10"
_cell_length_a       20.268910420729433
_cell_length_b       20.043065163337584
_cell_length_c       20.662302604398032
_cell_angle_alpha    106.85442451866223
_cell_angle_beta     104.48339038307367
_cell_angle_gamma    112.69752284762032

_space_group_name_H-M_alt    "P 1"
_space_group_IT_number       1

loop_
  _space_group_symop_operation_xyz
  'x, y, z'

loop_
  _atom_site_type_symbol
  _atom_site_label
  _atom_site_symmetry_multiplicity
  _atom_site_fract_x
  _atom_site_fract_y
  _atom_site_fract_z
  _atom_site_occupancy
  Zn  Zn1       1.0  0.6208709251319676  0.6046958877092055  0.4950426587598856  1.0000
  Zn  Zn2       1.0  0.3959591959550365  0.3843015452167792  0.4918302582843026  1.0000
  Zn  Zn3       1.0  0.5199124532842276  0.5874098906808174  0.6113167216991686  1.0000
  Zn  Zn4       1.0  0.5034113506023913  0.40617762817481656  0.3834193338607221  1.0000
  H   H1        1.0  0.4402284883896143  0.27145593580036825  0.544179021353699  1.0000
  H   H2        1.0  0.540433423008345  0.5697625355265926  0.7748082774347155  1.0000
  H   H3        1.0  0.7548342559669691  0.5785657899306142  0.5794376050941565  1.0000
  H   H4        1.0  0.5667954132093486  0.2850084696461011  0.40369137712492187  1.0000
  H   H5        1.0  0.6457215850526978  0.748357296084677  0.7550462012818429  1.0000
  H   H6        1.0  0.5752192818705238  0.6510271677010594  0.3366602954895369  1.0000
  H   H7        1.0  0.399030718261038  0.6308698268850392  0.5233040294776572  1.0000
  H   H8        1.0  0.34738116588803075  0.2765661725352331  0.2177455776605655  1.0000
  H   H9        1.0  0.2252191501983701  0.304279552834032  0.3591055470802829  1.0000
  H   H10       1.0  0.37390303278652937  0.42554672172408914  0.2794036094411751  1.0000
  H   H11       1.0  0.38325922890741276  0.6056137441218254  0.6720383888952027  1.0000
  H   H12       1.0  0.9962627464777822  0.5245806794228758  0.683327714372645  1.0000
  H   H13       1.0  0.022489813331134208  0.3923949060280663  0.6460344889325216  1.0000
  H   H14       1.0  0.10671022390662442  0.6006476309080213  0.6307949610858969  1.0000
  H   H15       1.0  0.9835575584163578  0.5266457066270152  0.4874087661025897  1.0000
  H   H16       1.0  0.0102203293299397  0.3938813559151839  0.45040483519302654  1.0000
  H   H17       1.0  0.8998333843153645  0.3181418202405696  0.5033031956000471  1.0000
  H   H18       1.0  0.6007481641950746  0.043844692588137904  0.4890833430768496  1.0000
  H   H19       1.0  0.5390310526045283  0.9791643438413901  0.5799192753853432  1.0000
  H   H20       1.0  0.49905207043322974  0.8910723233501373  0.36511728741074734  1.0000
  H   H21       1.0  0.3832616658968462  0.9367319501925664  0.3331642788324628  1.0000
  H   H22       1.0  0.3215840501291965  0.8724631877382408  0.4235789475936685  1.0000
  H   H23       1.0  0.4224328360745702  0.024532369753877993  0.5474273494131198  1.0000
  H   H24       1.0  0.5087591345573796  0.5122038363105971  0.8619938226116517  1.0000
  H   H25       1.0  0.2716294957942225  0.39978701632399094  0.698242524084229  1.0000
  H   H26       1.0  0.3218061341871632  0.40375307990362336  0.028700902010115176  1.0000
  H   H27       1.0  0.22387334539302367  0.40704116493711956  0.7979106084766131  1.0000
  H   H28       1.0  0.3724453766118074  0.4133276542004722  0.15543022601048753  1.0000
  H   H29       1.0  0.24255968369284633  0.27116241077511927  0.12579615784139261  1.0000
  H   H30       1.0  0.1213256114458758  0.19756872121452324  0.009533359315554407  1.0000
  H   H31       1.0  0.9871872324145838  0.014219338531582098  0.8200783940632022  1.0000
  H   H32       1.0  0.8869451508781128  0.8774633075387258  0.7221720950397598  1.0000
  H   H33       1.0  0.1036668318162555  0.19902433439783354  0.24610431920518044  1.0000
  H   H34       1.0  0.9825112922155768  0.12722828855032015  0.12922039525940934  1.0000
  H   H35       1.0  0.7890483934875546  0.7462635719431888  0.6312874979355244  1.0000
  H   H36       1.0  0.23766801989930286  0.3892810257387822  0.46632209484431547  1.0000
  H   H37       1.0  0.5931447262398207  0.7531933634998608  0.47212840747773294  1.0000
  H   H38       1.0  0.6606785725543458  0.37801403050740123  0.366660019614919  1.0000
  H   H39       1.0  0.7248495114510122  0.8851340481791894  0.8224494821526208  1.0000
  C   C1        1.0  0.7442070932169144  0.7337951123145814  0.6529552228900853  1.0000
  C   C2        1.0  0.4700107427839838  0.28639153936027384  0.5092967220282532  1.0000
  C   C3        1.0  0.49726624479718123  0.5146692550076466  0.7253421162438587  1.0000
  C   C4        1.0  0.6729826327470434  0.4297483116137358  0.41382689490011165  1.0000
  C   C5        1.0  0.3954775543619604  0.400664786076085  0.6401282584466587  1.0000
  C   C6        1.0  0.7215855537299019  0.531982814716521  0.5229340385219103  1.0000
  C   C7        1.0  0.5346715474647823  0.2932198950465903  0.43730681228736057  1.0000
  C   C8        1.0  0.6711590014539085  0.7353973476882134  0.7158192970405964  1.0000
  C   C9        1.0  0.7421866196794511  0.7847202963542161  0.7150315237639477  1.0000
  C   C10       1.0  0.5042205438054735  0.24723559277692433  0.4734947414970351  1.0000
  C   C11       1.0  0.4257592046354829  0.4542556248216698  0.7159871377545813  1.0000
  C   C12       1.0  0.736033627119397  0.47241776075943426  0.48463325309867866  1.0000
  C   C13       1.0  0.5340528154062272  0.5944387536647187  0.3328814202025542  1.0000
  C   C14       1.0  0.2850584120449113  0.44357050735615644  0.5140281057590601  1.0000
  C   C15       1.0  0.45215912893121407  0.6528437567086983  0.5140938106777639  1.0000
  C   C16       1.0  0.32933384308948627  0.2904998341303937  0.262892376439531  1.0000
  C   C17       1.0  0.2670178650157382  0.304356081912033  0.3349507178055546  1.0000
  C   C18       1.0  0.5521995937623599  0.7158102308947603  0.48866499910754163  1.0000
  C   C19       1.0  0.43080890380605286  0.4789041231408645  0.30297511393584386  1.0000
  C   C20       1.0  0.3592245206496756  0.5537515006526662  0.6197796327195207  1.0000
  C   C21       1.0  0.454632547326291  0.5420187694730673  0.2821225751119839  1.0000
  C   C22       1.0  0.2805008323699738  0.49335903650797525  0.5748868589237618  1.0000
  C   C23       1.0  0.48150400090131734  0.7120674022389579  0.4894316572142968  1.0000
  C   C24       1.0  0.2543924673017273  0.2749918879680635  0.2598130973398796  1.0000
  C   C25       1.0  0.013504926855446804  0.4221910575141123  0.6105792000590001  1.0000
  C   C26       1.0  0.9996951776178449  0.4958106072547892  0.6314501593136939  1.0000
  C   C27       1.0  0.8004149062717189  0.4611210942685702  0.5103487201732904  1.0000
  C   C28       1.0  0.21218555521503646  0.4840110110153547  0.5855330260465339  1.0000
  C   C29       1.0  0.9460970950906924  0.3810378002085599  0.5314007602067434  1.0000
  C   C30       1.0  0.9308884369728219  0.4549030464510224  0.5516581446244332  1.0000
  C   C31       1.0  0.005917682007954319  0.42295739801743787  0.5016457177201943  1.0000
  C   C32       1.0  0.07521590743454001  0.4645374288679847  0.5810296731173139  1.0000
  C   C33       1.0  0.9933638867320979  0.49701891537760184  0.5227366188838688  1.0000
  C   C34       1.0  0.059794639433342026  0.5380391878590487  0.6020219962522334  1.0000
  C   C35       1.0  0.85832878562843  0.4544062256774382  0.5323799330435222  1.0000
  C   C36       1.0  0.14966880751951087  0.472364710401429  0.5890092519735433  1.0000
  C   C37       1.0  0.5048722154631945  0.971075161798133  0.5252887661504745  1.0000
  C   C38       1.0  0.5387813522363915  0.005044230863944699  0.47473345519939164  1.0000
  C   C39       1.0  0.5000513076622041  0.1741672544183217  0.4689479835757098  1.0000
  C   C40       1.0  0.45474421683270083  0.763090060288434  0.47358213380805136  1.0000
  C   C41       1.0  0.43952780594605656  0.9941381073983564  0.5071709580811685  1.0000
  C   C42       1.0  0.47417930766582117  0.030948835541252603  0.45721217436146583  1.0000
  C   C43       1.0  0.3837673840913424  0.9108919651536596  0.438376250555045  1.0000
  C   C44       1.0  0.44881228678779916  0.8857321749920859  0.45661711975862573  1.0000
  C   C45       1.0  0.4178042993441407  0.9457216012672164  0.38806964965837654  1.0000
  C   C46       1.0  0.4828180755876232  0.9219491118342161  0.4059166053461425  1.0000
  C   C47       1.0  0.4881832739799704  0.10733118762131258  0.46160695698668514  1.0000
  C   C48       1.0  0.4446983264695347  0.8153719291257104  0.4616340896637823  1.0000
  C   C49       1.0  0.41161052966270967  0.5390276733616589  0.21208361115528623  1.0000
  C   C50       1.0  0.3728141503382573  0.4651806184555625  0.148183510709181  1.0000
  C   C51       1.0  0.34331865867624606  0.4588350776971879  0.07743240721124064  1.0000
  C   C52       1.0  0.3507890565529975  0.5270417950362115  0.06650298470150758  1.0000
  C   C53       1.0  0.37872922119047553  0.5986120322237768  0.1293838100743372  1.0000
  C   C54       1.0  0.4084355428095209  0.6040340745471725  0.20051062374582074  1.0000
  C   C55       1.0  0.4189284565655598  0.4949437336295616  0.9020530612030414  1.0000
  C   C56       1.0  0.4462907896671169  0.4904325244008875  0.8466796606194578  1.0000
  C   C57       1.0  0.33823284089579886  0.46518089147495084  0.8857389765088044  1.0000
  C   C58       1.0  0.393902500760987  0.4552897937928718  0.7721322184078262  1.0000
  C   C59       1.0  0.31326558987120723  0.4256898636873956  0.755372939874306  1.0000
  C   C60       1.0  0.2861426363490978  0.42966592427149664  0.8110239624386468  1.0000
  C   C61       1.0  0.7992011184314264  0.8679382165465768  0.7666635137094887  1.0000
  C   C62       1.0  0.7822592126552196  0.9112589962163045  0.8209427620180351  1.0000
  C   C63       1.0  0.8381222482084354  0.9882222504875956  0.8740089504897313  1.0000
  C   C64       1.0  0.9146531984356441  0.0253130481393811  0.8769611039552458  1.0000
  C   C65       1.0  0.9285887647188173  0.9849717176880972  0.8185510578299998  1.0000
  C   C66       1.0  0.8724974770923307  0.9080019115047262  0.7647119851512798  1.0000
  C   C67       1.0  0.11846465593655608  0.1990119062702362  0.061829719538479794  1.0000
  C   C68       1.0  0.1855921849897086  0.2389754476082047  0.12664278290220213  1.0000
  C   C69       1.0  0.044861956836804495  0.1565815591540627  0.062495636092116086  1.0000
  C   C70       1.0  0.18224815577544717  0.23823978150233668  0.1940315766888361  1.0000
  C   C71       1.0  0.1079584088608669  0.20012774936161293  0.19481658417723222  1.0000
  C   C72       1.0  0.0401882996414145  0.15997583513885874  0.13002362600344242  1.0000
  N   N1        1.0  0.6793745355881953  0.6609369209209888  0.6186758769331604  1.0000
  N   N2        1.0  0.47766612629098393  0.3489067618615281  0.4934723868435499  1.0000
  N   N3        1.0  0.5072543162515044  0.49847207527074733  0.6606718350078467  1.0000
  N   N4        1.0  0.62540457759372  0.4614936232507888  0.40983890297021475  1.0000
  N   N5        1.0  0.4453411613678071  0.4281065872930584  0.6097220515723053  1.0000
  N   N6        1.0  0.6559508437666536  0.525057729170662  0.4778060076770316  1.0000
  N   N7        1.0  0.5177591759293136  0.3533139461000018  0.44962530501475584  1.0000
  N   N8        1.0  0.6343653101916826  0.6622755028481037  0.6584334971786632  1.0000
  N   N9        1.0  0.5555961383900581  0.5636159050344176  0.3782444613934359  1.0000
  N   N10       1.0  0.36011018008721857  0.47135251646594867  0.5221719988342954  1.0000
  N   N11       1.0  0.5023682051018098  0.6244816404255077  0.5277747048365597  1.0000
  N   N12       1.0  0.38190288189113625  0.3267029025814665  0.3336226524085149  1.0000
  N   N13       1.0  0.3430852690893147  0.3357443400087874  0.3785180833808043  1.0000
  N   N14       1.0  0.5638182526162437  0.6640893585566162  0.5122952230161459  1.0000
  N   N15       1.0  0.49130681813440447  0.49244482647468146  0.3604926367523618  1.0000
  N   N16       1.0  0.40533058251646986  0.5394919507311897  0.5876997493177216  1.0000
  N   N17       1.0  0.35337701692638024  0.5298281521581174  0.0005460022062279546  1.0000
  N   N18       1.0  0.30962636159233625  0.4663358740750779  0.9408707274362416  1.0000
  N   N19       1.0  0.9816629246871358  0.09125252595348599  0.9375522774901558  1.0000
  N   N20       1.0  0.97507181004066  0.10192795955705951  0.9989063234213305  1.0000
  N   N21       1.0  0.47759269409999644  0.5236480072508839  0.9769376434284  1.0000
  N   N22       1.0  0.37965018462609385  0.6674409784336107  0.11720947790738018  1.0000
  N   N23       1.0  0.4317664165211638  0.6774032534209056  0.2655002892473989  1.0000
  N   N24       1.0  0.8126807718959056  0.03070042135662019  0.9245539464621474  1.0000
  N   N25       1.0  0.3247880208197529  0.32720039365182174  0.5914124813934977  1.0000
  O   O1        1.0  0.46439814300548216  0.4783454424664484  0.00797696658831622  1.0000
  O   O2        1.0  0.5383514257826575  0.5883599691387433  0.0012723452836027845  1.0000
  O   O3        1.0  0.32859834969916335  0.6517688094049487  0.05858143773254902  1.0000
  O   O4        1.0  0.4317712322532897  0.7355700641538692  0.1648473443002203  1.0000
  O   O5        1.0  0.5016382350711338  0.7180776551196574  0.3090179777811954  1.0000
  O   O6        1.0  0.37832380443128244  0.6901637514512586  0.2718950354267164  1.0000
  O   O7        1.0  0.8269843361307352  0.09876251951319401  0.9310876333578763  1.0000
  O   O8        1.0  0.774486904697781  0.9933521595610558  0.9529058664649809  1.0000
  O   O9        1.0  0.2791423424671393  0.2929600385896194  0.6157781106099591  1.0000
  O   O10       1.0  0.3111288210112376  0.29941191709459497  0.5227229495665071  1.0000
