data_image0
_chemical_formula_structural       Cu4P4H24C16N4O14
_chemical_formula_sum              "Cu4 P4 H24 C16 N4 O14"
_cell_length_a       5.418222557497821
_cell_length_b       9.205824668445336
_cell_length_c       13.142441721947726
_cell_angle_alpha    99.28734632487547
_cell_angle_beta     91.14026957197125
_cell_angle_gamma    98.82226861527455

_space_group_name_H-M_alt    "P 1"
_space_group_IT_number       1

loop_
  _space_group_symop_operation_xyz
  'x, y, z'

loop_
  _atom_site_type_symbol
  _atom_site_label
  _atom_site_symmetry_multiplicity
  _atom_site_fract_x
  _atom_site_fract_y
  _atom_site_fract_z
  _atom_site_occupancy
  Cu  Cu1       1.0  0.2813332797514931  0.03610230723972311  0.5434633036801486  1.0000
  Cu  Cu2       1.0  0.7186558956945958  0.963888213851497  0.456536482445756  1.0000
  Cu  Cu3       1.0  0.8664976868762791  0.7487026969502822  0.14607199143387814  1.0000
  Cu  Cu4       1.0  0.13347467108967237  0.2513011484942851  0.8539260759208601  1.0000
  P   P1        1.0  0.7412707067607727  0.13042162967509796  0.6785945969459846  1.0000
  P   P2        1.0  0.2586974071216872  0.8695799761337994  0.32140089228617796  1.0000
  P   P3        1.0  0.5222266756477224  0.806550731841824  0.6367751966862727  1.0000
  P   P4        1.0  0.4777795596979145  0.19344874662143496  0.3632280545279443  1.0000
  H   H1        1.0  0.681664699267884  0.07440390851355258  0.8854070117417265  1.0000
  H   H2        1.0  0.3183356930048331  0.9256011233546243  0.11458843370654381  1.0000
  H   H3        1.0  0.3890343818020412  0.017021235862976904  0.8164981454460473  1.0000
  H   H4        1.0  0.6109644393364488  0.9829915886555652  0.18348978989152437  1.0000
  H   H5        1.0  0.1432808200386546  0.7644564697422283  0.8259395422776663  1.0000
  H   H6        1.0  0.8567082118657229  0.23553961696860887  0.17403956271986226  1.0000
  H   H7        1.0  0.060458605283329775  0.5782253992326715  0.9447429658697928  1.0000
  H   H8        1.0  0.9395214699351087  0.421771778379032  0.05523693053965668  1.0000
  H   H9        1.0  0.3790574914802463  0.5784901250983124  0.08614091432153967  1.0000
  H   H10       1.0  0.6209082314703805  0.42151592826836287  0.9138428758239172  1.0000
  H   H11       1.0  0.8673659139255888  0.9092319612531836  0.9806288159134693  1.0000
  H   H12       1.0  0.1325932281663214  0.09078521946279489  0.0193751799738919  1.0000
  H   H13       1.0  0.045026799681565324  0.8977672214204868  0.6993202809613591  1.0000
  H   H14       1.0  0.9549623944384039  0.10224446567153218  0.3006757974366749  1.0000
  H   H15       1.0  0.7607421710151527  0.6589298806364993  0.45154875925026516  1.0000
  H   H16       1.0  0.2392926828427235  0.34105964884875556  0.5484688859961295  1.0000
  H   H17       1.0  0.8951018829722558  0.5634695257330761  0.603384247473805  1.0000
  H   H18       1.0  0.10492494285652039  0.436511073285061  0.39664676847642966  1.0000
  H   H19       1.0  0.800801858798586  0.3799319491597613  0.5330010645407199  1.0000
  H   H20       1.0  0.1992347713689142  0.6200509036598733  0.46703106650628  1.0000
  H   H21       1.0  0.30566474188061216  0.5122134970624045  0.6305167090394548  1.0000
  H   H22       1.0  0.6943654458001446  0.4877793623090199  0.3695005016292256  1.0000
  H   H23       1.0  0.09702801813669738  0.36739461939193757  0.6604712506319286  1.0000
  H   H24       1.0  0.90302737897877  0.6325960787131207  0.3395520635960877  1.0000
  C   C1        1.0  0.7056989793680585  0.9551578857511842  0.7345820358574215  1.0000
  C   C2        1.0  0.2943059642992552  0.04485050030659469  0.26541459435647846  1.0000
  C   C3        1.0  0.5660036943855288  0.9805323639389695  0.834649504629368  1.0000
  C   C4        1.0  0.43398662337762056  0.019469299053490395  0.1653431757893244  1.0000
  C   C5        1.0  0.5133678444446729  0.853693647483446  0.8943720850220059  1.0000
  C   C6        1.0  0.48659409119857594  0.14631239756666048  0.10561927426848429  1.0000
  C   C7        1.0  0.2850810587379016  0.7562132492589769  0.8837255238428057  1.0000
  C   C8        1.0  0.7148931278862846  0.2437906012543961  0.11627408469650648  1.0000
  C   C9        1.0  0.23751630348958494  0.6538835925621314  0.9510315572910456  1.0000
  C   C10       1.0  0.7624507229859604  0.34612691797963885  0.04894057284708709  1.0000
  C   C11       1.0  0.41448024546565415  0.6505117021155228  0.028280981319980483  1.0000
  C   C12       1.0  0.5854894454743231  0.3494887934278026  0.9717128775190601  1.0000
  C   C13       1.0  0.6857234382754881  0.8380695096480152  0.9701911735491392  1.0000
  C   C14       1.0  0.3142622108527533  0.1619432845918851  0.029816406394068896  1.0000
  C   C15       1.0  0.9563132763188236  0.47317360305389394  0.5494944662590838  1.0000
  C   C16       1.0  0.04372589926482821  0.5268114825115616  0.4505280502117373  1.0000
  N   N1        1.0  0.6388644620545706  0.7404919089200774  0.03710381779635698  1.0000
  N   N2        1.0  0.3611017733825577  0.2595163749852603  0.9628855546820602  1.0000
  N   N3        1.0  0.16444692464495603  0.4202161278348342  0.6005180587212422  1.0000
  N   N4        1.0  0.8355949551049234  0.5797723071115682  0.39950562297551057  1.0000
  O   O1        1.0  0.8977872579000203  0.26065503392528916  0.7543772403190587  1.0000
  O   O2        1.0  0.10220624529889474  0.7393588918918821  0.2456160904444572  1.0000
  O   O3        1.0  0.8884725155775115  0.10031218678698649  0.5796159416833432  1.0000
  O   O4        1.0  0.11154447981864016  0.8996995711341139  0.42037282158565137  1.0000
  O   O5        1.0  0.4802106972177426  0.16978734664876066  0.6599668465233108  1.0000
  O   O6        1.0  0.5198127244490536  0.8301854373584804  0.34002521074965125  1.0000
  O   O7        1.0  0.9450048015697875  0.9224537880649637  0.7614641397784182  1.0000
  O   O8        1.0  0.05500223164154508  0.07755571826591276  0.23853644237530597  1.0000
  O   O9        1.0  0.49079954846631324  0.661298319708365  0.6782637496763539  1.0000
  O   O10       1.0  0.5092383599324464  0.3387023555762666  0.32174148364543936  1.0000
  O   O11       1.0  0.27081659203757613  0.8637517149519169  0.6184246619543998  1.0000
  O   O12       1.0  0.7292092173030369  0.13624447027337544  0.38156852864089064  1.0000
  O   O13       1.0  0.6730743976846014  0.7987113822776876  0.5374117867220463  1.0000
  O   O14       1.0  0.32692352927202956  0.2012769319279215  0.46258023230203793  1.0000
