data_image0
_chemical_formula_structural       Co6H16C28N12O12
_chemical_formula_sum              "Co6 H16 C28 N12 O12"
_cell_length_a       10.948095515398427
_cell_length_b       10.9471241488115
_cell_length_c       10.788025993827285
_cell_angle_alpha    87.14805154773731
_cell_angle_beta     87.17334648780648
_cell_angle_gamma    75.33647878939112

_space_group_name_H-M_alt    "P 1"
_space_group_IT_number       1

loop_
  _space_group_symop_operation_xyz
  'x, y, z'

loop_
  _atom_site_type_symbol
  _atom_site_label
  _atom_site_symmetry_multiplicity
  _atom_site_fract_x
  _atom_site_fract_y
  _atom_site_fract_z
  _atom_site_occupancy
  Co  Co1       1.0  0.0855941189002394  0.9144408394841077  0.25007505885956494  1.0000
  Co  Co2       1.0  0.9144036648734541  0.08556212169748531  0.749920863455834  1.0000
  Co  Co3       1.0  0.016200451037548195  0.1532289808439273  0.9954868538174109  1.0000
  Co  Co4       1.0  0.8465172103329622  0.9838891180417022  0.5046069658033474  1.0000
  Co  Co5       1.0  0.983802083912032  0.8467700687462739  0.004512722753425164  1.0000
  Co  Co6       1.0  0.1534825069254495  0.01610976956166608  0.49539465994376997  1.0000
  H   H1        1.0  0.05787339567474701  0.440395764415591  0.05734754906665528  1.0000
  H   H2        1.0  0.5594659632169936  0.9431671701205533  0.4422871146304954  1.0000
  H   H3        1.0  0.9421150643001328  0.5596170084161969  0.9426548294530332  1.0000
  H   H4        1.0  0.4405299978998087  0.05683634228451239  0.5577144534800382  1.0000
  H   H5        1.0  0.1488862297622475  0.34272689893320774  0.511717662756169  1.0000
  H   H6        1.0  0.6578293535249458  0.8495426823149754  0.9886158324365578  1.0000
  H   H7        1.0  0.8511229118589725  0.6572640897240305  0.4882847917256185  1.0000
  H   H8        1.0  0.34217114591348974  0.15044945167914384  0.011375986772868905  1.0000
  H   H9        1.0  0.13975589340611802  0.5574225070014763  0.41383387854988735  1.0000
  H   H10       1.0  0.44322756379931166  0.8584033967826344  0.08649012132799064  1.0000
  H   H11       1.0  0.8602467075136886  0.4425711616465904  0.5861743907203874  1.0000
  H   H12       1.0  0.556773103635777  0.14159434544365007  0.9135124445105801  1.0000
  H   H13       1.0  0.1901831761430941  0.9098057873047909  0.04086443823182857  1.0000
  H   H14       1.0  0.0902999455731859  0.8097008858468443  0.45906267857491656  1.0000
  H   H15       1.0  0.8098242108388617  0.09019307869212417  0.9591450313315588  1.0000
  H   H16       1.0  0.9097005267432651  0.19029575932405846  0.5409242109240963  1.0000
  C   C1        1.0  0.0899907976780909  0.6426177003042214  0.18172549745910518  1.0000
  C   C2        1.0  0.357552853167924  0.9098598107185508  0.3182040080015226  1.0000
  C   C3        1.0  0.9100118378354907  0.3573832619900371  0.8182813640507047  1.0000
  C   C4        1.0  0.6424468598360278  0.09014724029637476  0.6817924469960985  1.0000
  C   C5        1.0  0.0987369107966884  0.5104582823805472  0.23134723749581804  1.0000
  C   C6        1.0  0.4897708673942135  0.9009572649083852  0.2685996515084453  1.0000
  C   C7        1.0  0.9012610232380425  0.4895439172690459  0.7686617046317464  1.0000
  C   C8        1.0  0.5102297109106361  0.09904039073122556  0.7313955088716213  1.0000
  C   C9        1.0  0.0773356777461274  0.41961810869673855  0.15494442231710787  1.0000
  C   C10       1.0  0.5803892005878807  0.9231329103663128  0.3448421512627461  1.0000
  C   C11       1.0  0.9226518477402907  0.5803894722179733  0.8450620663410786  1.0000
  C   C12       1.0  0.4196076146885446  0.07686119584010236  0.6551571965479184  1.0000
  C   C13       1.0  0.0807788309803499  0.30010683784412606  0.20965083088938025  1.0000
  C   C14       1.0  0.6998801071016986  0.9196712754535452  0.29019150464504406  1.0000
  C   C15       1.0  0.9192171301364527  0.6998966745609393  0.7903507372211533  1.0000
  C   C16       1.0  0.3001185868305001  0.0803241489401216  0.7098057795802075  1.0000
  C   C17       1.0  0.10784908900100733  0.27258169912517627  0.33678909103582544  1.0000
  C   C18       1.0  0.7275220159715658  0.8920666453646007  0.1631904173850245  1.0000
  C   C19       1.0  0.8921506119842064  0.7274198951842693  0.6632095768850376  1.0000
  C   C20       1.0  0.2724766502536724  0.10792965961775282  0.8368040295335177  1.0000
  C   C21       1.0  0.129954808517077  0.3639849249784959  0.41372357622548606  1.0000
  C   C22       1.0  0.6364352857648399  0.869013619189623  0.08646684976208258  1.0000
  C   C23       1.0  0.8700544231118388  0.6360115961475685  0.5862831451092487  1.0000
  C   C24       1.0  0.36356239598242723  0.13097835281767087  0.9135270186236182  1.0000
  C   C25       1.0  0.12465589289799792  0.4820006312190871  0.35913929979184184  1.0000
  C   C26       1.0  0.5184518446747717  0.8742498600676781  0.14100633497638876  1.0000
  C   C27       1.0  0.8753467197480591  0.5179966788404043  0.640867802757043  1.0000
  C   C28       1.0  0.4815487336300777  0.1257477955719253  0.8589888254036706  1.0000
  N   N1        1.0  0.10492018194711508  0.1498278539242222  0.3608003451555247  1.0000
  N   N2        1.0  0.8501558570532667  0.8952990713857288  0.13911686077103266  1.0000
  N   N3        1.0  0.8950823310123894  0.8501729893133501  0.6391963338488367  1.0000
  N   N4        1.0  0.1498438039137682  0.10469613151287398  0.8608822289682152  1.0000
  N   N5        1.0  0.07663606014406808  0.1052449202765828  0.2563235613113264  1.0000
  N   N6        1.0  0.8946551831471014  0.923987075119051  0.24349669434446491  1.0000
  N   N7        1.0  0.9233636242754741  0.8947575654448839  0.743673194985142  1.0000
  N   N8        1.0  0.1053454228647084  0.07600969993187331  0.7565013033423112  1.0000
  N   N9        1.0  0.06156731876848201  0.19185213248458408  0.16286904751378728  1.0000
  N   N10       1.0  0.8080442919368807  0.9391814450104833  0.3369132155178604  1.0000
  N   N11       1.0  0.9384295311017183  0.8081492673680232  0.8371288925364052  1.0000
  N   N12       1.0  0.19195724768592734  0.0608150760753716  0.6630838106359676  1.0000
  O   O1        1.0  0.1140579921337519  0.7193564412359733  0.25583878466665766  1.0000
  O   O2        1.0  0.2806753734303058  0.8859575552156898  0.24414087385988373  1.0000
  O   O3        1.0  0.8859465388937694  0.2806467631275637  0.7441668786802822  1.0000
  O   O4        1.0  0.71932153331624  0.11405115992979371  0.7558575097944739  1.0000
  O   O5        1.0  0.0569089081658163  0.6699855581837185  0.0689421003002835  1.0000
  O   O6        1.0  0.3302990901241358  0.9430142577847035  0.4309876946342825  1.0000
  O   O7        1.0  0.94309373306465  0.33001631716923185  0.9310647009497544  1.0000
  O   O8        1.0  0.6697015284913732  0.05699160455979071  0.569005997725547  1.0000
  O   O9        1.0  0.1000386631837316  0.9397892433863222  0.06032922254792788  1.0000
  O   O10       1.0  0.0601758233956602  0.8998983189851943  0.439806790940274  1.0000
  O   O11       1.0  0.8999666626275201  0.06021629466153652  0.9396623289343748  1.0000
  O   O12       1.0  0.9398238827214627  0.10010055779483905  0.5601939091245283  1.0000
