data_image0
_chemical_formula_structural       Na5MnH24C8O22
_chemical_formula_sum              "Na5 Mn1 H24 C8 O22"
_cell_length_a       6.763445036898688
_cell_length_b       9.555848542936491
_cell_length_c       10.486987319911764
_cell_angle_alpha    110.92690635004057
_cell_angle_beta     108.81605087079525
_cell_angle_gamma    89.98812484627726

_space_group_name_H-M_alt    "P 1"
_space_group_IT_number       1

loop_
  _space_group_symop_operation_xyz
  'x, y, z'

loop_
  _atom_site_type_symbol
  _atom_site_label
  _atom_site_symmetry_multiplicity
  _atom_site_fract_x
  _atom_site_fract_y
  _atom_site_fract_z
  _atom_site_occupancy
  Na  Na1       1.0  0.28857656847548435  0.4957961006892049  0.4704783852805859  1.0000
  Na  Na2       1.0  0.8180138374563626  0.5042463938285452  0.5293397571507369  1.0000
  Na  Na3       1.0  0.0014750192532062964  0.2766830702571568  0.039638293792933196  1.0000
  Na  Na4       1.0  0.9618293044304382  0.7233109535649334  0.9603225273479193  1.0000
  Na  Na5       1.0  0.46184435304406424  0.4999406803127542  4.287665350221672e-05  1.0000
  Mn  Mn1       1.0  0.31245512329907404  0.9999936409255314  2.4042757978345438e-05  1.0000
  H   H1        1.0  0.3031476890611557  0.9541676833013356  0.6362684944490977  1.0000
  H   H2        1.0  0.6672581931984994  0.0458570922430113  0.3637704256145397  1.0000
  H   H3        1.0  0.9315734216301266  0.9928199768171881  0.6555908290791022  1.0000
  H   H4        1.0  0.2763752804511341  0.007041399317380101  0.3444591562439711  1.0000
  H   H5        1.0  0.7727732369198392  0.08342483984649361  0.14503519448222588  1.0000
  H   H6        1.0  0.6275352505523769  0.9167102297509899  0.8548031045499724  1.0000
  H   H7        1.0  0.009505644091426301  0.06708280961458972  0.15053750367047763  1.0000
  H   H8        1.0  0.8587884434528803  0.9329777500799569  0.8493653958566155  1.0000
  H   H9        1.0  0.9303716569728735  0.518439576945852  0.2470917944477407  1.0000
  H   H10       1.0  0.6834500409266866  0.4815564505854511  0.7527870642389372  1.0000
  H   H11       1.0  0.12130580220947  0.5768339896858806  0.20917170719496167  1.0000
  H   H12       1.0  0.9123269796387775  0.4231650707925568  0.7907286745324381  1.0000
  H   H13       1.0  0.5590997726866148  0.18369865808016075  0.8951974298298635  1.0000
  H   H14       1.0  0.6639324061517088  0.8163486724050416  0.10478733164109853  1.0000
  H   H15       1.0  0.6016423479740709  0.27450318971699533  0.8078868506079501  1.0000
  H   H16       1.0  0.793791257951007  0.7256422704037392  0.19220981427150005  1.0000
  H   H17       1.0  0.9770322372571414  0.2502415349750038  0.33723366021098394  1.0000
  H   H18       1.0  0.6396636097136152  0.7498499562993219  0.6627519479286831  1.0000
  H   H19       1.0  0.0654755376623797  0.26355075192213934  0.503550132244058  1.0000
  H   H20       1.0  0.5617960801798816  0.7364545095692991  0.4964353924617484  1.0000
  H   H21       1.0  0.30981752313663685  0.39855604024845803  0.7098294240727936  1.0000
  H   H22       1.0  0.5999376739942122  0.6014649165719917  0.2903282020030957  1.0000
  H   H23       1.0  0.33696292338211004  0.5819629974159073  0.7725291800099539  1.0000
  H   H24       1.0  0.5642301438936458  0.41805428458884825  0.22759112961522732  1.0000
  C   C1        1.0  0.19120317732277672  0.7874674275563012  0.7032862625304616  1.0000
  C   C2        1.0  0.4879246997970554  0.21252672143684492  0.2967575667872139  1.0000
  C   C3        1.0  0.2599463881598822  0.9520169729345298  0.7280664347905057  1.0000
  C   C4        1.0  0.5321941832220816  0.04801132489350831  0.27199703072025727  1.0000
  C   C5        1.0  0.0793670110501026  0.0452843252340571  0.7489104621901246  1.0000
  C   C6        1.0  0.3308145479946064  0.9546221233337918  0.2511122840513451  1.0000
  C   C7        1.0  0.13002938558689442  0.2063447968596465  0.7558597782570329  1.0000
  C   C8        1.0  0.37444959246036547  0.7935003501238002  0.2440924457189125  1.0000
  O   O1        1.0  0.09377770679203933  0.6954423758775123  0.5766821398012211  1.0000
  O   O2        1.0  0.5170389377657614  0.304568428997797  0.4233551215425776  1.0000
  O   O3        1.0  0.23812919087715298  0.7577176009612357  0.8198382911486701  1.0000
  O   O4        1.0  0.4182432343936142  0.2422443968936037  0.18019656771738815  1.0000
  O   O5        1.0  0.43187486263541786  0.01962696563427361  0.8632453909759901  1.0000
  O   O6        1.0  0.5689391430099846  0.9804803924767144  0.1367864343579157  1.0000
  O   O7        1.0  0.0578353174672444  0.04563799128637672  0.8796731407574894  1.0000
  O   O8        1.0  0.17844692406881532  0.9543417845773947  0.12038315930004742  1.0000
  O   O9        1.0  0.11365402236909723  0.3193613463159438  0.8613494453371684  1.0000
  O   O10       1.0  0.2525875285934376  0.6805470040258187  0.1385241087916639  1.0000
  O   O11       1.0  0.1867495646710964  0.21499198771904565  0.6543580248071307  1.0000
  O   O12       1.0  0.5324674402653359  0.7848133814258277  0.34568697842149004  1.0000
  O   O13       1.0  0.9081041940272101  0.14380506257355563  0.16525666133543368  1.0000
  O   O14       1.0  0.7425958203594759  0.8562689476533266  0.8345300847523516  1.0000
  O   O15       1.0  0.07171737714421772  0.5016091940661911  0.2405056859802173  1.0000
  O   O16       1.0  0.8313900958193158  0.498424770506631  0.759420775110584  1.0000
  O   O17       1.0  0.63771202581367  0.27978285130564745  0.9073164222187627  1.0000
  O   O18       1.0  0.730300402338912  0.720183836370424  0.0927341377294936  1.0000
  O   O19       1.0  0.0180738727472942  0.3224736476978407  0.44148386894826064  1.0000
  O   O20       1.0  0.5763277027769718  0.6775747981343871  0.5585257286694656  1.0000
  O   O21       1.0  0.41357033009047944  0.4918739027773711  0.7534258436426525  1.0000
  O   O22       1.0  0.6601603646895029  0.5080714396764707  0.24685480166981216  1.0000
