data_image0
_chemical_formula_structural       Ag2H16C20N4Cl2
_chemical_formula_sum              "Ag2 H16 C20 N4 Cl2"
_cell_length_a       5.893952260461924
_cell_length_b       9.27241182441881
_cell_length_c       9.27220846417298
_cell_angle_alpha    92.46145398569529
_cell_angle_beta     107.93879870777863
_cell_angle_gamma    107.94135766228044

_space_group_name_H-M_alt    "P 1"
_space_group_IT_number       1

loop_
  _space_group_symop_operation_xyz
  'x, y, z'

loop_
  _atom_site_type_symbol
  _atom_site_label
  _atom_site_symmetry_multiplicity
  _atom_site_fract_x
  _atom_site_fract_y
  _atom_site_fract_z
  _atom_site_occupancy
  Ag  Ag1       1.0  0.24999420457447025  0.9185321875115731  0.08147916820001908  1.0000
  Ag  Ag2       1.0  0.7500087253270847  0.08147106509108674  0.9185283676957854  1.0000
  H   H1        1.0  0.11947919460948944  0.0245099818573493  0.3709728249747926  1.0000
  H   H2        1.0  0.38049227809893443  0.6290433475766833  0.9754896312215068  1.0000
  H   H3        1.0  0.8805188788781705  0.9754909971424367  0.629031498676035  1.0000
  H   H4        1.0  0.6195069327372165  0.37095650732843666  0.02450839049249959  1.0000
  H   H5        1.0  0.3293458798516157  0.2161673243870652  0.6133492832454763  1.0000
  H   H6        1.0  0.17061782680004706  0.386663118591123  0.7838419544482704  1.0000
  H   H7        1.0  0.6706577236217585  0.7838497509790656  0.3866504075068918  1.0000
  H   H8        1.0  0.8293800931776473  0.6133344754178862  0.21614815920641917  1.0000
  H   H9        1.0  0.011558947663289122  0.3427406688820014  0.49468123230091277  1.0000
  H   H10       1.0  0.4884199319705259  0.5053292388074196  0.6572587698757175  1.0000
  H   H11       1.0  0.9884396103021442  0.657258020225022  0.5053209210244347  1.0000
  H   H12       1.0  0.5115757152945904  0.4946706128176074  0.34274179148169287  1.0000
  H   H13       1.0  0.7795987230397543  0.13490247946942446  0.2678597752064533  1.0000
  H   H14       1.0  0.7203869104520422  0.7321477298788254  0.8650895613386709  1.0000
  H   H15       1.0  0.2204108337860192  0.8650904361875149  0.7321431748327926  1.0000
  H   H16       1.0  0.27961229939190707  0.2678521203129591  0.13490953846080345  1.0000
  C   C1        1.0  0.31780510316987426  0.09769572094820228  0.4047666618983784  1.0000
  C   C2        1.0  0.18216754367551857  0.595248485900818  0.9022984794739132  1.0000
  C   C3        1.0  0.6822149778253817  0.9023063162700637  0.5952474005882848  1.0000
  C   C4        1.0  0.8178350643231197  0.4047479260201996  0.09769680771161396  1.0000
  C   C5        1.0  0.43299528921944125  0.20750107374034596  0.535907133652735  1.0000
  C   C6        1.0  0.06696944377366529  0.46409719286058504  0.7925068352938567  1.0000
  C   C7        1.0  0.5670055542220709  0.7925079770093078  0.46408948312152637  1.0000
  C   C8        1.0  0.9330210122760433  0.5358934832065144  0.2074922802193555  1.0000
  C   C9        1.0  0.6867997558360273  0.30047185942405  0.571275617146057  1.0000
  C   C10       1.0  0.8131753408994058  0.4287242200785285  0.699532986161593  1.0000
  C   C11       1.0  0.3132059430271852  0.6995394602151421  0.4287252899586563  1.0000
  C   C12       1.0  0.186816102822533  0.5712745237417209  0.3004602313394926  1.0000
  C   C13       1.0  0.8149232348108839  0.27316117213364777  0.47402635615459604  1.0000
  C   C14       1.0  0.68505734485926  0.525983391338471  0.7268438565294275  1.0000
  C   C15       1.0  0.1850549098267322  0.7268203548087155  0.5259688462029715  1.0000
  C   C16       1.0  0.3149522316754059  0.4740221765705002  0.273156458063184  1.0000
  C   C17       1.0  0.686842247537477  0.16002248981183698  0.34611912555117647  1.0000
  C   C18       1.0  0.8131284784730184  0.6538833290339524  0.8399779682499686  1.0000
  C   C19       1.0  0.3131660282167417  0.8399807700676263  0.6538840618367914  1.0000
  C   C20       1.0  0.18686781769401511  0.34611766953582196  0.16002277383795874  1.0000
  N   N1        1.0  0.44080264887754333  0.07440978153611869  0.3100033152797367  1.0000
  N   N2        1.0  0.05916197651605159  0.6900111389674278  0.9255890821034002  1.0000
  N   N3        1.0  0.5591884590506806  0.9255820556157344  0.6899927467076097  1.0000
  N   N4        1.0  0.9408445169565454  0.3099921169153248  0.07441591414900021  1.0000
  Cl  Cl1       1.0  0.2500068651283343  0.1215957827288747  0.8784008749424289  1.0000
  Cl  Cl2       1.0  0.7499890982215973  0.878398323312517  0.12159947737535497  1.0000
