data_image0
_chemical_formula_structural       H20Pb2C28N4O18
_chemical_formula_sum              "H20 Pb2 C28 N4 O18"
_cell_length_a       6.689879365033655
_cell_length_b       6.736459502878596
_cell_length_c       17.38334073180836
_cell_angle_alpha    87.46250517105133
_cell_angle_beta     81.61289440022585
_cell_angle_gamma    84.88246907573205

_space_group_name_H-M_alt    "P 1"
_space_group_IT_number       1

loop_
  _space_group_symop_operation_xyz
  'x, y, z'

loop_
  _atom_site_type_symbol
  _atom_site_label
  _atom_site_symmetry_multiplicity
  _atom_site_fract_x
  _atom_site_fract_y
  _atom_site_fract_z
  _atom_site_occupancy
  H   H1        1.0  0.7926199463710899  0.24103198417725485  0.9879047542145396  1.0000
  H   H2        1.0  0.2073822333546218  0.7589958124183624  0.012083057424398202  1.0000
  H   H3        1.0  0.6260994334453115  0.15706684204043603  0.873927306062775  1.0000
  H   H4        1.0  0.373897283441366  0.8429697462352478  0.12606528154198315  1.0000
  H   H5        1.0  0.0508034848297001  0.2614383185305584  0.02050269216458389  1.0000
  H   H6        1.0  0.9491901130563536  0.7385441091043106  0.9795062695838933  1.0000
  H   H7        1.0  0.2404316676557627  0.796090276607572  0.4195416535646358  1.0000
  H   H8        1.0  0.7596306492730206  0.2038654776183151  0.5804698306517933  1.0000
  H   H9        1.0  0.28709842363713983  0.9931204871494542  0.5317878040429561  1.0000
  H   H10       1.0  0.712959287156508  0.006853177558170404  0.46822254414659875  1.0000
  H   H11       1.0  0.2047257797660222  0.5252356683348934  0.38759765588369516  1.0000
  H   H12       1.0  0.7952350926836758  0.47476023555192637  0.6124053554348663  1.0000
  H   H13       1.0  0.9788316321798831  0.06993661042341161  0.8411651023129136  1.0000
  H   H14       1.0  0.021155887734330678  0.9300490168321005  0.1588355046511438  1.0000
  H   H15       1.0  0.3072133336056879  0.39517182132095735  0.642805799667286  1.0000
  H   H16       1.0  0.692790637466736  0.6048169861434332  0.35718988668977397  1.0000
  H   H17       1.0  0.6979855141033441  0.3158219818032819  0.338560241828631  1.0000
  H   H18       1.0  0.3019799691257248  0.684157651186382  0.661438706730294  1.0000
  H   H19       1.0  0.6173025055316189  0.4165045140521857  0.2610525336202371  1.0000
  H   H20       1.0  0.3827164436661405  0.5834842364580483  0.738946979107524  1.0000
  Pb  Pb1       1.0  0.0976082078530709  0.4193068678243392  0.20628353033162478  1.0000
  Pb  Pb2       1.0  0.9024912174840765  0.5807007583033227  0.7936914344306344  1.0000
  C   C1        1.0  0.5081267633473843  0.2962250782183773  0.0621786018853143  1.0000
  C   C2        1.0  0.4918560539158605  0.7038291279150928  0.9378219654944215  1.0000
  C   C3        1.0  0.6291454168297433  0.24524179644871688  0.9924669178561059  1.0000
  C   C4        1.0  0.37084892490509  0.7548347933576736  0.007534497341104892  1.0000
  C   C5        1.0  0.5380324583887345  0.19924224844664454  0.929441786982508  1.0000
  C   C6        1.0  0.46197476142303623  0.8007746712527961  0.07056200878294307  1.0000
  C   C7        1.0  0.32711117886535857  0.20281656347894034  0.9378253386816835  1.0000
  C   C8        1.0  0.6728930716452837  0.7972020303027418  0.06217168614059428  1.0000
  C   C9        1.0  0.215693417909236  0.25589390708920223  0.0097398178164951  1.0000
  C   C10       1.0  0.7842890781034841  0.744132102796961  0.990255941345495  1.0000
  C   C11       1.0  0.6059444177345057  0.34820993604964207  0.131152784711297  1.0000
  C   C12       1.0  0.3940324370062882  0.6518099310957695  0.8688485220455531  1.0000
  C   C13       1.0  0.2333523291743305  0.14308891353122996  0.8702564511241418  1.0000
  C   C14       1.0  0.7666568542199741  0.8569072141221101  0.12974462650202406  1.0000
  C   C15       1.0  0.1925623039477529  0.056761495783995  0.34546392084462946  1.0000
  C   C16       1.0  0.8074290428252553  0.943197184712453  0.6545408524156996  1.0000
  C   C17       1.0  0.23252998949440953  0.9573638490892975  0.41424791956244167  1.0000
  C   C18       1.0  0.7674854458151117  0.0425784930715452  0.5857575346822869  1.0000
  C   C19       1.0  0.2598951229929796  0.0677026007099286  0.47702772696731427  1.0000
  C   C20       1.0  0.7401347224646599  0.9322636311815415  0.5229784065330063  1.0000
  C   C21       1.0  0.2505337126998768  0.2754905493677242  0.4690972871629098  1.0000
  C   C22       1.0  0.7494264916210368  0.7244800578289201  0.5309037742920565  1.0000
  C   C23       1.0  0.21272384440254644  0.36399477376465955  0.3976094775656378  1.0000
  C   C24       1.0  0.7872666103937219  0.6359760331162223  0.6023882860821884  1.0000
  C   C25       1.0  0.1546020385061624  0.9413876117578397  0.2770849285019068  1.0000
  C   C26       1.0  0.8454180585287717  0.05860402931314471  0.7229179404860132  1.0000
  C   C27       1.0  0.273333833277249  0.40293470844029144  0.5348125436866764  1.0000
  C   C28       1.0  0.7266438453011901  0.5970762289655127  0.4651882568329382  1.0000
  N   N1        1.0  0.30445466886566663  0.30205486043370666  0.07006175972930606  1.0000
  N   N2        1.0  0.6955328830610199  0.6979832068415774  0.9299301341335064  1.0000
  N   N3        1.0  0.18312939375884701  0.2573226057409243  0.3378589832864235  1.0000
  N   N4        1.0  0.8168544376246984  0.7426377098074539  0.6621398306913588  1.0000
  O   O1        1.0  0.4877874648080009  0.39509316022351015  0.19400605117181155  1.0000
  O   O2        1.0  0.5121732957950798  0.6048895148465618  0.8059902276106354  1.0000
  O   O3        1.0  0.7962527339669735  0.34424337453002346  0.12187123614523895  1.0000
  O   O4        1.0  0.20371497544644512  0.6558205906321105  0.8781512801428375  1.0000
  O   O5        1.0  0.03172882263714169  0.139757714756513  0.8855710332739901  1.0000
  O   O6        1.0  0.9682838983779193  0.8602357099102349  0.11442068932944234  1.0000
  O   O7        1.0  0.3350551431630181  0.0991317384332859  0.8077822999238646  1.0000
  O   O8        1.0  0.6649514978302521  0.9009107510306578  0.19221372628461345  1.0000
  O   O9        1.0  0.11185974955152031  0.045702729368486  0.21638791208481215  1.0000
  O   O10       1.0  0.8881509223611702  0.9542966519527666  0.783603842218987  1.0000
  O   O11       1.0  0.164308118160065  0.7552298773490946  0.28325718768115127  1.0000
  O   O12       1.0  0.835703533998185  0.2447558370323719  0.7167433169537032  1.0000
  O   O13       1.0  0.26203998813806356  0.5871582252695262  0.5292876915137796  1.0000
  O   O14       1.0  0.7379604170915924  0.41281687622476676  0.47071755683496946  1.0000
  O   O15       1.0  0.30279821665877904  0.2975078594044477  0.5992461018466455  1.0000
  O   O16       1.0  0.69719359262956  0.7024971814146995  0.40075403946334365  1.0000
  O   O17       1.0  0.7130070507864235  0.4279499926683669  0.3013566426150333  1.0000
  O   O18       1.0  0.28698009127851526  0.5720385011345356  0.6986479753925037  1.0000
