data_image0
_chemical_formula_structural       Fe2H56C52S2N8O8
_chemical_formula_sum              "Fe2 H56 C52 S2 N8 O8"
_cell_length_a       10.503111372298559
_cell_length_b       11.555197702003984
_cell_length_c       12.0866
_cell_angle_alpha    108.56361280399068
_cell_angle_beta     116.20284449526406
_cell_angle_gamma    89.8408327739712

_space_group_name_H-M_alt    "P 1"
_space_group_IT_number       1

loop_
  _space_group_symop_operation_xyz
  'x, y, z'

loop_
  _atom_site_type_symbol
  _atom_site_label
  _atom_site_symmetry_multiplicity
  _atom_site_fract_x
  _atom_site_fract_y
  _atom_site_fract_z
  _atom_site_occupancy
  Fe  Fe1       1.0  0.4999994777168483  0.49999956588265343  0.9999994606301429  1.0000
  Fe  Fe2       1.0  0.4999995430195839  0.9999982066351194  0.9999999820846455  1.0000
  H   H1        1.0  0.9695987835030027  0.8723274642905707  0.652126160218785  1.0000
  H   H2        1.0  0.6811041403543783  0.3729273827744777  0.6507964117408136  1.0000
  H   H3        1.0  0.030401407287435202  0.127672592604938  0.347872689260825  1.0000
  H   H4        1.0  0.3188939281441492  0.6270726741210311  0.3492032781361516  1.0000
  H   H5        1.0  0.03649457246915229  0.7334367429371937  0.6585573865170462  1.0000
  H   H6        1.0  0.6203092582031077  0.23380352861188672  0.6562819919972896  1.0000
  H   H7        1.0  0.9635057925320683  0.2665642390885097  0.3414426387430966  1.0000
  H   H8        1.0  0.37968881029541984  0.7661965282836221  0.3437176978796757  1.0000
  H   H9        1.0  0.953721253018948  0.5631757817907683  0.9244860292834006  1.0000
  H   H10       1.0  0.9716163664957308  0.0634815088725631  0.9236003376425475  1.0000
  H   H11       1.0  0.046279111982265406  0.4368252002349351  0.07551482333928317  1.0000
  H   H12       1.0  0.028386295008175504  0.936520398283335  0.07640250508838164  1.0000
  H   H13       1.0  0.8020344449761583  0.47591472637773086  0.2101555762007266  1.0000
  H   H14       1.0  0.4077753057443374  0.9749780605027283  0.2089557536095725  1.0000
  H   H15       1.0  0.197964684668321  0.524085330517778  0.7898436934775646  1.0000
  H   H16       1.0  0.5922236496893589  0.0250210712625858  0.7910448223757882  1.0000
  H   H17       1.0  0.9706669388323665  0.5742782692647808  0.4483538441755573  1.0000
  H   H18       1.0  0.4769192267884819  0.0742083934872824  0.446292171846828  1.0000
  H   H19       1.0  0.029332365022902696  0.42572271276091556  0.5516457739207326  1.0000
  H   H20       1.0  0.5230790159208354  0.9257925885384211  0.5537086938106626  1.0000
  H   H21       1.0  0.8227417744625712  0.5205624347340034  0.040900213219089245  1.0000
  H   H22       1.0  0.2206831474026885  0.0206516813500954  0.041001839148634624  1.0000
  H   H23       1.0  0.17725752939269768  0.4794385472917  0.9590994048772004  1.0000
  H   H24       1.0  0.7793181045336937  0.9793483755454134  0.9589990722199107  1.0000
  H   H25       1.0  0.4553176418311367  0.6267155738656385  0.8039839597810996  1.0000
  H   H26       1.0  0.3492794638589629  0.1266271954842324  0.8052478065082198  1.0000
  H   H27       1.0  0.5446811393917699  0.3732826327694809  0.19601461306118756  1.0000
  H   H28       1.0  0.650720552720685  0.8733719362810817  0.19475152191593298  1.0000
  H   H29       1.0  0.5655757818451832  0.6643794743774478  0.6714605459735098  1.0000
  H   H30       1.0  0.1045387811485554  0.1642466897466619  0.6716550504807444  1.0000
  H   H31       1.0  0.43442458315603727  0.3356215076482556  0.32854113401170093  1.0000
  H   H32       1.0  0.8954612354310855  0.8357524420186451  0.32834510530593525  1.0000
  H   H33       1.0  0.7651350980195489  0.5725112705917255  0.5980216097710314  1.0000
  H   H34       1.0  0.8306698979131114  0.0730399540505999  0.597268835595884  1.0000
  H   H35       1.0  0.23486403162493732  0.4274887863037833  0.4019784872697869  1.0000
  H   H36       1.0  0.16933046708810912  0.9269610279751035  0.40273118966426585  1.0000
  H   H37       1.0  0.9394219631820704  0.5916087332136897  0.7315145271402416  1.0000
  H   H38       1.0  0.7908825125285406  0.0917331347772006  0.7302397438968741  1.0000
  H   H39       1.0  0.06057840181914999  0.4083922488120137  0.2684863254824421  1.0000
  H   H40       1.0  0.20911873940784184  0.9082669221183011  0.269761994834198  1.0000
  H   H41       1.0  0.5198593991323506  0.7230743596194316  0.23434697378566954  1.0000
  H   H42       1.0  0.714306933030315  0.2230646173046296  0.2359755004223061  1.0000
  H   H43       1.0  0.4801399047229183  0.2769266224062719  0.7656518169480863  1.0000
  H   H44       1.0  0.2856955701440356  0.7769308139399059  0.7640253105464937  1.0000
  H   H45       1.0  0.9442100547023315  0.8159269019329685  0.8185456787084036  1.0000
  H   H46       1.0  0.8743853822513685  0.3159162344879718  0.8185818473741905  1.0000
  H   H47       1.0  0.0557904845096715  0.1840750052229296  0.18145469496973735  1.0000
  H   H48       1.0  0.125612686247166  0.684083822407537  0.18141949722784292  1.0000
  H   H49       1.0  0.7691132626356918  0.8033534574483951  0.6900660511107688  1.0000
  H   H50       1.0  0.9210360198290745  0.3036120028902332  0.6912562234610746  1.0000
  H   H51       1.0  0.2308871023655286  0.19664752457730833  0.30993397414938073  1.0000
  H   H52       1.0  0.0789645193829287  0.6963899042656649  0.30874580494213444  1.0000
  H   H53       1.0  0.6778536216190646  0.8313654746324488  0.47455769933764474  1.0000
  H   H54       1.0  0.7966528484796528  0.3318839816591677  0.47569333825295257  1.0000
  H   H55       1.0  0.32214533381462473  0.1686336571328653  0.5254412219226482  1.0000
  H   H56       1.0  0.20334911618110144  0.6681142249759446  0.5243072834434487  1.0000
  C   C1        1.0  0.9372493771907104  0.773677131042966  0.6294954347505526  1.0000
  C   C2        1.0  0.6909358717384252  0.2742576217927777  0.6283956939939445  1.0000
  C   C3        1.0  0.0627509878105101  0.22632385098273744  0.3705045905095902  1.0000
  C   C4        1.0  0.30906202254931975  0.7257415099725364  0.3716019927399545  1.0000
  C   C5        1.0  0.7694121008816026  0.6133520681942599  0.7843945816705188  1.0000
  C   C6        1.0  0.014666167616432798  0.11309716637769181  0.7839222863708173  1.0000
  C   C7        1.0  0.23058720297366622  0.3866489138314435  0.21560586378830499  1.0000
  C   C8        1.0  0.9853354327415218  0.8869047407781991  0.21608014919625163  1.0000
  C   C9        1.0  0.8419661356043093  0.5765281858997966  0.8931834125929542  1.0000
  C   C10       1.0  0.052031507292802814  0.0765943042610076  0.8927878943853929  1.0000
  C   C11       1.0  0.1580331682509595  0.4234727961259069  0.1068162055033355  1.0000
  C   C12       1.0  0.9479686834976279  0.9234057526344941  0.10721260981928545  1.0000
  C   C13       1.0  0.7790798964583274  0.5569598320084168  0.2709761494367342  1.0000
  C   C14       1.0  0.49141393758061724  0.0564717973826347  0.2700560212468092  1.0000
  C   C15       1.0  0.22092029433210314  0.44304022488708483  0.72902352740541  1.0000
  C   C16       1.0  0.5085850178530791  0.9435273343826722  0.7299437273760107  1.0000
  C   C17       1.0  0.840281810686193  0.7129303070277615  0.48409059188620074  1.0000
  C   C18       1.0  0.6430324489610371  0.2132850660099166  0.48344607244560234  1.0000
  C   C19       1.0  0.1597183801042377  0.2870697498677401  0.5159090849559433  1.0000
  C   C20       1.0  0.3569657937482802  0.7867159160157867  0.5165539658493615  1.0000
  C   C21       1.0  0.8723483545232966  0.6117562186073329  0.40525007472563607  1.0000
  C   C22       1.0  0.5320850935618964  0.1117048454337422  0.40386317364870916  1.0000
  C   C23       1.0  0.1276518362671411  0.3882438382881759  0.5947479473914399  1.0000
  C   C24       1.0  0.4679150972285342  0.8882952114617665  0.5961365031934349  1.0000
  C   C25       1.0  0.7702261100214187  0.5544656810018438  0.9595497782782871  1.0000
  C   C26       1.0  0.1910544540018364  0.054431885301959006  0.959631481016281  1.0000
  C   C27       1.0  0.22977301962306032  0.44553437589366496  0.04044949139999694  1.0000
  C   C28       1.0  0.8089471463561182  0.9455700218539391  0.04037095455078803  1.0000
  C   C29       1.0  0.5651264534993176  0.6120605864415936  0.8263884512354666  1.0000
  C   C30       1.0  0.2617804447631897  0.11195278032608512  0.8269724771923351  1.0000
  C   C31       1.0  0.4348726761451616  0.3879394704539152  0.17361164580535166  1.0000
  C   C32       1.0  0.7382183364597241  0.8880454263090272  0.1730252682874251  1.0000
  C   C33       1.0  0.6279625343220445  0.6335828153054877  0.753541279545928  1.0000
  C   C34       1.0  0.1250617584572424  0.1333797207798568  0.7535977543140647  1.0000
  C   C35       1.0  0.37203659532244165  0.3664172415900211  0.24645964485742416  1.0000
  C   C36       1.0  0.8749389549655505  0.8666231115062359  0.2464046225071428  1.0000
  C   C37       1.0  0.8374374608433685  0.6279783765822486  0.7022460495850781  1.0000
  C   C38       1.0  0.863577902142346  0.1280204415583768  0.7015456077471782  1.0000
  C   C39       1.0  0.1625627299470622  0.37202168031326005  0.29775362725707316  1.0000
  C   C40       1.0  0.1364214017129228  0.8719805404673268  0.2984556650741795  1.0000
  C   C41       1.0  0.62190201937225  0.693775486333692  0.2854272632059249  1.0000
  C   C42       1.0  0.6633495550172839  0.19373336446205514  0.28635335781118  1.0000
  C   C43       1.0  0.37809693606144634  0.3062236454316221  0.7145716580543607  1.0000
  C   C44       1.0  0.3366501131407844  0.8062639170428696  0.71364610113951  1.0000
  C   C45       1.0  0.868590960085264  0.7626653063280883  0.7153522583874692  1.0000
  C   C46       1.0  0.8463164566416809  0.2630108140082896  0.7154927937874405  1.0000
  C   C47       1.0  0.13140940491594932  0.237335675697615  0.2846485942352147  1.0000
  C   C48       1.0  0.153682847213588  0.7369901680174138  0.28450847903391013  1.0000
  C   C49       1.0  0.710544921430106  0.7532770851059993  0.41969351517357717  1.0000
  C   C50       1.0  0.7089100556313426  0.2535624593234971  0.4202806828403283  1.0000
  C   C51       1.0  0.2894540340035903  0.2467220466593147  0.5803054060867084  1.0000
  C   C52       1.0  0.2910908478834672  0.7464357473116152  0.5797170496046109  1.0000
  S   S1        1.0  0.31263217748686856  0.7500594822866801  0.9995639693740018  1.0000
  S   S2        1.0  0.6873667779468278  0.24993964947863392  0.0004349518862838205  1.0000
  N   N1        1.0  0.6548548240210225  0.5969189805348165  0.21024146975471336  1.0000
  N   N2        1.0  0.5551961159524695  0.096446673122351  0.21042754563817578  1.0000
  N   N3        1.0  0.34514536676940827  0.4030810763606921  0.7897582070874307  1.0000
  N   N4        1.0  0.444805674497502  0.9035506083825666  0.7895735550027609  1.0000
  N   N5        1.0  0.6327361122412042  0.5699088793522975  0.9262963997532125  1.0000
  N   N6        1.0  0.2950583894556758  0.0697760947215116  0.9267893773862427  1.0000
  N   N7        1.0  0.3672639043384435  0.4300902524130167  0.07370210130839891  1.0000
  N   N8        1.0  0.7049407401888103  0.9302239621739973  0.07320989229204146  1.0000
  O   O1        1.0  0.3972861541205789  0.6446658750454048  0.9953151485992394  1.0000
  O   O2        1.0  0.5988318679761022  0.1445950741377047  0.9960297937827036  1.0000
  O   O3        1.0  0.6027128013131176  0.3553332567199092  0.004687909473723585  1.0000
  O   O4        1.0  0.4011738186360958  0.8554003571068236  0.0039697565900737525  1.0000
  O   O5        1.0  0.2966386632647513  0.7868741132791897  0.1203826405599457  1.0000
  O   O6        1.0  0.8253539658437958  0.2869004510420012  0.12159257531460102  1.0000
  O   O7        1.0  0.7033574571526702  0.21312686874651376  0.8796149286822301  1.0000
  O   O8        1.0  0.17464711188180357  0.7130986807233128  0.8784063329108777  1.0000
