data_image0
_chemical_formula_structural       Zn8C80Cl8O26F32
_chemical_formula_sum              "Zn8 C80 Cl8 O26 F32"
_cell_length_a       23.954963911384784
_cell_length_b       23.95636969842729
_cell_length_c       23.954604458799867
_cell_angle_alpha    66.58719381000583
_cell_angle_beta     72.46791639461351
_cell_angle_gamma    107.54048920564284

_space_group_name_H-M_alt    "P 1"
_space_group_IT_number       1

loop_
  _space_group_symop_operation_xyz
  'x, y, z'

loop_
  _atom_site_type_symbol
  _atom_site_label
  _atom_site_symmetry_multiplicity
  _atom_site_fract_x
  _atom_site_fract_y
  _atom_site_fract_z
  _atom_site_occupancy
  Zn  Zn1       1.0  0.05705449752411322  0.9574619483962364  0.48549263574105334  1.0000
  Zn  Zn2       1.0  0.057052601898988066  0.09959482067838367  0.4574637110004431  1.0000
  Zn  Zn3       1.0  0.9429412721912338  0.985491608269832  0.4574540782608026  1.0000
  Zn  Zn4       1.0  0.9429560011350158  0.9574576850408147  0.599597872828497  1.0000
  Zn  Zn5       1.0  0.9429458854520048  0.542537699567596  0.014506946589023111  1.0000
  Zn  Zn6       1.0  0.057061495866832804  0.5145109453489524  0.04254405008865805  1.0000
  Zn  Zn7       1.0  0.9429452325805696  0.4004052776914975  0.042541135218286286  1.0000
  Zn  Zn8       1.0  0.05704280231064715  0.5425368062612889  0.9004033578024462  1.0000
  C   C1        1.0  0.18099730403037023  0.09050955994840133  0.4094955331387595  1.0000
  C   C2        1.0  0.9999949882674884  0.13695159650152508  0.36304594121416767  1.0000
  C   C3        1.0  0.9999836208680006  0.9094967366754358  0.40950938804017784  1.0000
  C   C4        1.0  0.8190030930930375  0.9094872091568219  0.5905158532605269  1.0000
  C   C5        1.0  6.5686197030589e-06  0.863044789413223  0.6369535583819969  1.0000
  C   C6        1.0  0.9999884841881366  0.09049389899942616  0.59050577714072  1.0000
  C   C7        1.0  3.326633617309745e-06  0.5904863420706192  0.0905079128894428  1.0000
  C   C8        1.0  8.666203505810907e-06  0.36305121437396787  0.13695398648199128  1.0000
  C   C9        1.0  0.8190011218278598  0.40949270724225045  0.09049115920086599  1.0000
  C   C10       1.0  0.9999938511572638  0.4094848835458931  0.9095145704256353  1.0000
  C   C11       1.0  0.9999944229230022  0.6369518917719288  0.8630461439816128  1.0000
  C   C12       1.0  0.1809969996140664  0.5904935279871636  0.9094820914787433  1.0000
  C   C13       1.0  2.211845312939886e-06  0.8051392812297209  0.6948596715679543  1.0000
  C   C14       1.0  5.187222726984729e-08  0.6948598583643603  0.8051395993105003  1.0000
  C   C15       1.0  0.9571900965576243  0.7769689043631443  0.7658381601211985  1.0000
  C   C16       1.0  0.04281187992889796  0.723031356659014  0.7341610783696594  1.0000
  C   C17       1.0  0.9571892289082197  0.723028330078641  0.8197798888937627  1.0000
  C   C18       1.0  0.04281259422371138  0.7769702206269214  0.6802196563898164  1.0000
  C   C19       1.0  0.9999992577812407  0.1948590937744115  0.30513906586934064  1.0000
  C   C20       1.0  4.1996952119122345e-06  0.30514300084042384  0.1948612051932699  1.0000
  C   C21       1.0  0.9571906180775754  0.18022301072076624  0.27696073356846546  1.0000
  C   C22       1.0  0.042812161173870204  0.31977892517900836  0.22303897012829316  1.0000
  C   C23       1.0  0.9571930391040835  0.23416461527479954  0.2230227197333009  1.0000
  C   C24       1.0  0.042810615357275504  0.26583819511194656  0.2769776256160199  1.0000
  C   C25       1.0  0.9999987797715377  0.6279684596967813  0.12799217410856292  1.0000
  C   C26       1.0  0.9574769252848581  0.657563665600975  0.1356282023862291  1.0000
  C   C27       1.0  0.9575893849188543  0.6922811555444213  0.17038474975091591  1.0000
  C   C28       1.0  0.999999605916883  0.6997311625781246  0.19974893789638096  1.0000
  C   C29       1.0  0.042402250345240367  0.6703643079537257  0.19231101059902034  1.0000
  C   C30       1.0  0.04251897965976764  0.635608229328362  0.1575932853052819  1.0000
  C   C31       1.0  0.9999963855714142  0.734788705516678  0.23481177396745073  1.0000
  C   C32       1.0  0.9999925485768478  0.7651853037188016  0.26521594501773676  1.0000
  C   C33       1.0  0.9999858497975606  0.8002440397276513  0.30027727036651436  1.0000
  C   C34       1.0  0.9575859003192301  0.8296173813271323  0.30770480828286395  1.0000
  C   C35       1.0  0.9574653857749876  0.864371227990844  0.34242539531824423  1.0000
  C   C36       1.0  0.9999748390136599  0.8720006037808828  0.37204212630010847  1.0000
  C   C37       1.0  0.04247785606002433  0.8423820062036355  0.3644340873021151  1.0000
  C   C38       1.0  0.0423680657920611  0.807666150552663  0.32967525178973733  1.0000
  C   C39       1.0  6.3834803894834795e-06  0.3720029660489387  0.872032412551448  1.0000
  C   C40       1.0  0.04253028040498906  0.40688115433403726  0.7999157391117606  1.0000
  C   C41       1.0  0.04241475798753659  0.372009431182711  0.7653155999697033  1.0000
  C   C42       1.0  1.1600224567558016e-06  0.30024157434062454  0.8002747859219994  1.0000
  C   C43       1.0  0.9575984410499315  0.26528297204403367  0.8720477079264555  1.0000
  C   C44       1.0  0.9574864375629843  0.2998843086613475  0.906918023356731  1.0000
  C   C45       1.0  0.9999981859811767  0.2651844343014387  0.7652118972953873  1.0000
  C   C46       1.0  0.9999922882665755  0.2347962630884479  0.7348064879446952  1.0000
  C   C47       1.0  0.9999876764766781  0.19974022887102877  0.699742494695471  1.0000
  C   C48       1.0  0.04237274011452282  0.23470037694248444  0.6279667726229263  1.0000
  C   C49       1.0  0.04248082750006426  0.20009979297510233  0.5930973403896544  1.0000
  C   C50       1.0  0.9999760646711021  0.12797867813459607  0.6279822665531186  1.0000
  C   C51       1.0  0.9574655129906942  0.09309826420325618  0.7001033099907944  1.0000
  C   C52       1.0  0.957584995110956  0.12796823869370386  0.7347041999747861  1.0000
  C   C53       1.0  0.7440379348015324  0.3720105342479129  0.1279786243854346  1.0000
  C   C54       1.0  0.7068020001948978  0.40689175030463764  0.13560511240069673  1.0000
  C   C55       1.0  0.6373299159864984  0.3720241736891906  0.1703593046354684  1.0000
  C   C56       1.0  0.6005191280406023  0.3002530046607319  0.1997373969831742  1.0000
  C   C57       1.0  0.6373269826009819  0.26528904303523854  0.19230793490691409  1.0000
  C   C58       1.0  0.7067997785156093  0.2998905903810182  0.15759052065131843  1.0000
  C   C59       1.0  0.5304001250166549  0.2651989107738827  0.23479202100593  1.0000
  C   C60       1.0  0.4695986303516192  0.23481148810692784  0.26517798985646834  1.0000
  C   C61       1.0  0.3994786859660023  0.19975281739463205  0.30023554709724465  1.0000
  C   C62       1.0  0.3626700868746935  0.23471291014654827  0.30767469912886725  1.0000
  C   C63       1.0  0.2931978158593793  0.2001098126654881  0.3423917345835363  1.0000
  C   C64       1.0  0.2559634013077455  0.12799310214745666  0.3719945408840459  1.0000
  C   C65       1.0  0.2932023560631335  0.09311596895426524  0.36434632016950996  1.0000
  C   C66       1.0  0.36267406881352565  0.1279868104203459  0.3295884410644661  1.0000
  C   C67       1.0  0.25595826018073337  0.627967536499021  0.8720047058355932  1.0000
  C   C68       1.0  0.29320010256035517  0.6355876247934373  0.9068909823760266  1.0000
  C   C69       1.0  0.36267204508958845  0.6703441545757796  0.8720209666669659  1.0000
  C   C70       1.0  0.39948183701885365  0.6997308729973424  0.8002467841551069  1.0000
  C   C71       1.0  0.36266882850532745  0.6923010369026342  0.7652805238142335  1.0000
  C   C72       1.0  0.2931938113092513  0.6575785786771959  0.7998833125600413  1.0000
  C   C73       1.0  0.4696005120609426  0.7347872293700987  0.7651955367921417  1.0000
  C   C74       1.0  0.5304006725276407  0.7651790178050674  0.7348161715484949  1.0000
  C   C75       1.0  0.6005200483547167  0.800240231731081  0.6997598649886996  1.0000
  C   C76       1.0  0.6373379592393247  0.8076832789251539  0.7347202441588294  1.0000
  C   C77       1.0  0.7068111162913051  0.8424012833153752  0.7001168599800495  1.0000
  C   C78       1.0  0.7440378490533276  0.8719998724203818  0.6279976368874358  1.0000
  C   C79       1.0  0.7067938596612461  0.8643558372498886  0.5931177437109342  1.0000
  C   C80       1.0  0.6373252210349276  0.8296020920872705  0.6279881634777027  1.0000
  Cl  Cl1       1.0  0.9026247270340375  0.8054832411205266  0.7918818526084337  1.0000
  Cl  Cl2       1.0  0.0973792404971759  0.6945184905915197  0.7081187069005282  1.0000
  Cl  Cl3       1.0  0.9026256633116246  0.6945077145082053  0.9028609216344418  1.0000
  Cl  Cl4       1.0  0.09737747264962553  0.8054921486609385  0.5971389596482269  1.0000
  Cl  Cl5       1.0  0.902628666344789  0.09714524624899216  0.30546930200990363  1.0000
  Cl  Cl6       1.0  0.09737236242903424  0.40285493774434383  0.1945316243007228  1.0000
  Cl  Cl7       1.0  0.9026304654115691  0.20812610069474863  0.1944918877225844  1.0000
  Cl  Cl8       1.0  0.09737076036643084  0.2918748000479852  0.3055082775684212  1.0000
  O   O1        1.0  0.9999999297675545  1.6259062434490808e-06  0.5000003096032157  1.0000
  O   O2        1.0  0.15238031833585103  0.02579812974318681  0.43339208332371026  1.0000
  O   O3        1.0  0.03970143674963104  0.15421270770498546  0.385484525145003  1.0000
  O   O4        1.0  0.9591598163569722  0.93338286622253  0.4142348791525449  1.0000
  O   O5        1.0  0.1523817456358713  0.12659994984306164  0.41423674104657243  1.0000
  O   O6        1.0  0.04082040252261248  0.9142434027472317  0.4333837914178319  1.0000
  O   O7        1.0  0.960286542934547  0.07481359860828707  0.3854829293778862  1.0000
  O   O8        1.0  0.8476163432645757  0.9333828503763112  0.5258013736054182  1.0000
  O   O9        1.0  0.9603107076697551  0.8854878797334675  0.6542168683663616  1.0000
  O   O10       1.0  0.8476253189929389  0.9142186342581621  0.6266093393622115  1.0000
  O   O11       1.0  0.03970477675995441  0.8854810118712562  0.5748144437970738  1.0000
  O   O12       1.0  0.04082035300640287  0.1265866909453095  0.5257971934807628  1.0000
  O   O13       1.0  0.959173903359371  0.025781766203465256  0.6266006026622364  1.0000
  O   O14       1.0  6.578127623302793e-07  0.49999869353396775  0.9999998237301426  1.0000
  O   O15       1.0  0.9591796961983187  0.5857575180453334  0.06661537211982005  1.0000
  O   O16       1.0  0.03971807410334792  0.4251881025522978  0.11451422559805739  1.0000
  O   O17       1.0  0.8476173583510086  0.3734024711751329  0.08575469519055194  1.0000
  O   O18       1.0  0.04083015088872335  0.5666042748595003  0.0857782305107193  1.0000
  O   O19       1.0  0.8476188727286026  0.4742022928993421  0.06660805048240799  1.0000
  O   O20       1.0  0.9602997453113317  0.345789183183676  0.1145190179450495  1.0000
  O   O21       1.0  0.9591674111919273  0.3733935166312037  0.9742239653822437  1.0000
  O   O22       1.0  0.03969004326736308  0.6145090807132333  0.8457819609779449  1.0000
  O   O23       1.0  0.04080766951476983  0.4741990000718417  0.873416358361922  1.0000
  O   O24       1.0  0.9602972433568907  0.61451825460621  0.9251851757732157  1.0000
  O   O25       1.0  0.15238303012329607  0.5666194845568883  0.9741915663245707  1.0000
  O   O26       1.0  0.15237534222452342  0.5857595572283573  0.8733894429619085  1.0000
  F   F1        1.0  0.9148242485329304  0.6539294067995908  0.1097681019064753  1.0000
  F   F2        1.0  0.08517763686987924  0.6097633047385215  0.15396607338283264  1.0000
  F   F3        1.0  0.08395578210493657  0.6760001869499276  0.21951144676399548  1.0000
  F   F4        1.0  0.916030036766102  0.719471131186708  0.176011682514215  1.0000
  F   F5        1.0  0.9160425436458225  0.823994286519273  0.2804916423780456  1.0000
  F   F6        1.0  0.08390877059066049  0.7804533515185738  0.32407342777233344  1.0000
  F   F7        1.0  0.08511630941708821  0.8459968336771481  0.39031077392823504  1.0000
  F   F8        1.0  0.9148157441475319  0.890229333155787  0.3460404876685176  1.0000
  F   F9        1.0  0.08519614756904285  0.47538592938364116  0.7608993813458157  1.0000
  F   F10       1.0  0.9148297081454758  0.2608629381913514  0.9754225555716333  1.0000
  F   F11       1.0  0.9160387481680559  0.19653421031224375  0.9079674554542337  1.0000
  F   F12       1.0  0.08397569411238226  0.40792724420426646  0.6965702128020937  1.0000
  F   F13       1.0  0.0839167688027515  0.30345216002654496  0.5920413695135237  1.0000
  F   F14       1.0  0.9160402044294856  0.09204684775179561  0.803455318149986  1.0000
  F   F15       1.0  0.9148139535124711  0.024590147438743774  0.7391266945256519  1.0000
  F   F16       1.0  0.08512077688915541  0.23912358859445246  0.5245864732275791  1.0000
  F   F17       1.0  0.736289436419973  0.4754002533611865  0.10973661460065656  1.0000
  F   F18       1.0  0.7362825395899076  0.2608654092316625  0.15397353648607753  1.0000
  F   F19       1.0  0.6044968500889141  0.19653649879929694  0.2195175811971666  1.0000
  F   F20       1.0  0.6045021601565778  0.4079479602159066  0.17597573712138379  1.0000
  F   F21       1.0  0.39550271257807873  0.303460666323879  0.2804799746817607  1.0000
  F   F22       1.0  0.3954997257591799  0.09206926060233654  0.3239426174480613  1.0000
  F   F23       1.0  0.2637103922607906  0.02461179247367077  0.3901856644339219  1.0000
  F   F24       1.0  0.26371649816812937  0.23913330553803994  0.3460248158469454  1.0000
  F   F25       1.0  0.2637177117216535  0.6097143186127594  0.9754039449157618  1.0000
  F   F26       1.0  0.26370683519867527  0.6539600529575649  0.760856450128074  1.0000
  F   F27       1.0  0.39549132798911985  0.719510906663778  0.6965253416483465  1.0000
  F   F28       1.0  0.3955040639701933  0.6759565594756651  0.9079498996442439  1.0000
  F   F29       1.0  0.6045130547845828  0.7804865734729702  0.8034726033597008  1.0000
  F   F30       1.0  0.604492739477372  0.8239637903680119  0.5920675484679164  1.0000
  F   F31       1.0  0.7362776255805484  0.890203010405749  0.5246118033773612  1.0000
  F   F32       1.0  0.7362967160243341  0.8460355596137817  0.7391399813473567  1.0000
