data_image0
_chemical_formula_structural       Cu2H24C22N8O8
_chemical_formula_sum              "Cu2 H24 C22 N8 O8"
_cell_length_a       8.334069544995268
_cell_length_b       8.33411037471639
_cell_length_c       10.163252149434351
_cell_angle_alpha    69.58064167786519
_cell_angle_beta     69.58018895561707
_cell_angle_gamma    86.61741574233838

_space_group_name_H-M_alt    "P 1"
_space_group_IT_number       1

loop_
  _space_group_symop_operation_xyz
  'x, y, z'

loop_
  _atom_site_type_symbol
  _atom_site_label
  _atom_site_symmetry_multiplicity
  _atom_site_fract_x
  _atom_site_fract_y
  _atom_site_fract_z
  _atom_site_occupancy
  Cu  Cu1       1.0  0.4999992287271765  0.9999990776339657  0.5000002530794988  1.0000
  Cu  Cu2       1.0  9.440066363908937e-07  0.500001533497226  0.9999999513737026  1.0000
  H   H1        1.0  0.3151683016426006  0.1244958665322997  0.2538705552681009  1.0000
  H   H2        1.0  0.8754988372591582  0.6848251092004743  0.2461308472391793  1.0000
  H   H3        1.0  0.6848307438173645  0.8755027570740096  0.7461329017195626  1.0000
  H   H4        1.0  0.12450421793892022  0.31517610820385034  0.7538677696200154  1.0000
  H   H5        1.0  0.21113745859695854  0.6857429432027685  0.6497694470029601  1.0000
  H   H6        1.0  0.3142473477473899  0.788853816553349  0.850238161386983  1.0000
  H   H7        1.0  0.7888602238949429  0.3142543892261855  0.35023083320333376  1.0000
  H   H8        1.0  0.6857557905250999  0.2111486844389105  0.1497600646693797  1.0000
  H   H9        1.0  0.9635880089707741  0.68942134542619  0.519135344412895  1.0000
  H   H10       1.0  0.3105637632933878  0.036389322264014416  0.9808681114811507  1.0000
  H   H11       1.0  0.036412318988396905  0.3105772883387844  0.4808618393086945  1.0000
  H   H12       1.0  0.689437927633854  0.9636106026783295  0.019132249021815387  1.0000
  H   H13       1.0  0.8885278556785751  0.9425720968388376  0.31157094781197964  1.0000
  H   H14       1.0  0.0574267714991024  0.11146347651659029  0.1884245266028515  1.0000
  H   H15       1.0  0.11147247149893501  0.0574265361553685  0.6884291881646976  1.0000
  H   H16       1.0  0.9425737218272233  0.8885377236534923  0.8115748277681546  1.0000
  H   H17       1.0  0.7036004782387266  0.43393829648572774  0.6207090026898855  1.0000
  H   H18       1.0  0.5660451410595613  0.2964147714726053  0.8792900022962655  1.0000
  H   H19       1.0  0.2963984851890444  0.5660590445603472  0.3792909087604956  1.0000
  H   H20       1.0  0.4339541544052992  0.7035877036682833  0.12070933002781464  1.0000
  H   H21       1.0  0.4901562246393851  0.4193691053346739  0.6323443537026563  1.0000
  H   H22       1.0  0.5806180906829469  0.5098384260748928  0.8676510763162568  1.0000
  H   H23       1.0  0.5098403430654558  0.5806307856530282  0.36765551365386545  1.0000
  H   H24       1.0  0.4193812053030257  0.490164049579846  0.13234628783775557  1.0000
  C   C1        1.0  0.25788214540332177  0.004910494362086098  0.3447203636612813  1.0000
  C   C2        1.0  0.9950992336657053  0.7421254836847239  0.15527843480634823  1.0000
  C   C3        1.0  0.7421157029768395  0.995089404985812  0.6552801190243613  1.0000
  C   C4        1.0  0.004902623410359297  0.25787700843348915  0.8447211440909471  1.0000
  C   C5        1.0  0.1949106163084622  0.7768096296833918  0.549394004260641  1.0000
  C   C6        1.0  0.22319453522741384  0.8051016168286723  0.9506078303007114  1.0000
  C   C7        1.0  0.8050897106084847  0.22318900305389627  0.45060711580106266  1.0000
  C   C8        1.0  0.7768072392953443  0.1948995922154566  0.04939017122935493  1.0000
  C   C9        1.0  0.07433657403344539  0.7756685914083333  0.48591963830192964  1.0000
  C   C10       1.0  0.2243280129850476  0.9256540117456069  0.014086081436367687  1.0000
  C   C11       1.0  0.9256624722081811  0.22433003296875847  0.5140808664306462  1.0000
  C   C12       1.0  0.7756762403350592  0.07434593094482977  0.9859115733847262  1.0000
  C   C13       1.0  0.02669075712375961  0.9733092126417519  0.24999542004876218  1.0000
  C   C14       1.0  0.9733097359420099  0.026691987271405496  0.7500049184072708  1.0000
  C   C15       1.0  0.5900936588372617  0.6709057012067347  0.5762270480865296  1.0000
  C   C16       1.0  0.3291133648272719  0.40990107915214946  0.9237635336430685  1.0000
  C   C17       1.0  0.4099066683402483  0.3290929317874785  0.4237730878901402  1.0000
  C   C18       1.0  0.6708858473026212  0.5901001121438796  0.0762371735688703  1.0000
  C   C19       1.0  0.5769971241345074  0.4801605895616703  0.6648590750443193  1.0000
  C   C20       1.0  0.5198241353850009  0.42299576490668045  0.8351483277693249  1.0000
  C   C21       1.0  0.4230019221071188  0.5198380348154146  0.3351414296882568  1.0000
  C   C22       1.0  0.48017507700544826  0.5770054266462805  0.16485139535758017  1.0000
  N   N1        1.0  0.3076276535733697  0.9207951775020576  0.46047190816157263  1.0000
  N   N2        1.0  0.0792022402627808  0.6923695609587383  0.03953442920100513  1.0000
  N   N3        1.0  0.6923714754821121  0.07920473020603679  0.539529189853198  1.0000
  N   N4        1.0  0.9207981697285774  0.30763035536647715  0.9604663000578668  1.0000
  N   N5        1.0  0.11629923222739787  0.9201047674484499  0.35672795656833506  1.0000
  N   N6        1.0  0.07988699049592192  0.8837032261028455  0.14327402569055878  1.0000
  N   N7        1.0  0.8836997312003733  0.0798925735976255  0.6432719548820458  1.0000
  N   N8        1.0  0.9201147840268361  0.11629798294128339  0.8567239758395148  1.0000
  O   O1        1.0  0.5004129644387375  0.7681302176075917  0.6455845841743156  1.0000
  O   O2        1.0  0.23189726201591299  0.49958831521724517  0.8543952703399995  1.0000
  O   O3        1.0  0.4995861653984122  0.23186969087127807  0.3544135615853676  1.0000
  O   O4        1.0  0.76810195011398  0.5004128760787907  0.1456054368719394  1.0000
  O   O5        1.0  0.6827530938547285  0.7263683746357756  0.4394649053435912  1.0000
  O   O6        1.0  0.27362062577319085  0.31723184447377395  0.06054896996239735  1.0000
  O   O7        1.0  0.3172509930559997  0.2736290006218667  0.5605345151682073  1.0000
  O   O8        1.0  0.7263773056813818  0.6827693384620589  0.9394511219204134  1.0000
