data_image0
_chemical_formula_structural       Cu2H32C20Br4N32O12
_chemical_formula_sum              "Cu2 H32 C20 Br4 N32 O12"
_cell_length_a       6.568306291
_cell_length_b       9.960526687980865
_cell_length_c       16.5302
_cell_angle_alpha    95.0096424931301
_cell_angle_beta     90.0
_cell_angle_gamma    90.0

_space_group_name_H-M_alt    "P 1"
_space_group_IT_number       1

loop_
  _space_group_symop_operation_xyz
  'x, y, z'

loop_
  _atom_site_type_symbol
  _atom_site_label
  _atom_site_symmetry_multiplicity
  _atom_site_fract_x
  _atom_site_fract_y
  _atom_site_fract_z
  _atom_site_occupancy
  Cu  Cu1       1.0  0.0  0.9999962067941722  0.9999996189228713  1.0000
  Cu  Cu2       1.0  0.5000010435719205  0.5000001190226939  0.9999996130430588  1.0000
  H   H1        1.0  0.7267855347338283  0.048473780193568  0.2388205746968097  1.0000
  H   H2        1.0  0.22678296869941056  0.45152936226753576  0.761179802387062  1.0000
  H   H3        1.0  0.2732135074850177  0.9515294812902224  0.7611788104767643  1.0000
  H   H4        1.0  0.7732130285944336  0.5484688601522478  0.2388199225941179  1.0000
  H   H5        1.0  0.5703190189429606  0.12019276268587477  0.3185625160299494  1.0000
  H   H6        1.0  0.0703225427585323  0.37981037977522897  0.681436046193852  1.0000
  H   H7        1.0  0.4296754558883862  0.8798074753595131  0.6814361051028117  1.0000
  H   H8        1.0  0.9296749769978094  0.6201928817085616  0.3185615241196516  1.0000
  H   H9        1.0  0.3604095021031029  0.8561329448067454  0.09485083699317441  1.0000
  H   H10       1.0  0.8604105456750235  0.6438613653845167  0.9051501037745311  1.0000
  H   H11       1.0  0.6395880176532389  0.1438632619874269  0.9051493868830536  1.0000
  H   H12       1.0  0.1395900190063202  0.35614189609927377  0.0948529111191974  1.0000
  H   H13       1.0  0.5234637131205631  0.8328333206166505  0.2352892037264667  1.0000
  H   H14       1.0  0.0234550572361556  0.6671690520770284  0.7647097414610188  1.0000
  H   H15       1.0  0.47654141894827273  0.16716691742873016  0.7647088124529375  1.0000
  H   H16       1.0  0.9765424625201933  0.3328342094067622  0.2352890387591984  1.0000
  H   H17       1.0  0.37222533354603377  0.9030012792052986  0.3173094562459085  1.0000
  H   H18       1.0  0.8722202872679646  0.5969970622371719  0.6826892768249664  1.0000
  H   H19       1.0  0.6277767535978  0.0969949275888737  0.6826895577236058  1.0000
  H   H20       1.0  0.1277741875633822  0.4030021679954103  0.3173105011853607  1.0000
  H   H21       1.0  0.34710774726263344  0.1381136899469197  0.4634825647625505  1.0000
  H   H22       1.0  0.847105745909559  0.3618783665733503  0.5365190438607357  1.0000
  H   H23       1.0  0.652888250031211  0.8618875559112666  0.5365179242594422  1.0000
  H   H24       1.0  0.15289786369677932  0.6381168324080235  0.4634829418464221  1.0000
  H   H25       1.0  0.6773892390031335  0.9321230379577088  0.40424486702012535  1.0000
  H   H26       1.0  0.17739124035621504  0.5678843737999841  0.5957561581731812  1.0000
  H   H27       1.0  0.322608280753208  0.0678782079004776  0.595753807141783  1.0000
  H   H28       1.0  0.8226123692501233  0.43212291893501487  0.4042452539770665  1.0000
  H   H29       1.0  0.8475487824963253  0.8715474416270012  0.3262773974065922  1.0000
  H   H30       1.0  0.3475492613869022  0.6284549310666847  0.6737251775010409  1.0000
  H   H31       1.0  0.1524502597225208  0.1284538042311922  0.6737224866620366  1.0000
  H   H32       1.0  0.6524513032944341  0.3715463147915017  0.3262771263810222  1.0000
  C   C1        1.0  0.6360589495840829  0.025339437303152596  0.29159235297537833  1.0000
  C   C2        1.0  0.1360624733996616  0.4746626973451455  0.7084073661259822  1.0000
  C   C3        1.0  0.3639400926347562  0.9746618085550409  0.708406321186537  1.0000
  C   C4        1.0  0.8639411362066769  0.5253375407002351  0.2915912550067787  1.0000
  C   C5        1.0  0.2913612604549627  0.9417345486589069  0.12956397792370214  1.0000
  C   C6        1.0  0.7913516467893944  0.5582557302811394  0.8704349358673227  1.0000
  C   C7        1.0  0.7086377817638835  0.0582616581352653  0.8704374558592463  1.0000
  C   C8        1.0  0.20865805266692666  0.4417485390154495  0.1295699469156233  1.0000
  C   C9        1.0  0.46492655255500653  0.9275112865716721  0.2652712767790675  1.0000
  C   C10       1.0  0.9649230287394346  0.5724900783092082  0.7347270104259067  1.0000
  C   C11       1.0  0.5350755345888274  0.0724869358481115  0.7347278432487485  1.0000
  C   C12       1.0  0.0350775359419089  0.4275131831745824  0.2652729797010238  1.0000
  C   C13       1.0  0.1939236606163348  0.1294545623444634  0.4388814349141512  1.0000
  C   C14       1.0  0.6939170918757611  0.3705435410526263  0.56112049188404  1.0000
  C   C15       1.0  0.8060769040650089  0.8705466835137229  0.5611190541078344  1.0000
  C   C16       1.0  0.3060849952680726  0.6294556891799559  0.4388811009863645  1.0000
  C   C17       1.0  0.7692911652009329  0.9616559843336957  0.35323685579398056  1.0000
  C   C18       1.0  0.2692931665540073  0.5383494117983929  0.6467640633410312  1.0000
  C   C19       1.0  0.2307063545554158  0.038346269337289095  0.6467618713970821  1.0000
  C   C20       1.0  0.730710443052331  0.4616548574982033  0.3532359798150538  1.0000
  Br  Br1       1.0  0.6921236310537326  0.2466329569368781  0.09127585508434781  1.0000
  Br  Br2       1.0  0.19211954255681726  0.2533621230218017  0.9087228878595965  1.0000
  Br  Br3       1.0  0.3078799785525987  0.7533672811085026  0.9087245809084905  1.0000
  Br  Br4       1.0  0.8078779771995246  0.7466320681467664  0.09127481014489551  1.0000
  N   N1        1.0  0.15023050940119734  0.0226022177304941  0.10306222036957283  1.0000
  N   N2        1.0  0.6502285080481158  0.4773928622281857  0.8969365225743715  1.0000
  N   N3        1.0  0.8497700552801464  0.977391973438074  0.8969366875416398  1.0000
  N   N4        1.0  0.34977053417072324  0.5226063680043964  0.1030656752493897  1.0000
  N   N5        1.0  0.2075694919812321  0.0915073868771188  0.2290118652835247  1.0000
  N   N6        1.0  0.7075674906281577  0.4084907165199709  0.7709852218878055  1.0000
  N   N7        1.0  0.792429550237614  0.9084918433554633  0.7709873077734458  1.0000
  N   N8        1.0  0.2924361189781806  0.5915125449638196  0.2290165830992024  1.0000
  N   N9        1.0  0.9272847108767694  0.05379200835443499  0.38608290217726454  1.0000
  N   N10       1.0  0.42728518976734625  0.4462111341066617  0.6139168699532506  1.0000
  N   N11       1.0  0.0727128088795794  0.9462102453165571  0.6139158250138053  1.0000
  N   N12       1.0  0.5727153749139902  0.5537911195643233  0.38608246219116893  1.0000
  N   N13       1.0  0.327324869570397  0.9834479205706612  0.20737076481164252  1.0000
  N   N14       1.0  0.8273213457548254  0.516550420871809  0.7926303880726666  1.0000
  N   N15       1.0  0.6726726501859446  0.0165503018491151  0.7926295651228943  1.0000
  N   N16       1.0  0.1726837863140105  0.48345284061198157  0.2073702070076209  1.0000
  N   N17       1.0  0.11022780727994792  0.013204363343511697  0.40880116293689645  1.0000
  N   N18       1.0  0.6102273283893638  0.486793740053578  0.5911989490012176  1.0000
  N   N19       1.0  0.8897681900139036  0.9867948668890705  0.591198010120074  1.0000
  N   N20       1.0  0.3897762812169674  0.5132075058046084  0.4088015400207681  1.0000
  N   N21       1.0  0.1013929574070787  0.1143010890401541  0.1655519958217653  1.0000
  N   N22       1.0  0.601389433591507  0.3856949987313243  0.8344449852912561  1.0000
  N   N23       1.0  0.898607607274265  0.8856961255668168  0.8344464662235396  1.0000
  N   N24       1.0  0.39861265355233405  0.6143062471268621  0.1655555037307295  1.0000
  N   N25       1.0  0.8964183062028894  0.18518560253166777  0.4011120270576996  1.0000
  N   N26       1.0  0.3964126952434768  0.31481753992943595  0.5988895599328856  1.0000
  N   N27       1.0  0.1035792135534592  0.8148166511393242  0.5988860951800064  1.0000
  N   N28       1.0  0.6035863469753622  0.6851847137415561  0.4011097722115339  1.0000
  N   N29       1.0  0.0658936993533672  0.23535653948530208  0.4348761695810879  1.0000
  N   N30       1.0  0.5658916980002928  0.2646445873501904  0.5651247063978388  1.0000
  N   N31       1.0  0.9341038204029746  0.7646457141856828  0.5651213477032613  1.0000
  N   N32       1.0  0.4341073442185462  0.7353576663208016  0.4348752306999444  1.0000
  O   O1        1.0  0.6832248377559722  0.07901252374684017  0.06926982528899829  1.0000
  O   O2        1.0  0.18322379418405182  0.42098457183743676  0.9307290237132478  1.0000
  O   O3        1.0  0.31677420446287397  0.9209856986729363  0.930728689785461  1.0000
  O   O4        1.0  0.8167722031097926  0.5790096193311243  0.0692692792446081  1.0000
  O   O5        1.0  0.5408593696167543  0.3011445436325815  0.0130235332405277  1.0000
  O   O6        1.0  0.040855281119839  0.1988525519517026  0.9869759207150823  1.0000
  O   O7        1.0  0.4591472849145788  0.6988567022256049  0.9869763508281011  1.0000
  O   O8        1.0  0.9591437610990072  0.8011416392168654  0.013022382242773698  1.0000
  O   O9        1.0  0.5633400508545208  0.2819366394222342  0.1768142444612408  1.0000
  O   O10       1.0  0.06334205220759512  0.2180584405364456  0.8231844984827108  1.0000
  O   O11       1.0  0.43665899136432534  0.7180615829975423  0.8231866904266525  1.0000
  O   O12       1.0  0.9366554675487464  0.7819357506321225  0.1768131995217885  1.0000
