data_image0
_chemical_formula_structural       Ag4H40C52S4N8O16F12
_chemical_formula_sum              "Ag4 H40 C52 S4 N8 O16 F12"
_cell_length_a       9.137722476058686
_cell_length_b       10.235872765
_cell_length_c       16.4755
_cell_angle_alpha    90.0
_cell_angle_beta     101.20123623255333
_cell_angle_gamma    90.0

_space_group_name_H-M_alt    "P 1"
_space_group_IT_number       1

loop_
  _space_group_symop_operation_xyz
  'x, y, z'

loop_
  _atom_site_type_symbol
  _atom_site_label
  _atom_site_symmetry_multiplicity
  _atom_site_fract_x
  _atom_site_fract_y
  _atom_site_fract_z
  _atom_site_occupancy
  Ag  Ag1       1.0  0.5374636309432077  0.5907371202068674  0.11182400719229689  1.0000
  Ag  Ag2       1.0  0.4625366285490742  0.09073481288041309  0.38817863070109837  1.0000
  Ag  Ag3       1.0  0.4625366285490742  0.409266517489776  0.8881780237392434  1.0000
  Ag  Ag4       1.0  0.5374636309432077  0.9092639400349185  0.611822186306739  1.0000
  H   H1        1.0  0.8632536271933517  0.6161330982507565  0.1624218348888036  1.0000
  H   H2        1.0  0.1367477479149457  0.11613567570561399  0.3375778883906193  1.0000
  H   H3        1.0  0.1367510947629711  0.3838666316208332  0.8375782489764988  1.0000
  H   H4        1.0  0.8632502803453191  0.8838660080784989  0.6624214743029242  1.0000
  H   H5        1.0  0.0881503989484003  0.5066114164423183  0.24473440139021826  1.0000
  H   H6        1.0  0.9118487449278732  0.006617901722229599  0.2552626536512079  1.0000
  H   H7        1.0  0.9118543230079154  0.4933853825604899  0.7552644685513741  1.0000
  H   H8        1.0  0.0881459364843664  0.9933886668432022  0.7447357414946083  1.0000
  H   H9        1.0  0.0510539354182811  0.311835646386136  0.3303422318731464  1.0000
  H   H10       1.0  0.9489440928419839  0.8118399076251137  0.1696565238585421  1.0000
  H   H11       1.0  0.9489485553060177  0.6881631065291955  0.669657611601565  1.0000
  H   H12       1.0  0.0510494729542472  0.188164707027795  0.8303429650156816  1.0000
  H   H13       1.0  0.790574591057279  0.22984263814264236  0.3270372249449167  1.0000
  H   H14       1.0  0.209423437202986  0.7298478763378782  0.1729651725578876  1.0000
  H   H15       1.0  0.2094256684350029  0.7701580686852125  0.6729623781392107  1.0000
  H   H16       1.0  0.7905712442092536  0.27015673831502335  0.8270350434734866  1.0000
  H   H17       1.0  0.5301619241645312  0.2317174172103904  0.2525935791917675  1.0000
  H   H18       1.0  0.4698338728637168  0.7317187475805794  0.24740615007304004  1.0000
  H   H19       1.0  0.4698405665597676  0.7682842665737226  0.7474044433973859  1.0000
  H   H20       1.0  0.5301608085485228  0.2682829362035335  0.752595279882037  1.0000
  H   H21       1.0  0.4612146235784493  0.3603063543941971  0.18127707209048796  1.0000
  H   H22       1.0  0.5387845202978241  0.8603057308518627  0.31872362472205407  1.0000
  H   H23       1.0  0.538786751529841  0.6396972833024464  0.8187214372652322  1.0000
  H   H24       1.0  0.4612112767304239  0.13969790684478056  0.6812785323901664  1.0000
  H   H25       1.0  0.6433668274422786  0.5892931788508804  0.4182264706474399  1.0000
  H   H26       1.0  0.3566345476660189  0.08929184848069129  0.081772645670128  1.0000
  H   H27       1.0  0.3566345476660189  0.4107065510207164  0.581772645670128  1.0000
  H   H28       1.0  0.6433634805942532  0.9107069044346403  0.9182261100615607  1.0000
  H   H29       1.0  0.8220528123662446  0.5547499593211284  0.5533135450061692  1.0000
  H   H30       1.0  0.1779485627420456  0.0547456980821508  0.9466861782732535  1.0000
  H   H31       1.0  0.1779474471260372  0.44525367837551494  0.4466860580779581  1.0000
  H   H32       1.0  0.8220516967502363  0.9452501239643921  0.0533128178490259  1.0000
  H   H33       1.0  0.8377216392121696  0.3306840635586994  0.6177111656003476  1.0000
  H   H34       1.0  0.1622808515121363  0.8306795321913114  0.8822892848362187  1.0000
  H   H35       1.0  0.1622808515121363  0.6693195741379439  0.3822880709125159  1.0000
  H   H36       1.0  0.8377182923641371  0.16931628985523156  0.1177108050144682  1.0000
  H   H37       1.0  0.6781673532259447  0.1516665980167673  0.5439733540618334  1.0000
  H   H38       1.0  0.3218351374983612  0.6516630436056445  0.9560283102984357  1.0000
  H   H39       1.0  0.3218362531143697  0.8483350857673528  0.45602721657002127  1.0000
  H   H40       1.0  0.6781651219939276  0.34833375539716366  0.04397372063310459  1.0000
  C   C1        1.0  0.8522469596488946  0.5320132562237845  0.2010375116060601  1.0000
  C   C2        1.0  0.1477532998433873  0.03201387976611869  0.2989626984399223  1.0000
  C   C3        1.0  0.1477566466914126  0.4679894045165938  0.7989636659876496  1.0000
  C   C4        1.0  0.8522436128008692  0.9679897579305248  0.7010365440583328  1.0000
  C   C5        1.0  0.9768612678503318  0.4715054701053631  0.24776671567367006  1.0000
  C   C6        1.0  0.0231378760259418  0.971506800475552  0.2522333741770169  1.0000
  C   C7        1.0  0.0231423384899756  0.5284952367224918  0.7522332479963368  1.0000
  C   C8        1.0  0.9768579210023062  0.028495860264825992  0.7477675690114935  1.0000
  C   C9        1.0  0.9552674043807982  0.36214205521145  0.29431824660546374  1.0000
  C   C10       1.0  0.0447295082634582  0.862143385581639  0.2056816028546393  1.0000
  C   C11       1.0  0.0447339707274921  0.6378576746601466  0.7056820836358071  1.0000
  C   C12       1.0  0.9552640575327729  0.1378592751587391  0.7943178860195843  1.0000
  C   C13       1.0  0.8107739345156091  0.3170271919651028  0.2926537406927708  1.0000
  C   C14       1.0  0.18922409374465587  0.8170314532040803  0.2073474428863307  1.0000
  C   C15       1.0  0.1892274405926884  0.6829715609502287  0.7073447686629493  1.0000
  C   C16       1.0  0.8107705876675837  0.1829712075363048  0.7926539870687463  1.0000
  C   C17       1.0  0.6908050513755057  0.3830938592171904  0.2441173608606277  1.0000
  C   C18       1.0  0.3091940925007677  0.8830961665436446  0.2558827289900591  1.0000
  C   C19       1.0  0.3091974393488001  0.6169058706543993  0.7558812686903806  1.0000
  C   C20       1.0  0.6908005889114648  0.11690454028421018  0.7441174870413079  1.0000
  C   C21       1.0  0.5344760112712024  0.3370821501218586  0.2408001728163001  1.0000
  C   C22       1.0  0.4655242482210867  0.8370825035357896  0.25920064419153016  1.0000
  C   C23       1.0  0.46552759506911207  0.6629195336622544  0.7591973630062938  1.0000
  C   C24       1.0  0.5344715488071614  0.1629182032920653  0.7408015129206902  1.0000
  C   C25       1.0  0.5713917450078654  0.3886605560009642  0.4132129908744133  1.0000
  C   C26       1.0  0.4286107457164334  0.8886599324586298  0.0867874595621529  1.0000
  C   C27       1.0  0.4286085144844165  0.6113381969143674  0.5867878261334172  1.0000
  C   C28       1.0  0.5713906293918569  0.11133979741296678  0.913212870679125  1.0000
  C   C29       1.0  0.6556441816209428  0.4945723844194347  0.4485723147412131  1.0000
  C   C30       1.0  0.3443571934873546  0.9945698069645771  0.05142740853820978  1.0000
  C   C31       1.0  0.3443571934873546  0.5054292993646854  0.5514274085382099  1.0000
  C   C32       1.0  0.6556419503889259  0.0054279689944963  0.9485726813124772  1.0000
  C   C33       1.0  0.7543494236301669  0.4743347354415874  0.523483366663406  1.0000
  C   C34       1.0  0.2456508358621221  0.9743302040741995  0.9765168433825694  1.0000
  C   C35       1.0  0.2456508358621221  0.5256679252987979  0.47651684338256933  1.0000
  C   C36       1.0  0.7543483080141584  0.0256656179723436  0.0234832464681176  1.0000
  C   C37       1.0  0.7627879431219782  0.350596386101131  0.5591647614216555  1.0000
  C   C38       1.0  0.2372134319863122  0.850592831690008  0.9408355688196153  1.0000
  C   C39       1.0  0.2372134319863122  0.6494072515955125  0.4408349618577674  1.0000
  C   C40       1.0  0.7627857118899612  0.14940494426905807  0.05916452103107161  1.0000
  C   C41       1.0  0.6740083367445209  0.2503186644485424  0.5187569736981175  1.0000
  C   C42       1.0  0.3259941539797779  0.7503160869936849  0.9812434767384487  1.0000
  C   C43       1.0  0.3259952695957864  0.7496830193355777  0.4812423830100343  1.0000
  C   C44       1.0  0.6740049898964955  0.24968266592164667  0.0187578270359481  1.0000
  C   C45       1.0  0.2471156396818941  0.4423042474190026  0.0708466120945772  1.0000
  C   C46       1.0  0.7528835041943864  0.9423006930078799  0.4291528707942547  1.0000
  C   C47       1.0  0.7528846198103949  0.5576945054963289  0.9291511701039923  1.0000
  C   C48       1.0  0.24711787091391102  0.0576941520823979  0.5708480664088711  1.0000
  C   C49       1.0  0.1185208135604654  0.33987331416384586  0.0509120042288842  1.0000
  C   C50       1.0  0.8814816771638334  0.8398687827964579  0.4490896601313921  1.0000
  C   C51       1.0  0.881480561547825  0.6601283696202741  0.9490883260123937  1.0000
  C   C52       1.0  0.11852304479248231  0.1601280162063432  0.5509116376576131  1.0000
  S   S1        1.0  0.4427032071416903  0.4132915772913108  0.3163328369971481  1.0000
  S   S2        1.0  0.5572970523505987  0.9132929076614997  0.1836679800106893  1.0000
  S   S3        1.0  0.5572992835826156  0.5867081525802859  0.6836663995157153  1.0000
  S   S4        1.0  0.4426998602936578  0.086707799166355  0.8163330833731237  1.0000
  N   N1        1.0  0.711866766008761  0.4893749771028907  0.1986514059424067  1.0000
  N   N2        1.0  0.2881323778675124  0.9893782613856101  0.3013480769464252  1.0000
  N   N3        1.0  0.2881346090995294  0.5106267066812222  0.8013483173370163  1.0000
  N   N4        1.0  0.711864534776744  0.010623422398509798  0.6986523794755257  1.0000
  N   N5        1.0  0.5793884805601266  0.2686063087264259  0.44623442448385475  1.0000
  N   N6        1.0  0.4206151257801807  0.7686056851840917  0.053766146148007  1.0000
  N   N7        1.0  0.4206140101641722  0.7313924441889057  0.5537654189908636  1.0000
  N   N8        1.0  0.5793851337121012  0.2313940446875051  0.9462346708598233  1.0000
  O   O1        1.0  0.3068211772497023  0.3406421787424421  0.31758027684383444  1.0000
  O   O2        1.0  0.6931779666265712  0.8406405782438425  0.1824210269305553  1.0000
  O   O3        1.0  0.6931801978585881  0.6593575511291547  0.6824188394737334  1.0000
  O   O4        1.0  0.3068189460176853  0.1593581746714889  0.8175806434151056  1.0000
  O   O5        1.0  0.4349307104072224  0.5534525614045194  0.3037052024096667  1.0000
  O   O6        1.0  0.5650695490850595  0.053453184946853596  0.19629500763631574  1.0000
  O   O7        1.0  0.5650706647010679  0.44654716846707737  0.6962945208697562  1.0000
  O   O8        1.0  0.4349284791752055  0.9465465449247432  0.8037049620190828  1.0000
  O   O9        1.0  0.3586828186584796  0.41860231153430044  0.03772031278614919  1.0000
  O   O10       1.0  0.6413163252178009  0.9186007110357011  0.4622779561789798  1.0000
  O   O11       1.0  0.6413174408338094  0.5813974183372891  0.9622792902979782  1.0000
  O   O12       1.0  0.358686165506505  0.081395111010842  0.5377206733720286  1.0000
  O   O13       1.0  0.2296004683411326  0.5302645045138944  0.1205956116737141  1.0000
  O   O14       1.0  0.7703986755351409  0.030266105012493893  0.3794044781769728  1.0000
  O   O15       1.0  0.7703997911511493  0.469734248401437  0.8794027774867033  1.0000
  O   O16       1.0  0.2296026995731495  0.9697336248591027  0.620596459026153  1.0000
  F   F1        1.0  0.9832459382696398  0.3883186213090823  0.0581763013239893  1.0000
  F   F2        1.0  0.0167565524546589  0.8883170208104899  0.44182536303628694  1.0000
  F   F3        1.0  0.0167532056066335  0.6116801316062492  0.9418225746029947  1.0000
  F   F4        1.0  0.9832492851176652  0.1116788012360601  0.5581754479861587  1.0000
  F   F5        1.0  0.1479518794929859  0.23687965410148587  0.1056412507996498  1.0000
  F   F6        1.0  0.8520494956153115  0.7368751227340979  0.3943590794416211  1.0000
  F   F7        1.0  0.8520450331512706  0.7631230066388994  0.8943579916985982  1.0000
  F   F8        1.0  0.1479541107250029  0.2631216762687032  0.6056420981520887  1.0000
  F   F9        1.0  0.10243028386315699  0.2872319798711374  0.9733245839374902  1.0000
  F   F10       1.0  0.8975722068611417  0.7872264715474911  0.526675866499076  1.0000
  F   F11       1.0  0.8975722068611417  0.7127677500004594  0.026675259537221108  1.0000
  F   F12       1.0  0.1024336307111824  0.2127722813678403  0.4733255514852246  1.0000
