data_image0
_chemical_formula_structural       Ni2H20C24N8O8
_chemical_formula_sum              "Ni2 H20 C24 N8 O8"
_cell_length_a       7.350671831675317
_cell_length_b       7.847175574299597
_cell_length_c       10.972024967926423
_cell_angle_alpha    89.9991542731274
_cell_angle_beta     106.32524139702787
_cell_angle_gamma    90.0005378734653

_space_group_name_H-M_alt    "P 1"
_space_group_IT_number       1

loop_
  _space_group_symop_operation_xyz
  'x, y, z'

loop_
  _atom_site_type_symbol
  _atom_site_label
  _atom_site_symmetry_multiplicity
  _atom_site_fract_x
  _atom_site_fract_y
  _atom_site_fract_z
  _atom_site_occupancy
  Ni  Ni1       1.0  0.4999984915419589  0.5000035811700556  0.4999985257492269  1.0000
  Ni  Ni2       1.0  0.9999964094253287  0.9999953713077759  0.5000008619498999  1.0000
  H   H1        1.0  0.2884094452401769  0.27039975918682296  0.8448861148317803  1.0000
  H   H2        1.0  0.21154647558467599  0.7703783319820443  0.1550985045014528  1.0000
  H   H3        1.0  0.7115974965150473  0.7296125005102923  0.1551164172550088  1.0000
  H   H4        1.0  0.7884363588435479  0.22961226383849717  0.8448986744476696  1.0000
  H   H5        1.0  0.439860778709786  0.7986443242533455  0.6607531162514064  1.0000
  H   H6        1.0  0.060147741429752016  0.2986381737733552  0.3392326722652824  1.0000
  H   H7        1.0  0.5601475447470393  0.2013641124492835  0.3392460247309187  1.0000
  H   H8        1.0  0.9398478419705472  0.7013562451084565  0.6607659442641135  1.0000
  H   H9        1.0  0.27490570813703397  0.8357919006056063  0.9547919972374004  1.0000
  H   H10       1.0  0.22508476794313031  0.3357975877114113  0.04519824926521209  1.0000
  H   H11       1.0  0.7250941279583999  0.16421653606564496  0.04520740278206865  1.0000
  H   H12       1.0  0.7749079983056434  0.6642032028676396  0.9548016710151542  1.0000
  H   H13       1.0  0.32912967441195223  0.9503338820385351  0.8268405063084856  1.0000
  H   H14       1.0  0.17088314350361605  0.4503138173943668  0.1731671442714244  1.0000
  H   H15       1.0  0.6708702333669977  0.049680926282483995  0.17316619829869503  1.0000
  H   H16       1.0  0.8291139112013897  0.5496844244692127  0.8268372118897103  1.0000
  H   H17       1.0  0.5130173986468379  0.8664967874134104  0.9511362943369549  1.0000
  H   H18       1.0  0.9869920588002332  0.36650036542620507  0.04887275384776762  1.0000
  H   H19       1.0  0.4869824643253581  0.13351292357562985  0.04886584490837718  1.0000
  H   H20       1.0  0.013006413419510905  0.6334902303765516  0.951131863537114  1.0000
  C   C1        1.0  0.40161778849410007  0.23239370164011322  0.6211583402986705  1.0000
  C   C2        1.0  0.09838033045618742  0.7323837962291078  0.3788326610595902  1.0000
  C   C3        1.0  0.5983806031421679  0.7676045403040135  0.3788380593524109  1.0000
  C   C4        1.0  0.901627957000166  0.2675825871609518  0.6211628278194254  1.0000
  C   C5        1.0  0.3832980005262101  0.3862444534033429  0.6965320309156836  1.0000
  C   C6        1.0  0.11670990702334903  0.8862322895359185  0.3034617683011618  1.0000
  C   C7        1.0  0.6166975560649707  0.6137652576308383  0.3034638463066344  1.0000
  C   C8        1.0  0.883298470093344  0.1137557576128359  0.6965428512453258  1.0000
  C   C9        1.0  0.3275397736165999  0.38948003966302747  0.8072266598649377  1.0000
  C   C10       1.0  0.17246391670229144  0.889474193094145  0.1927672371146869  1.0000
  C   C11       1.0  0.6724586449484775  0.6105322200374628  0.1927724789495215  1.0000
  C   C12       1.0  0.8275402167493129  0.11051767707049007  0.8072375119316391  1.0000
  C   C13       1.0  0.41226128273368096  0.6808511054761437  0.7052045652315043  1.0000
  C   C14       1.0  0.08774212125585731  0.18083197420149588  0.29479163860018787  1.0000
  C   C15       1.0  0.5877442414599728  0.319157331187064  0.2947977056877562  1.0000
  C   C16       1.0  0.9122549244503305  0.8191560729198955  0.7052118045335546  1.0000
  C   C17       1.0  0.3636501690406604  0.6798099725795054  0.8206640195100047  1.0000
  C   C18       1.0  0.1363404506181212  0.17979082922946077  0.17932801769890716  1.0000
  C   C19       1.0  0.6363510846059343  0.3201997384379425  0.17933564168948377  1.0000
  C   C20       1.0  0.8636579768521034  0.8202086870237579  0.820672034255402  1.0000
  C   C21       1.0  0.36726029152311673  0.8419504425822382  0.8921899016289601  1.0000
  C   C22       1.0  0.1327302974515376  0.34193136653465217  0.1078066761523075  1.0000
  C   C23       1.0  0.6327352919344308  0.1580579940820215  0.1078087148317195  1.0000
  C   C24       1.0  0.8672624687816255  0.6580656010128294  0.892193244146803  1.0000
  N   N1        1.0  0.42542110218361984  0.5339466256475374  0.6464642594991047  1.0000
  N   N2        1.0  0.07459241562168022  0.033940300490783705  0.3535327349220054  1.0000
  N   N3        1.0  0.574571619310433  0.4660618110381236  0.3535310953569351  1.0000
  N   N4        1.0  0.9254088648236305  0.96605156968657  0.6464696655970528  1.0000
  N   N5        1.0  0.31939373795655984  0.5340422493562114  0.8704900057709108  1.0000
  N   N6        1.0  0.18059711775622844  0.03402308486760569  0.1295046349500524  1.0000
  N   N7        1.0  0.6806146302914089  0.4659674616468267  0.1295137005920068  1.0000
  N   N8        1.0  0.8194027630783083  0.965973882665473  0.8704993305124873  1.0000
  O   O1        1.0  0.45528412795247425  0.26942218657709555  0.51991143408938  1.0000
  O   O2        1.0  0.0447171911935769  0.7694125302385258  0.48008611811854257  1.0000
  O   O3        1.0  0.5447213424928492  0.7305849757943932  0.4800853583719231  1.0000
  O   O4        1.0  0.9552783742351068  0.23056787087821823  0.5199106723248406  1.0000
  O   O5        1.0  0.3690231364182921  0.08637642220038089  0.6526131717641375  1.0000
  O   O6        1.0  0.1309696538954199  0.5863775342722021  0.34739034768232097  1.0000
  O   O7        1.0  0.6309879862965034  0.9136307401978244  0.34738283928749064  1.0000
  O   O8        1.0  0.8690344347910612  0.4136194333113181  0.6526098359521767  1.0000
