data_image0
_chemical_formula_structural       Gd4H76C108N32O80
_chemical_formula_sum              "Gd4 H76 C108 N32 O80"
_cell_length_a       15.33427498682998
_cell_length_b       18.66743815463166
_cell_length_c       18.667377938828068
_cell_angle_alpha    107.49041888865953
_cell_angle_beta     95.94156904577123
_cell_angle_gamma    95.9416206268898

_space_group_name_H-M_alt    "P 1"
_space_group_IT_number       1

loop_
  _space_group_symop_operation_xyz
  'x, y, z'

loop_
  _atom_site_type_symbol
  _atom_site_label
  _atom_site_symmetry_multiplicity
  _atom_site_fract_x
  _atom_site_fract_y
  _atom_site_fract_z
  _atom_site_occupancy
  Gd  Gd1       1.0  0.6261076583920442  0.5609849688877661  0.019280533091730896  1.0000
  Gd  Gd2       1.0  0.8738877594057256  0.9807192891305264  0.4390130025254423  1.0000
  Gd  Gd3       1.0  0.3738881648197392  0.43901486385145455  0.9807148192790722  1.0000
  Gd  Gd4       1.0  0.12611546443525157  0.0192856506648695  0.5609850621028871  1.0000
  H   H1        1.0  0.4704117862943705  0.30153405042715054  0.11513131546536932  1.0000
  H   H2        1.0  0.7237099826094067  0.4410249188087221  0.17267802464762383  1.0000
  H   H3        1.0  0.7068288050188016  0.19100105340453413  0.42047846194073923  1.0000
  H   H4        1.0  0.7884362784902095  0.0571821240708204  0.21363511871079066  1.0000
  H   H5        1.0  0.481437432389349  0.7718335613671031  0.15860353328032067  1.0000
  H   H6        1.0  0.33574646405109126  0.5576798699087889  0.14852848224094128  1.0000
  H   H7        1.0  0.8253483689050115  0.5133477429211908  0.9438438251843382  1.0000
  H   H8        1.0  0.903236288945358  0.34951989276434164  0.026957363258837668  1.0000
  H   H9        1.0  0.9344345881826969  0.4344915051397464  0.10611448165980873  1.0000
  H   H10       1.0  0.8202478209350444  0.4007286270661012  0.07037171266906482  1.0000
  H   H11       1.0  0.9532194186152624  0.47367419573711805  0.9171051177180873  1.0000
  H   H12       1.0  0.002955545566500536  0.41450293412327005  0.9627937305703755  1.0000
  H   H13       1.0  0.7764327530425705  0.539159928566349  0.16674036196855732  1.0000
  H   H14       1.0  0.9321958704258009  0.7357971841800862  0.2169420246517647  1.0000
  H   H15       1.0  0.8169998259549942  0.7393429317633604  0.19526062914870593  1.0000
  H   H16       1.0  0.8664390551436301  0.759269919479188  0.29190694222692326  1.0000
  H   H17       1.0  0.9704049387495675  0.6229174222065693  0.26784168314542717  1.0000
  H   H18       1.0  0.8937004953792141  0.6442284259348697  0.3344923898261671  1.0000
  H   H19       1.0  0.8783653186559589  0.55367578506727  0.26271425414974914  1.0000
  H   H20       1.0  0.029590169765015228  0.884866749315492  0.6984641328905425  1.0000
  H   H21       1.0  0.7762950199792371  0.827317795202795  0.5589720360600341  1.0000
  H   H22       1.0  0.7931734407469339  0.5795189055626865  0.8090013083297836  1.0000
  H   H23       1.0  0.7115585317064375  0.7863638017263385  0.9428139650343327  1.0000
  H   H24       1.0  0.018571930457923727  0.841408514106071  0.22816327680396148  1.0000
  H   H25       1.0  0.16423546199558106  0.8514650538615173  0.44232109693126637  1.0000
  H   H26       1.0  0.6746497311897032  0.05615353831822031  0.48665740537020963  1.0000
  H   H27       1.0  0.5967536971743926  0.9730527659285428  0.6504904365188723  1.0000
  H   H28       1.0  0.5655575381772594  0.8938929843850829  0.5655223552313162  1.0000
  H   H29       1.0  0.6797444038871349  0.9296336504868066  0.5992882855699693  1.0000
  H   H30       1.0  0.5467810025928372  0.08289498820364828  0.5263251002167523  1.0000
  H   H31       1.0  0.4970398591184378  0.0372113661371003  0.5855001185422071  1.0000
  H   H32       1.0  0.7235650222262394  0.8332570652477854  0.4608435066454392  1.0000
  H   H33       1.0  0.5678048920963266  0.7830631271695339  0.2642072913635048  1.0000
  H   H34       1.0  0.6830003170110714  0.8047340001135127  0.2606592747037625  1.0000
  H   H35       1.0  0.6335536439974234  0.7080936384880588  0.240732267353721  1.0000
  H   H36       1.0  0.5295924790824387  0.7321616150323321  0.3770879793986524  1.0000
  H   H37       1.0  0.6062927977810801  0.6655069147630357  0.3557772874970342  1.0000
  H   H38       1.0  0.6216330681915566  0.737289350034068  0.44632902871339314  1.0000
  H   H39       1.0  0.5295835691069755  0.6984669144693499  0.8848648782886388  1.0000
  H   H40       1.0  0.2762829433359786  0.558981125359502  0.8273254054730901  1.0000
  H   H41       1.0  0.2931586803080678  0.8089959436519295  0.5795142558552869  1.0000
  H   H42       1.0  0.2115612319099399  0.9428199741176047  0.7863621367383404  1.0000
  H   H43       1.0  0.5185715184923083  0.22816621822142483  0.8414062963472306  1.0000
  H   H44       1.0  0.6642416759001224  0.4423211036322314  0.8514644305158614  1.0000
  H   H45       1.0  0.17464118101687381  0.4866498059125135  0.05615298375748527  1.0000
  H   H46       1.0  0.09674971182246142  0.6504838507440169  0.9730512135501217  1.0000
  H   H47       1.0  0.06554944167548632  0.5655162254833073  0.8938913946585815  1.0000
  H   H48       1.0  0.1797365803353728  0.5992774157674958  0.9296304664100321  1.0000
  H   H49       1.0  0.04677266480198481  0.5263227680106368  0.08289601104208803  1.0000
  H   H50       1.0  0.9970323248082239  0.5854962878148343  0.03720987562208938  1.0000
  H   H51       1.0  0.22356316002804283  0.4608404880405104  0.8332514259236847  1.0000
  H   H52       1.0  0.06780979867462382  0.2642026081078797  0.7830643194185714  1.0000
  H   H53       1.0  0.1830059253749923  0.2606574773336163  0.8047346600526668  1.0000
  H   H54       1.0  0.13355237039152  0.24072705339672495  0.7080919913437287  1.0000
  H   H55       1.0  0.029590322954469218  0.37707503230302564  0.7321519100147854  1.0000
  H   H56       1.0  0.10629457844487433  0.3557668676287591  0.6655015168114319  1.0000
  H   H57       1.0  0.12162451118449982  0.4463194991682117  0.7372808169476742  1.0000
  H   H58       1.0  0.9704159540432544  0.11512402429616492  0.30152610925016904  1.0000
  H   H59       1.0  0.22370895157882137  0.17267977634212173  0.4410222394021235  1.0000
  H   H60       1.0  0.2068352242098115  0.4204791930115946  0.19100316389684482  1.0000
  H   H61       1.0  0.2884399110448967  0.21363604626525762  0.057178397481067116  1.0000
  H   H62       1.0  0.9814361681223148  0.15859414190012444  0.7718382507768171  1.0000
  H   H63       1.0  0.8357567189097637  0.14853246081248977  0.5576839577407711  1.0000
  H   H64       1.0  0.3253524682376182  0.9438451342282335  0.513344556681723  1.0000
  H   H65       1.0  0.40325993787762127  0.026959495174537596  0.3495241242147814  1.0000
  H   H66       1.0  0.4344547903627359  0.10611528347909881  0.4344957006587862  1.0000
  H   H67       1.0  0.3202667962355861  0.07037577042759581  0.40072574137438727  1.0000
  H   H68       1.0  0.4532237303417689  0.9171070707518325  0.4736823915921137  1.0000
  H   H69       1.0  0.5029663741906277  0.9627878496257479  0.4145082400010055  1.0000
  H   H70       1.0  0.2764264970419958  0.16676033249997602  0.5391616573347167  1.0000
  H   H71       1.0  0.432204049485442  0.21692477793430245  0.7357898129742609  1.0000
  H   H72       1.0  0.3170050683203769  0.19525615875842564  0.7393414322000498  1.0000
  H   H73       1.0  0.36645868340497867  0.2918987481021135  0.7592798787263251  1.0000
  H   H74       1.0  0.4704073807596743  0.267846692148467  0.6229188644799991  1.0000
  H   H75       1.0  0.3937091331954294  0.3345019159595282  0.6442400678620503  1.0000
  H   H76       1.0  0.3783662334601985  0.26272745077928766  0.5536841058762791  1.0000
  C   C1        1.0  0.5571650218506505  0.42945770785294723  0.09937999585760343  1.0000
  C   C2        1.0  0.5931588655744874  0.37730144742351973  0.13933534265422054  1.0000
  C   C3        1.0  0.5393978877228774  0.313232685526998  0.14114874151108134  1.0000
  C   C4        1.0  0.5747425532568187  0.26372776524242886  0.17518740056375753  1.0000
  C   C5        1.0  0.6634918808958477  0.2750445639418827  0.20908490034304358  1.0000
  C   C6        1.0  0.7150580265734662  0.34141169449471676  0.20731140234216386  1.0000
  C   C7        1.0  0.6812071566993936  0.3910239517742795  0.17316608842002523  1.0000
  C   C8        1.0  0.6969242770925419  0.22215655940593138  0.24805876276181496  1.0000
  C   C9        1.0  0.6856693925310325  0.23003120000650065  0.32376500431345084  1.0000
  C   C10       1.0  0.714370091290995  0.18062433594457872  0.36103532949776723  1.0000
  C   C11       1.0  0.7533715422450556  0.118963396216806  0.32212693338360765  1.0000
  C   C12       1.0  0.7609246604159098  0.1065086530620789  0.2456041442568592  1.0000
  C   C13       1.0  0.733969260692149  0.1577284132961623  0.21032299910836372  1.0000
  C   C14       1.0  0.7873021336674029  0.06628086622110631  0.36162087915095503  1.0000
  C   C15       1.0  0.479732985388317  0.6202722544794453  0.10113603439958758  1.0000
  C   C16       1.0  0.41410945188821574  0.6604753162246129  0.14606404473633472  1.0000
  C   C17       1.0  0.4244001258342252  0.7396024226943823  0.17032807739086314  1.0000
  C   C18       1.0  0.36117452204485556  0.7767688568180732  0.20885794487168863  1.0000
  C   C19       1.0  0.28432269246847147  0.7377681817597052  0.22236157112776317  1.0000
  C   C20       1.0  0.2798435579852736  0.6585446740971933  0.20118316742698997  1.0000
  C   C21       1.0  0.34314383443832247  0.6194578545840982  0.16412194829797508  1.0000
  C   C22       1.0  0.8163063449392921  0.4814396135201592  0.9843962759442919  1.0000
  C   C23       1.0  0.8867462765491966  0.40621713386705954  0.05461522473547124  1.0000
  C   C24       1.0  0.9693791270878124  0.4651963268529756  0.9724586161737109  1.0000
  C   C25       1.0  0.7853205307225651  0.5991404923388899  0.1690212395156082  1.0000
  C   C26       1.0  0.866485560095889  0.724565649272897  0.232956875874507  1.0000
  C   C27       1.0  0.9001831588329808  0.614511656134333  0.27516521256638543  1.0000
  C   C28       1.0  0.9428284914048819  0.9006148306786345  0.5705384371362144  1.0000
  C   C29       1.0  0.9068468385999965  0.8606588240630657  0.622696042545357  1.0000
  C   C30       1.0  0.9606059753411531  0.8588487139885999  0.6867655763589726  1.0000
  C   C31       1.0  0.9252607498147328  0.8248127266162798  0.7362716799060396  1.0000
  C   C32       1.0  0.8365125620198132  0.7909122705971187  0.7249499880968174  1.0000
  C   C33       1.0  0.7849474230783429  0.792685948015972  0.6585848570337662  1.0000
  C   C34       1.0  0.8187989432631043  0.826828587810823  0.6089704383824072  1.0000
  C   C35       1.0  0.8030792868008662  0.7519379352884527  0.7778384184272583  1.0000
  C   C36       1.0  0.8143329479952045  0.6762311748695992  0.7699668069231793  1.0000
  C   C37       1.0  0.785632842521487  0.638963246024538  0.8193761122056673  1.0000
  C   C38       1.0  0.7466277058767761  0.6778738511030441  0.8810384116147675  1.0000
  C   C39       1.0  0.7390697388282276  0.7543946014580456  0.8934862334803743  1.0000
  C   C40       1.0  0.7660293684397742  0.7896738809194871  0.8422644233740899  1.0000
  C   C41       1.0  0.7126919650726721  0.6383819070168357  0.9337184383193037  1.0000
  C   C42       1.0  0.020260190271265837  0.8988672318411376  0.37972348313114423  1.0000
  C   C43       1.0  0.08588895380809454  0.8539405012269442  0.33952485854360515  1.0000
  C   C44       1.0  0.07560749469474362  0.8296837007021197  0.2603958897692353  1.0000
  C   C45       1.0  0.13883687565562042  0.7911551546519107  0.2232347063036643  1.0000
  C   C46       1.0  0.21567889802592088  0.7776416478595324  0.2622383244234215  1.0000
  C   C47       1.0  0.22014909350062342  0.7988153189355529  0.3414609435985129  1.0000
  C   C48       1.0  0.156843908539841  0.8358747247733049  0.3805434775442507  1.0000
  C   C49       1.0  0.6836906650907935  0.015603466601241697  0.5185680986824295  1.0000
  C   C50       1.0  0.6132474136469243  0.9453878878406176  0.5937968680649423  1.0000
  C   C51       1.0  0.5306177713242093  0.0275453684557192  0.5348072917654464  1.0000
  C   C52       1.0  0.7146812089428071  0.8309776973936992  0.40086337541954736  1.0000
  C   C53       1.0  0.6335114738447276  0.7670421248297359  0.27543901652081376  1.0000
  C   C54       1.0  0.599817196042018  0.7248363567489946  0.38549317659301624  1.0000
  C   C55       1.0  0.4428233087171663  0.570544386364233  0.9006164884998215  1.0000
  C   C56       1.0  0.4068361184026942  0.622697233767447  0.8606633384005067  1.0000
  C   C57       1.0  0.4605947555553486  0.6867676920142644  0.8588513314374497  1.0000
  C   C58       1.0  0.4252533674549852  0.7362765899180274  0.8248130876574679  1.0000
  C   C59       1.0  0.3365019768438558  0.7249552608874907  0.7909118918774781  1.0000
  C   C60       1.0  0.2849360179682066  0.6585892674815101  0.7926852162837721  1.0000
  C   C61       1.0  0.31878923126597414  0.6089753020868685  0.8268318134515412  1.0000
  C   C62       1.0  0.3030701432209498  0.7778426959571901  0.7519384388479297  1.0000
  C   C63       1.0  0.31432118614024773  0.7699646542625445  0.6762297675507157  1.0000
  C   C64       1.0  0.2856215172314904  0.8193737905488803  0.6389596852830908  1.0000
  C   C65       1.0  0.2466262486305268  0.8810404065154175  0.6778703291875845  1.0000
  C   C66       1.0  0.23907022608510434  0.8934934486976118  0.75439182082458  1.0000
  C   C67       1.0  0.2660249706395775  0.8422697143319341  0.7896722359844122  1.0000
  C   C68       1.0  0.21269294345022163  0.9337223562147512  0.6383786575311066  1.0000
  C   C69       1.0  0.5202598452249136  0.3797252863607383  0.8988631900436701  1.0000
  C   C70       1.0  0.5858904994237193  0.3395256247749998  0.8539384198702751  1.0000
  C   C71       1.0  0.5756102312154141  0.2603979201524993  0.8296831131650678  1.0000
  C   C72       1.0  0.6388392061118112  0.22323603104494794  0.7911538416735837  1.0000
  C   C73       1.0  0.7156855967403003  0.26223956641763385  0.7776447379921977  1.0000
  C   C74       1.0  0.7201572358428763  0.3414613758279046  0.7988203886015912  1.0000
  C   C75       1.0  0.6568497422929127  0.38054423954940825  0.8358755117111727  1.0000
  C   C76       1.0  0.1836812356958788  0.5185579438743846  0.015598227652041944  1.0000
  C   C77       1.0  0.11324112275733006  0.5937872058410393  0.9453872226114586  1.0000
  C   C78       1.0  0.030608835325530468  0.5348034695409465  0.02754356565175435  1.0000
  C   C79       1.0  0.2146780067921199  0.40085991834374113  0.8309723737722197  1.0000
  C   C80       1.0  0.13351532465713234  0.2754330368239692  0.7670417658541454  1.0000
  C   C81       1.0  0.09981322694067533  0.38548363564366633  0.7248293392550594  1.0000
  C   C82       1.0  0.057173044690863206  0.0993838745255431  0.42945597944733294  1.0000
  C   C83       1.0  0.09316032105390801  0.13933419589049123  0.3773003278188015  1.0000
  C   C84       1.0  0.039404177432402314  0.1411386525210716  0.3132250370834627  1.0000
  C   C85       1.0  0.0747463139978422  0.17518370684713602  0.26372357956848463  1.0000
  C   C86       1.0  0.1634960898462552  0.209081912953117  0.2750404335219586  1.0000
  C   C87       1.0  0.21506001270334002  0.20731276680000832  0.34140845016793264  1.0000
  C   C88       1.0  0.18120690118346525  0.17316841954107792  0.3910232865691513  1.0000
  C   C89       1.0  0.19692814896889396  0.24805680803255112  0.2221536788358663  1.0000
  C   C90       1.0  0.18567177946606964  0.32376296462548027  0.23003291472967655  1.0000
  C   C91       1.0  0.2143745093957962  0.3610348590412898  0.1806266447813415  1.0000
  C   C92       1.0  0.2533725248087819  0.3221248276513009  0.11896178011956954  1.0000
  C   C93       1.0  0.2609289838416728  0.24560298193532756  0.10650439119062582  1.0000
  C   C94       1.0  0.23397150758215446  0.2103208713296993  0.15772444796981236  1.0000
  C   C95       1.0  0.28730451547625796  0.3616179189471751  0.06627857421313622  1.0000
  C   C96       1.0  0.9797372308149975  0.10113428012669351  0.6202778718244276  1.0000
  C   C97       1.0  0.9141109991386854  0.14606043271379576  0.6604792111466653  1.0000
  C   C98       1.0  0.9244005113138557  0.1703223546961965  0.7396077370892302  1.0000
  C   C99       1.0  0.8611731012745382  0.2088508851266937  0.7767728309839442  1.0000
  C   C100      1.0  0.7843281777993527  0.22236267682880856  0.7377711255417483  1.0000
  C   C101      1.0  0.7798514269244735  0.20118502436234562  0.6585483507319554  1.0000
  C   C102      1.0  0.8431523002528182  0.1641233589996105  0.6194620883123109  1.0000
  C   C103      1.0  0.3163143477743021  0.9844002992509928  0.4814388652206107  1.0000
  C   C104      1.0  0.3867631334862978  0.05461754953037  0.40621856900229153  1.0000
  C   C105      1.0  0.46939052114232294  0.9724583941089052  0.46520101758326876  1.0000
  C   C106      1.0  0.28531892973990136  0.16903232138976426  0.5991418704975047  1.0000
  C   C107      1.0  0.3664956945283394  0.23295085747652414  0.7245659142895278  1.0000
  C   C108      1.0  0.4001848231584759  0.2751730649000735  0.6145190092038535  1.0000
  N   N1        1.0  0.5132137846646714  0.19707941437575727  0.17449902099010473  1.0000
  N   N2        1.0  0.8086045909441352  0.3607421885467589  0.24211984417531346  1.0000
  N   N3        1.0  0.6435124507696983  0.29328182429227223  0.3685345124431407  1.0000
  N   N4        1.0  0.7445356764670379  0.14158104610482522  0.12941108306475976  1.0000
  N   N5        1.0  0.37900748282821434  0.8601052685638989  0.23937607378026377  1.0000
  N   N6        1.0  0.20466190753842992  0.6118998808895597  0.21630739956766837  1.0000
  N   N7        1.0  0.8873058490621804  0.4503448574963613  0.0019315407271776502  1.0000
  N   N8        1.0  0.8467057507581615  0.6442470014933902  0.2245735261711204  1.0000
  N   N9        1.0  0.9867867507467878  0.8255000563263835  0.8029202057604864  1.0000
  N   N10       1.0  0.691403839310695  0.7578743648348905  0.6392550488910802  1.0000
  N   N11       1.0  0.8564934295928311  0.631461420616425  0.7067209015626904  1.0000
  N   N12       1.0  0.7554579370129133  0.8705867993434567  0.8584118252124215  1.0000
  N   N13       1.0  0.12101452602250623  0.7606399536399024  0.1398952715069442  1.0000
  N   N14       1.0  0.29532205560018104  0.7836750052954145  0.3881044461753974  1.0000
  N   N15       1.0  0.6126884383193315  0.9980698659798505  0.5496644105047324  1.0000
  N   N16       1.0  0.6532932412890914  0.7754247277896767  0.35575647044965564  1.0000
  N   N17       1.0  0.4867816638651874  0.8029221202706438  0.8254968184526705  1.0000
  N   N18       1.0  0.1913886160097107  0.6392615863173317  0.7578829181567813  1.0000
  N   N19       1.0  0.35647550345750295  0.7067140359010012  0.6314584340254543  1.0000
  N   N20       1.0  0.2554579944706888  0.8584176415776953  0.8705858827503479  1.0000
  N   N21       1.0  0.6210116831864597  0.1398967636907216  0.7606401201345535  1.0000
  N   N22       1.0  0.7953289440028755  0.38810565385462337  0.7836823089052988  1.0000
  N   N23       1.0  0.11268286000219525  0.5496555183429451  0.9980682017534763  1.0000
  N   N24       1.0  0.1532903540070336  0.35575055958873486  0.7754216934389506  1.0000
  N   N25       1.0  0.01321862476367391  0.17448617340377842  0.19706966070279464  1.0000
  N   N26       1.0  0.3086041612126494  0.24211979960804797  0.3607395978728079  1.0000
  N   N27       1.0  0.14352020321976516  0.36853099242357973  0.29328546936655914  1.0000
  N   N28       1.0  0.24454237643522697  0.1294085223719676  0.14157663674225773  1.0000
  N   N29       1.0  0.8790072486566131  0.23937008391617098  0.8601096518718877  1.0000
  N   N30       1.0  0.704674997864636  0.21632023500121994  0.6119019313375349  1.0000
  N   N31       1.0  0.3873163904685271  0.0019327509607549994  0.450345402132328  1.0000
  N   N32       1.0  0.3467106486082089  0.22458016758322694  0.6442518147865003  1.0000
  O   O1        1.0  0.608022294138593  0.48948319052437483  0.10413907233117922  1.0000
  O   O2        1.0  0.47958282903787364  0.40736169839998126  0.06359044526683284  1.0000
  O   O3        1.0  0.7950509081006417  0.0866340680931259  0.43449154018805575  1.0000
  O   O4        1.0  0.8086499611628852  0.004080199511960799  0.3228551295300691  1.0000
  O   O5        1.0  0.43510563321486734  0.20658840405911147  0.17979256201626012  1.0000
  O   O6        1.0  0.5428732362051889  0.13654685246989126  0.16809157776321376  1.0000
  O   O7        1.0  0.8525488445047175  0.41635724063694113  0.23286368880894068  1.0000
  O   O8        1.0  0.8385993461597394  0.32097528142860915  0.278429069920172  1.0000
  O   O9        1.0  0.6056529019305827  0.28264873278833846  0.42057647834086254  1.0000
  O   O10       1.0  0.6494285112934008  0.352934466092954  0.3517017933693297  1.0000
  O   O11       1.0  0.7375385550172737  0.1936396502310629  0.10131668058228634  1.0000
  O   O12       1.0  0.7598193665357229  0.07772870064690102  0.09487216234305865  1.0000
  O   O13       1.0  0.45467824130061274  0.5521058818147396  0.05905521035040816  1.0000
  O   O14       1.0  0.5564770876372621  0.6549760984207396  0.10611964904262548  1.0000
  O   O15       1.0  0.45778989809539183  0.8894062774784857  0.2531368397389927  1.0000
  O   O16       1.0  0.31528234696153135  0.8956823224893994  0.25116058079941433  1.0000
  O   O17       1.0  0.12916373690067934  0.6285846957567784  0.20400780490020762  1.0000
  O   O18       1.0  0.22144713625884552  0.5581402520131391  0.23832697455072355  1.0000
  O   O19       1.0  0.7447567413762572  0.47613622565925345  0.010292656534908084  1.0000
  O   O20       1.0  0.7405206603544129  0.6219207912722453  0.12237344301846065  1.0000
  O   O21       1.0  0.8919782177195972  0.8958568274267904  0.5105129331880323  1.0000
  O   O22       1.0  0.020414007332405518  0.9364059731350096  0.592634704351511  1.0000
  O   O23       1.0  0.7049392956411611  0.5655105072929203  0.9133650079790032  1.0000
  O   O24       1.0  0.6913402293010833  0.6771463749662843  0.9959173093140096  1.0000
  O   O25       1.0  0.06489223280917143  0.820194455091908  0.7934104575958261  1.0000
  O   O26       1.0  0.9571290913504171  0.8319183188820886  0.8634552859153503  1.0000
  O   O27       1.0  0.6474526533451977  0.7671377927245261  0.5836459375041373  1.0000
  O   O28       1.0  0.6614147376514978  0.7215483405389379  0.6790083083352841  1.0000
  O   O29       1.0  0.8943493295755189  0.579418007929874  0.7173567403220675  1.0000
  O   O30       1.0  0.8505918655817197  0.6482995525111407  0.6470708313730642  1.0000
  O   O31       1.0  0.7624558910952004  0.8986761784474452  0.8063494748054014  1.0000
  O   O32       1.0  0.7401717545449816  0.9051243454166383  0.9222637126911837  1.0000
  O   O33       1.0  0.04531669026808062  0.9409502518906409  0.44788937095592746  1.0000
  O   O34       1.0  0.9435180378160057  0.8938821019181448  0.3450209368368889  1.0000
  O   O35       1.0  0.04223204279857383  0.7468743010726088  0.11058907988740439  1.0000
  O   O36       1.0  0.18474535015393911  0.748856290463948  0.10432537602042663  1.0000
  O   O37       1.0  0.3708253167666768  0.7959705998676869  0.37142654866842434  1.0000
  O   O38       1.0  0.2785190457138853  0.7616406816842414  0.44185077325003885  1.0000
  O   O39       1.0  0.7552410650521962  0.9897043345855112  0.5238693638097872  1.0000
  O   O40       1.0  0.759479909305796  0.8776255553124345  0.37808139180869216  1.0000
  O   O41       1.0  0.39197240828518437  0.510517762323687  0.89585974148428  1.0000
  O   O42       1.0  0.5204071859816466  0.5926387015362025  0.9364040570909185  1.0000
  O   O43       1.0  0.2049433254228035  0.913368021618133  0.5655070449548417  1.0000
  O   O44       1.0  0.1913517666512946  0.9959235931574429  0.6771451386484346  1.0000
  O   O45       1.0  0.5648872769031853  0.7934097653548663  0.820192932418607  1.0000
  O   O46       1.0  0.4571243738628397  0.8634557872329651  0.83191174370932  1.0000
  O   O47       1.0  0.14743922088197084  0.5836549976386181  0.76715139902295  1.0000
  O   O48       1.0  0.1614019023643252  0.6790177783252106  0.7215571742402177  1.0000
  O   O49       1.0  0.3943280225466311  0.7173443064072416  0.5794107335415932  1.0000
  O   O50       1.0  0.3505652538627332  0.6470647866335569  0.6482958881903188  1.0000
  O   O51       1.0  0.26246176607205746  0.8063596100379584  0.8986804817013834  1.0000
  O   O52       1.0  0.2401689634752203  0.9222694244282509  0.9051225770479052  1.0000
  O   O53       1.0  0.5453125269093136  0.4478950693313664  0.9409432729971813  1.0000
  O   O54       1.0  0.44352023976361477  0.3450208746551624  0.8938803152577323  1.0000
  O   O55       1.0  0.5422293664853514  0.11059232950150029  0.7468831402048863  1.0000
  O   O56       1.0  0.6847410288498355  0.10432540868256272  0.7488523453929333  1.0000
  O   O57       1.0  0.8708312312968689  0.37142199665986914  0.7959777802229554  1.0000
  O   O58       1.0  0.778531815673894  0.44185678135599465  0.7616559317575027  1.0000
  O   O59       1.0  0.25522980613801854  0.5238590736286213  0.9896983939774131  1.0000
  O   O60       1.0  0.25947825129725294  0.37807791985615324  0.8776191481695083  1.0000
  O   O61       1.0  0.10802463141560992  0.10414187128584022  0.48948319863512796  1.0000
  O   O62       1.0  0.979587343620061  0.06359953085340211  0.40736391078742434  1.0000
  O   O63       1.0  0.29505643607694765  0.4344887486375271  0.08663230378669344  1.0000
  O   O64       1.0  0.30864819329342913  0.3228523222117304  0.004076540737827447  1.0000
  O   O65       1.0  0.9351122996520617  0.17979063956069297  0.20657899235617805  1.0000
  O   O66       1.0  0.042875908921253404  0.16806564361323242  0.13653332265344895  1.0000
  O   O67       1.0  0.3525471106436626  0.23286995647114853  0.41635858554631977  1.0000
  O   O68       1.0  0.3386022471353343  0.2784288423957548  0.3209738829144372  1.0000
  O   O69       1.0  0.10566037556259292  0.4205743751727056  0.28265572047394744  1.0000
  O   O70       1.0  0.14943487910918662  0.35169684710886173  0.35293571094280207  1.0000
  O   O71       1.0  0.2375357081393261  0.10131404505629862  0.19363402462425236  1.0000
  O   O72       1.0  0.25983380289871155  0.09487495712190962  0.07772479474225244  1.0000
  O   O73       1.0  0.9546825999039968  0.05905468384983691  0.5521088982324118  1.0000
  O   O74       1.0  0.056479944754158906  0.10611884528935178  0.6549797574521321  1.0000
  O   O75       1.0  0.9577903821214522  0.2531317888017028  0.8894093383519677  1.0000
  O   O76       1.0  0.8152783938238245  0.25115771002626264  0.8956830626424621  1.0000
  O   O77       1.0  0.6291731450339813  0.2040212227804972  0.6285821199458611  1.0000
  O   O78       1.0  0.7214720111099098  0.23835002422638496  0.5581521128221922  1.0000
  O   O79       1.0  0.24476675578927143  0.0103005766070865  0.4761360417269246  1.0000
  O   O80       1.0  0.2405205054808448  0.12238221534349243  0.6219183710687659  1.0000
