data_image0
_chemical_formula_structural       CaP2H28C34N2O8
_chemical_formula_sum              "Ca1 P2 H28 C34 N2 O8"
_cell_length_a       5.636721538935639
_cell_length_b       12.08897058485205
_cell_length_c       12.424035429098481
_cell_angle_alpha    109.57371275693491
_cell_angle_beta     103.08605513322843
_cell_angle_gamma    89.98744611148905

_space_group_name_H-M_alt    "P 1"
_space_group_IT_number       1

loop_
  _space_group_symop_operation_xyz
  'x, y, z'

loop_
  _atom_site_type_symbol
  _atom_site_label
  _atom_site_symmetry_multiplicity
  _atom_site_fract_x
  _atom_site_fract_y
  _atom_site_fract_z
  _atom_site_occupancy
  Ca  Ca1       1.0  0.6636798769526209  0.9999313244612152  4.7749825604500204e-05  1.0000
  P   P1        1.0  0.2825665010494731  0.1064225193569044  0.20252629362075686  1.0000
  P   P2        1.0  0.08070858915809245  0.8934586125365909  0.7975063001369522  1.0000
  H   H1        1.0  0.6651017713857784  0.009266780758288498  0.43534250778660083  1.0000
  H   H2        1.0  0.22984074991863676  0.9915610150382148  0.5651658100319139  1.0000
  H   H3        1.0  0.6555707533300321  0.8131522247287747  0.46036969558385726  1.0000
  H   H4        1.0  0.19368683528175987  0.18765175187166247  0.5401751808881701  1.0000
  H   H5        1.0  0.27310086614003376  0.6785647072922101  0.3747231554050004  1.0000
  H   H6        1.0  0.8956111184219325  0.321639948921721  0.6257332210437314  1.0000
  H   H7        1.0  0.8986573931268327  0.7435579623347336  0.2680391182350661  1.0000
  H   H8        1.0  0.6285113342367552  0.2561469396822956  0.7324249288732505  1.0000
  H   H9        1.0  0.9077325786657653  0.9422672425322957  0.24915117415736185  1.0000
  H   H10       1.0  0.6579338193991761  0.057411925190464785  0.7512105994032513  1.0000
  H   H11       1.0  0.7736705953724086  0.19005622410167433  0.3365332431639346  1.0000
  H   H12       1.0  0.4372761422690914  0.8099002686681016  0.6632293749930228  1.0000
  H   H13       1.0  0.13940523803074  0.3327260810890635  0.4314336109393439  1.0000
  H   H14       1.0  0.708329766466477  0.6673419940189474  0.5680839944995455  1.0000
  H   H15       1.0  0.121087087013116  0.5393473019019693  0.43757571114338145  1.0000
  H   H16       1.0  0.684076009864036  0.460625389908266  0.561601381313743  1.0000
  H   H17       1.0  0.7302509698946196  0.6035589779514438  0.34218255770556993  1.0000
  H   H18       1.0  0.3888370910909416  0.39618353134085293  0.6570166397391335  1.0000
  H   H19       1.0  0.3600067506870488  0.46058419678961826  0.2497197370470517  1.0000
  H   H20       1.0  0.11091651857139335  0.5390873825599128  0.7498008456311639  1.0000
  H   H21       1.0  0.33003102580953236  0.8238758881642099  0.094315129156044  1.0000
  H   H22       1.0  0.2359941364960108  0.17612797605493566  0.906113549886577  1.0000
  H   H23       1.0  0.2871531424570506  0.6175893251212229  0.0926822967312901  1.0000
  H   H24       1.0  0.19453583883159095  0.3822945003549519  0.9074682094221915  1.0000
  H   H25       1.0  0.8624105701530382  0.5387083086080579  0.9065465945679707  1.0000
  H   H26       1.0  0.9558018715881645  0.46113283501786373  0.0930922706074213  1.0000
  H   H27       1.0  0.8730476692484004  0.7468392335882469  0.9111382385185537  1.0000
  H   H28       1.0  0.9619886489834785  0.25313933607386463  0.08888530148736613  1.0000
  C   C1        1.0  0.28866719093911536  0.9850699569522873  0.3400097970848891  1.0000
  C   C2        1.0  0.9483830943639475  0.015131230648726993  0.6603504680010703  1.0000
  C   C3        1.0  0.4992565064253327  0.9498323650605016  0.39908328149670086  1.0000
  C   C4        1.0  0.09968051114172741  0.05072904527442288  0.601367311240921  1.0000
  C   C5        1.0  0.4922539137351549  0.83943484915261  0.4117778310537475  1.0000
  C   C6        1.0  0.07914396787403888  0.16110692606150676  0.5887089405538007  1.0000
  C   C7        1.0  0.2775019587516709  0.7643697902692991  0.36400029419557  1.0000
  C   C8        1.0  0.911462422973848  0.23586219120175395  0.6364904834317573  1.0000
  C   C9        1.0  0.06804405389676295  0.8008508745898479  0.3045802939546292  1.0000
  C   C10       1.0  0.7618097045773311  0.19908883208958622  0.6958623696463067  1.0000
  C   C11       1.0  0.07133236549817204  0.9118905245885995  0.2929429385511924  1.0000
  C   C12       1.0  0.7775552269799276  0.08799561069385929  0.7074475958368113  1.0000
  C   C13       1.0  0.5454864932751278  0.3186340179162953  0.28912294686650614  1.0000
  C   C14       1.0  0.2567927860952395  0.681196794516282  0.7105427947029599  1.0000
  C   C15       1.0  0.7633696519806963  0.28091465282646766  0.33967912512631676  1.0000
  C   C16       1.0  0.42404858196001527  0.719012788066436  0.6600125855146147  1.0000
  C   C17       1.0  0.9687841976580105  0.3615503985446225  0.3922481162647318  1.0000
  C   C18       1.0  0.5769562893415028  0.6384346969176774  0.607262332203071  1.0000
  C   C19       1.0  0.9593716199751086  0.4775791853309385  0.3940930458255565  1.0000
  C   C20       1.0  0.5658072553016426  0.5223383443164449  0.6052384011698707  1.0000
  C   C21       1.0  0.7408903798188433  0.5133131138625657  0.34168763047924244  1.0000
  C   C22       1.0  0.3998024804170086  0.48650145005012035  0.6576220052746751  1.0000
  C   C23       1.0  0.5333308921851768  0.4342888316417516  0.289627959841468  1.0000
  C   C24       1.0  0.2442359686633395  0.5654832138651997  0.7098924071265814  1.0000
  C   C25       1.0  0.4423301925184688  0.7572244600311676  0.052070247291190724  1.0000
  C   C26       1.0  0.39043419035523647  0.24274781291605751  0.9481932325194297  1.0000
  C   C27       1.0  0.4191659788696569  0.6419492272610154  0.05087292819037253  1.0000
  C   C28       1.0  0.3683723833930088  0.3579745169496745  0.9492464122290232  1.0000
  C   C29       1.0  0.574573759308187  0.5609351685238976  0.9999622531144612  1.0000
  C   C30       1.0  0.5745792746824989  0.43895264306799914  0.9999485168961686  1.0000
  C   C31       1.0  0.7423967891992477  0.5994832274743158  0.949856171064518  1.0000
  C   C32       1.0  0.7925349716674861  0.40039159914174133  0.04998902416572554  1.0000
  C   C33       1.0  0.7494835978430743  0.7150848721337866  0.9523971108304257  1.0000
  C   C34       1.0  0.7971531305084127  0.2848470987142306  0.04762024039010268  1.0000
  N   N1        1.0  0.6043146177803395  0.7937895097275457  0.003941106787166933  1.0000
  N   N2        1.0  0.6005405656604597  0.2061914771235962  0.9962853385945751  1.0000
  O   O1        1.0  0.2982107848289104  0.09808478624857737  0.3326275078365627  1.0000
  O   O2        1.0  0.9660715705134779  0.9020777111454025  0.6675758581576902  1.0000
  O   O3        1.0  0.025537855101546804  0.0774215745898559  0.13047000205592246  1.0000
  O   O4        1.0  0.8961297344950411  0.9225717769930452  0.869851671772267  1.0000
  O   O5        1.0  0.3290155695266109  0.24730142505977432  0.23655497076154575  1.0000
  O   O6        1.0  0.09283015422724353  0.7525426228167117  0.7632203306944376  1.0000
  O   O7        1.0  0.4836048856039242  0.04106236084233929  0.1550770588121182  1.0000
  O   O8        1.0  0.3293004968435156  0.9586111047086378  0.8447779235603224  1.0000
