data_image0
_chemical_formula_structural       Cd4H40C48S8N16O4
_chemical_formula_sum              "Cd4 H40 C48 S8 N16 O4"
_cell_length_a       7.541558808198725
_cell_length_b       11.427771729553486
_cell_length_c       16.52090198072625
_cell_angle_alpha    98.09166352357701
_cell_angle_beta     89.99919093638658
_cell_angle_gamma    90.0002310794701

_space_group_name_H-M_alt    "P 1"
_space_group_IT_number       1

loop_
  _space_group_symop_operation_xyz
  'x, y, z'

loop_
  _atom_site_type_symbol
  _atom_site_label
  _atom_site_symmetry_multiplicity
  _atom_site_fract_x
  _atom_site_fract_y
  _atom_site_fract_z
  _atom_site_occupancy
  Cd  Cd1       1.0  0.1798969836592761  0.49013316459960526  0.2362371578078992  1.0000
  Cd  Cd2       1.0  0.67991680500009  0.009874073758517496  0.7637633255799938  1.0000
  Cd  Cd3       1.0  0.8200988331731834  0.5098745828868728  0.763760877889723  1.0000
  Cd  Cd4       1.0  0.32009094569826874  0.9901416396445978  0.23623666133826754  1.0000
  H   H1        1.0  0.6759053568225609  0.12999407244667077  0.19924615223241904  1.0000
  H   H2        1.0  0.17590875932806682  0.3699972904702377  0.8007571184218205  1.0000
  H   H3        1.0  0.32410106785806647  0.8700004287310533  0.8007518624406842  1.0000
  H   H4        1.0  0.8240923613370087  0.6299981398409571  0.19924582510667216  1.0000
  H   H5        1.0  0.714776996463179  0.4095269878365926  0.054580356295503  1.0000
  H   H6        1.0  0.21477966796287257  0.0904662284683724  0.9454258588495886  1.0000
  H   H7        1.0  0.2852241242045536  0.5904702101599637  0.9454227515871095  1.0000
  H   H8        1.0  0.7852267566650893  0.9095238818051211  0.054574774101553175  1.0000
  H   H9        1.0  0.6828445640275974  0.11189361298159639  0.000238208616160301  1.0000
  H   H10       1.0  0.18283405977056333  0.38810131818888016  0.9997677696658939  1.0000
  H   H11       1.0  0.3171671646332044  0.8881070581133127  0.9997585637813555  1.0000
  H   H12       1.0  0.8171538010205097  0.6118896985609368  0.00023536885244370434  1.0000
  H   H13       1.0  0.49578798930569684  0.20514044519332936  0.0020838052754186035  1.0000
  H   H14       1.0  0.9957811327873713  0.294850523166069  0.9979191514227704  1.0000
  H   H15       1.0  0.504218435418494  0.7948646451110901  0.9979133780243783  1.0000
  H   H16       1.0  0.004209380001505299  0.7051334001968853  0.0020809063399269963  1.0000
  H   H17       1.0  0.5022614699889019  0.09239016655052978  0.06641221420377258  1.0000
  H   H18       1.0  0.0022610494660710995  0.4076000448117156  0.9335908750599768  1.0000
  H   H19       1.0  0.4977396508247479  0.9076060570139429  0.9335811181790914  1.0000
  H   H20       1.0  0.9977334412830244  0.5923918388001679  0.06641052811617949  1.0000
  H   H21       1.0  0.7465671974779796  0.48058070157203053  0.3499322220948001  1.0000
  H   H22       1.0  0.24657844270138438  0.019420510599864795  0.6500739231215746  1.0000
  H   H23       1.0  0.2534312712838727  0.5194173406323869  0.6500667271446829  1.0000
  H   H24       1.0  0.7534213520554901  0.9805775259437013  0.3499244202809919  1.0000
  H   H25       1.0  0.8324583741249825  0.47617830460335137  0.494090331560514  1.0000
  H   H26       1.0  0.33245546856413444  0.023824762429072187  0.5059111869697117  1.0000
  H   H27       1.0  0.16754539859342543  0.5238285760318319  0.505909439432571  1.0000
  H   H28       1.0  0.6675443261940683  0.9761741579571814  0.4940872386099214  1.0000
  H   H29       1.0  0.9622619314254022  0.2932669152798582  0.5360202043481053  1.0000
  H   H30       1.0  0.46225208809359936  0.2067389949306601  0.4639807291564252  1.0000
  H   H31       1.0  0.0377431672420201  0.7067399880036546  0.4639819899714012  1.0000
  H   H32       1.0  0.537743728679551  0.7932599424381692  0.536019513933951  1.0000
  H   H33       1.0  0.0006315450005800001  0.11446421444592399  0.4329677346691341  1.0000
  H   H34       1.0  0.5006290494120691  0.38553657231122407  0.5670333220046473  1.0000
  H   H35       1.0  0.9993669237100491  0.8855365132575769  0.5670350960975341  1.0000
  H   H36       1.0  0.4993680933587541  0.6144641270821152  0.43296647960293194  1.0000
  H   H37       1.0  0.9206212973382576  0.11968518413227258  0.2874000475524738  1.0000
  H   H38       1.0  0.420630094873033  0.38031715188616005  0.7126032472831269  1.0000
  H   H39       1.0  0.07937584538123592  0.8803120081995175  0.712602454510204  1.0000
  H   H40       1.0  0.579367047875401  0.6196809073028005  0.28739751945860786  1.0000
  C   C1        1.0  0.15954898686791805  0.2058779254568677  0.14348279793795626  1.0000
  C   C2        1.0  0.6595517334195193  0.2941301157309438  0.8565124455459594  1.0000
  C   C3        1.0  0.840444178071742  0.794127119543063  0.8565095387429692  1.0000
  C   C4        1.0  0.3404493874025293  0.7058961811321395  0.14348610418757343  1.0000
  C   C5        1.0  0.14958706610546804  0.7757903863867525  0.32612455905569243  1.0000
  C   C6        1.0  0.6495989407366807  0.724216768618909  0.6738756740429961  1.0000
  C   C7        1.0  0.8504140545545057  0.22421389367494976  0.6738804179087194  1.0000
  C   C8        1.0  0.3504035058919185  0.27578221404950637  0.3261294156874896  1.0000
  C   C9        1.0  0.798068141009189  0.3976525340309392  0.1824474239260424  1.0000
  C   C10       1.0  0.2980787512885358  0.10234609132999137  0.8175569331579949  1.0000
  C   C11       1.0  0.20192767571263195  0.6023428962763403  0.8175555196194394  1.0000
  C   C12       1.0  0.7019183914848454  0.8976501831880839  0.18244185173161748  1.0000
  C   C13       1.0  0.6648709296778178  0.24326337019159175  0.10579025396189219  1.0000
  C   C14       1.0  0.1648761305042683  0.2567262313962786  0.8942153463545635  1.0000
  C   C15       1.0  0.3351315170532346  0.7567302414786782  0.8942070727142164  1.0000
  C   C16       1.0  0.8351276421323276  0.7432630063562438  0.10578641609335189  1.0000
  C   C17       1.0  0.7229985175400911  0.35888168317772795  0.10512322883417369  1.0000
  C   C18       1.0  0.222995067125872  0.14111591918052815  0.8948784978837664  1.0000
  C   C19       1.0  0.27700923313177833  0.6411225459323333  0.8948762956149918  1.0000
  C   C20       1.0  0.7770007496629175  0.8588750466186283  0.1051191881150757  1.0000
  C   C21       1.0  0.5815095997401373  0.15850127669992986  0.040485406798374896  1.0000
  C   C22       1.0  0.08150667814110339  0.34149083634134303  0.9595191566268823  1.0000
  C   C23       1.0  0.41849549900079097  0.8414993887282515  0.9595107597877114  1.0000
  C   C24       1.0  0.9184825086449919  0.6585001747476154  0.04048337605454578  1.0000
  C   C25       1.0  0.8275704223600826  0.30042941026439957  0.3102778437815061  1.0000
  C   C26       1.0  0.32758946862052335  0.19957368353818336  0.6897273409887886  1.0000
  C   C27       1.0  0.1724227424059563  0.6995704335924984  0.6897249048250984  1.0000
  C   C28       1.0  0.6724103261390085  0.8004261206907516  0.3102711667678975  1.0000
  C   C29       1.0  0.8030868317261621  0.4009943999183816  0.3682505918491471  1.0000
  C   C30       1.0  0.3031057290935665  0.09900335467792586  0.6317542567119998  1.0000
  C   C31       1.0  0.19690765903223445  0.5990036705922959  0.6317513865664209  1.0000
  C   C32       1.0  0.6968993695881592  0.9009946931932259  0.3682452983389196  1.0000
  C   C33       1.0  0.8515251779482612  0.3977083565341032  0.449212718285345  1.0000
  C   C34       1.0  0.35153197262353325  0.10229477829051348  0.5507929188920853  1.0000
  C   C35       1.0  0.14847329074662238  0.6022941501784442  0.5507914885007777  1.0000
  C   C36       1.0  0.648471800082909  0.897704147760514  0.44920611250746834  1.0000
  C   C37       1.0  0.9230614542586579  0.2949779527504929  0.4727699585414341  1.0000
  C   C38       1.0  0.42305365395262834  0.2050208288404889  0.5272305686757051  1.0000
  C   C39       1.0  0.07694231843858292  0.7050209789623663  0.5272296786907873  1.0000
  C   C40       1.0  0.5769474667637836  0.7949781085322482  0.47276967439768197  1.0000
  C   C41       1.0  0.945011087888503  0.19479839649780217  0.4147471017264621  1.0000
  C   C42       1.0  0.4450127145727762  0.30520573755043046  0.5852555954017616  1.0000
  C   C43       1.0  0.054990032808277085  0.805205860916558  0.5852554519072795  1.0000
  C   C44       1.0  0.5549857541851962  0.6947958456865705  0.4147442883786282  1.0000
  C   C45       1.0  0.8989237203034008  0.19689897376122892  0.33317718475590397  1.0000
  C   C46       1.0  0.39893346014481773  0.3030980158416057  0.6668245443532823  1.0000
  C   C47       1.0  0.1010747484557939  0.8030973007578195  0.6668216001294666  1.0000
  C   C48       1.0  0.6010623566559445  0.6969009045417066  0.3331738812390909  1.0000
  S   S1        1.0  0.11949086950522769  0.06425937079623618  0.12195637855582217  1.0000
  S   S2        1.0  0.6194845059372582  0.43574950640533655  0.8780404154297157  1.0000
  S   S3        1.0  0.8805142292896945  0.9357465693788636  0.8780372519292782  1.0000
  S   S4        1.0  0.38050733288542193  0.5642724278558544  0.12196378177493017  1.0000
  S   S5        1.0  0.17184361218807706  0.9160025339411672  0.36129462210158175  1.0000
  S   S6        1.0  0.6718464565334512  0.5840028975579654  0.6387065157519557  1.0000
  S   S7        1.0  0.8281588345629202  0.08400433536935739  0.6387039372304171  1.0000
  S   S8        1.0  0.32813875237934537  0.41598894641420237  0.36129064662525673  1.0000
  N   N1        1.0  0.18741467061970948  0.3084288326597572  0.15712216616594787  1.0000
  N   N2        1.0  0.6874079514913306  0.19158194648755256  0.8428779920208952  1.0000
  N   N3        1.0  0.8125917541019304  0.6915806825199197  0.8428760338518086  1.0000
  N   N4        1.0  0.3125746054924008  0.8084381804485543  0.15712180003069418  1.0000
  N   N5        1.0  0.12861133228719981  0.6739536080038703  0.30423405271166354  1.0000
  N   N6        1.0  0.6286297653151179  0.8260543772312653  0.6957639735922497  1.0000
  N   N7        1.0  0.8713911144954027  0.32605589584919403  0.6957629356535049  1.0000
  N   N8        1.0  0.3713872671836214  0.17393751205909777  0.30423803534436894  1.0000
  N   N9        1.0  0.77779020180175  0.3052306906833663  0.22807468979731735  1.0000
  N   N10       1.0  0.2778040663129461  0.1947670265587148  0.7719303208413706  1.0000
  N   N11       1.0  0.2222056149371454  0.6947638444575543  0.7719269599057694  1.0000
  N   N12       1.0  0.7221970543981442  0.805228375443292  0.22806959352377723  1.0000
  N   N13       1.0  0.6998346324999503  0.21233077342803594  0.17984127924333385  1.0000
  N   N14       1.0  0.1998449195626861  0.2876659505290319  0.8201647544803377  1.0000
  N   N15       1.0  0.3001664882190127  0.7876637390694511  0.8201579471120934  1.0000
  N   N16       1.0  0.8001588530937626  0.7123303523031336  0.17983705955138155  1.0000
  O   O1        1.0  0.8794052790087576  0.49423880815743343  0.21135293277733774  1.0000
  O   O2        1.0  0.3794201829780803  0.005758163953878196  0.7886501330244255  1.0000
  O   O3        1.0  0.1205905376946532  0.5057566334735168  0.7886512224334721  1.0000
  O   O4        1.0  0.6205888936557714  0.9942363485494776  0.21134909330551466  1.0000
