data_image0
_chemical_formula_structural       Cd2H24C28N20O12
_chemical_formula_sum              "Cd2 H24 C28 N20 O12"
_cell_length_a       8.91264679769934
_cell_length_b       8.423310880255464
_cell_length_c       11.923988363464737
_cell_angle_alpha    89.99570393005077
_cell_angle_beta     105.401322083243
_cell_angle_gamma    89.99379713759397

_space_group_name_H-M_alt    "P 1"
_space_group_IT_number       1

loop_
  _space_group_symop_operation_xyz
  'x, y, z'

loop_
  _atom_site_type_symbol
  _atom_site_label
  _atom_site_symmetry_multiplicity
  _atom_site_fract_x
  _atom_site_fract_y
  _atom_site_fract_z
  _atom_site_occupancy
  Cd  Cd1       1.0  3.0601396475000066e-06  0.5000029166722013  6.9612334244000076e-06  1.0000
  Cd  Cd2       1.0  0.5000024382567644  0.999993929361338  0.9999969724085814  1.0000
  H   H1        1.0  0.06234724279953952  0.0847109147178955  0.7772221471013266  1.0000
  H   H2        1.0  0.43769857325165173  0.5847122838563338  0.22271439438771518  1.0000
  H   H3        1.0  0.9376480812889699  0.9152923743303347  0.2227722127390166  1.0000
  H   H4        1.0  0.5622917145836299  0.4152862572260432  0.777270694620178  1.0000
  H   H5        1.0  0.170904494103759  0.054889044543664105  0.6060305572795173  1.0000
  H   H6        1.0  0.32914519030363465  0.5549696892759856  0.39390755443182707  1.0000
  H   H7        1.0  0.8290773822396034  0.9451189948475969  0.3939471880573038  1.0000
  H   H8        1.0  0.6708593989627901  0.44505971719817694  0.606087584383225  1.0000
  H   H9        1.0  0.04132852480923081  0.5605410179141541  0.579781262422962  1.0000
  H   H10       1.0  0.45858483459404914  0.0605781383556163  0.4202199691513896  1.0000
  H   H11       1.0  0.9586716836763217  0.4394409012848612  0.42021898606807173  1.0000
  H   H12       1.0  0.541424013011948  0.9394358336204219  0.5797926961870487  1.0000
  H   H13       1.0  0.930169273019892  0.5907879448267436  0.7477103803056052  1.0000
  H   H14       1.0  0.5697339068298958  0.09072524688905759  0.2522921549506377  1.0000
  H   H15       1.0  0.0698548509536749  0.4091999079715194  0.2523083113304949  1.0000
  H   H16       1.0  0.4302420272211124  0.9092816045593464  0.7477072079287904  1.0000
  H   H17       1.0  0.8435892917247827  0.2220905063296925  0.8523083425511542  1.0000
  H   H18       1.0  0.6564525663069388  0.7220248810924871  0.1477116198317602  1.0000
  H   H19       1.0  0.1564190957964868  0.7779139687366765  0.1476941734490751  1.0000
  H   H20       1.0  0.3435453540164985  0.27796059976008547  0.8522890678639924  1.0000
  H   H21       1.0  0.8944786053971756  0.31191247219116747  0.7523900162130133  1.0000
  H   H22       1.0  0.6056024942616178  0.8118662338319709  0.2476282176332631  1.0000
  H   H23       1.0  0.1055225731192735  0.6880872548820703  0.24760620573481867  1.0000
  H   H24       1.0  0.3944023270716813  0.18813705437419515  0.7523719971028981  1.0000
  C   C1        1.0  0.8958514827193228  0.8559721822610129  0.8578861495005086  1.0000
  C   C2        1.0  0.6041274603266514  0.3559203403085718  0.14208985433245397  1.0000
  C   C3        1.0  0.1041489554192623  0.1440204213010716  0.14211917341885538  1.0000
  C   C4        1.0  0.3958676728125781  0.6440675156047106  0.8579002770824573  1.0000
  C   C5        1.0  0.9818996070971622  0.8412471189363444  0.7700136366898105  1.0000
  C   C6        1.0  0.5180855621891567  0.3412116078648423  0.2299819327339065  1.0000
  C   C7        1.0  0.0180979166661146  0.15875735599367857  0.23000376321067503  1.0000
  C   C8        1.0  0.48192150805741824  0.6588011777311849  0.7700169964575493  1.0000
  C   C9        1.0  0.054329506804904816  0.9713175337874702  0.7322712294683811  1.0000
  C   C10       1.0  0.44566084304556614  0.47131944399959735  0.2676817868122612  1.0000
  C   C11       1.0  0.9456733729092833  0.028673882303188205  0.2677370373910932  1.0000
  C   C12       1.0  0.5543169185377649  0.5286826591571269  0.7323069871871509  1.0000
  C   C13       1.0  0.1162863804996235  0.9552135027865701  0.6376226541659447  1.0000
  C   C14       1.0  0.3837461241924773  0.45527934150774035  0.3623495713058205  1.0000
  C   C15       1.0  0.8837113092363892  0.044775539882699895  0.362372958523629  1.0000
  C   C16       1.0  0.6162588879343647  0.544741754196664  0.6376548717594659  1.0000
  C   C17       1.0  0.1038086225307211  0.8088590062341369  0.5803899087316963  1.0000
  C   C18       1.0  0.3961567007741565  0.30890571656691884  0.4195723847311612  1.0000
  C   C19       1.0  0.8961827906955904  0.19113003736339354  0.41959453808168934  1.0000
  C   C20       1.0  0.6038428415485698  0.6911082560247194  0.5804386547628866  1.0000
  C   C21       1.0  0.0428242509293639  0.6750947125747686  0.6214867230420964  1.0000
  C   C22       1.0  0.4571039404602077  0.17512319493625475  0.3785020418016956  1.0000
  C   C23       1.0  0.957183435384998  0.3248907671186815  0.378525740221491  1.0000
  C   C24       1.0  0.5428814516646342  0.8248955275318509  0.621502329681725  1.0000
  C   C25       1.0  0.9830777508914609  0.6923332593636572  0.716799015915349  1.0000
  C   C26       1.0  0.516850145858932  0.19229246392738733  0.2831943750782173  1.0000
  C   C27       1.0  0.016932644654517003  0.30766765308437977  0.2832223112861953  1.0000
  C   C28       1.0  0.483124547779866  0.8077215107784427  0.7168030926611663  1.0000
  N   N1        1.0  0.874503940473943  0.733487224586959  0.9258510338816989  1.0000
  N   N2        1.0  0.6254971255741567  0.23346241955141517  0.07411582517340073  1.0000
  N   N3        1.0  0.1255127052036187  0.2665041908067565  0.0741554426929198  1.0000
  N   N4        1.0  0.3744873466148206  0.7665337475524154  0.9258682477780624  1.0000
  N   N5        1.0  0.7736865846099549  0.7837672346248822  0.9828600494653725  1.0000
  N   N6        1.0  0.7263102120013586  0.2837450051741185  0.017103137066669678  1.0000
  N   N7        1.0  0.2263190935239621  0.21622418205019758  0.017133602500585706  1.0000
  N   N8        1.0  0.273698253005307  0.7162487851668402  0.9829010709875162  1.0000
  N   N9        1.0  0.7344114442294797  0.9311751891110588  0.950048457991407  1.0000
  N   N10       1.0  0.7655809730876799  0.43113562093009966  0.04992720086006838  1.0000
  N   N11       1.0  0.2656012510256005  0.06881978860197081  0.04994725902366067  1.0000
  N   N12       1.0  0.23442531916738574  0.5688581693835887  0.9500799839741699  1.0000
  N   N13       1.0  0.8097355267128067  0.9818081141898958  0.8727047583883232  1.0000
  N   N14       1.0  0.6902470296504364  0.48174317230031244  0.12727210496339583  1.0000
  N   N15       1.0  0.1902844159394022  0.0181916114709608  0.1272980984894261  1.0000
  N   N16       1.0  0.3097330584873034  0.518255369157565  0.8727170756415743  1.0000
  N   N17       1.0  0.14957959222925873  0.7970280478553987  0.47266269054033927  1.0000
  N   N18       1.0  0.35042158548916563  0.2971521214255262  0.5273191403908513  1.0000
  N   N19       1.0  0.8504025161809778  0.20295387326785888  0.5273201307175909  1.0000
  N   N20       1.0  0.6495847809809449  0.7028808457919451  0.4726897344748764  1.0000
  O   O1        1.0  0.23575055669310532  0.8997392803227271  0.4489030505602328  1.0000
  O   O2        1.0  0.26439808017075717  0.399953892839008  0.5511077941541132  1.0000
  O   O3        1.0  0.7642600429064501  0.100250948545856  0.5510973350480768  1.0000
  O   O4        1.0  0.7356132957072675  0.6000814493081562  0.44888433475202305  1.0000
  O   O5        1.0  0.09451167441270063  0.6838332751389373  0.4058259842206268  1.0000
  O   O6        1.0  0.4053627851972408  0.18388487949054166  0.5941730216261547  1.0000
  O   O7        1.0  0.905452937586496  0.3161367740855567  0.5941781143283933  1.0000
  O   O8        1.0  0.5946434287937734  0.8161314673650394  0.40583247067257827  1.0000
  O   O9        1.0  0.8826236539685797  0.3248102265344456  0.8314326505397956  1.0000
  O   O10       1.0  0.6174744787143496  0.8247766199565446  0.16859032560546436  1.0000
  O   O11       1.0  0.1173938855781955  0.6751894993709017  0.16856810825628088  1.0000
  O   O12       1.0  0.38253375609421175  0.1752147962928774  0.8314088076833098  1.0000
