data_image0
_chemical_formula_structural       Zr6H50C62O36
_chemical_formula_sum              "Zr6 H50 C62 O36"
_cell_length_a       14.767340445991177
_cell_length_b       14.769443835023077
_cell_length_c       14.772927895365646
_cell_angle_alpha    60.42372565103993
_cell_angle_beta     59.913191977335664
_cell_angle_gamma    60.12617250532703

_space_group_name_H-M_alt    "P 1"
_space_group_IT_number       1

loop_
  _space_group_symop_operation_xyz
  'x, y, z'

loop_
  _atom_site_type_symbol
  _atom_site_label
  _atom_site_symmetry_multiplicity
  _atom_site_fract_x
  _atom_site_fract_y
  _atom_site_fract_z
  _atom_site_occupancy
  Zr  Zr1       1.0  0.8794207062200242  0.882546681398814  0.6162725108064252  1.0000
  Zr  Zr2       1.0  0.12249681302658635  0.117038548687944  0.38220770136704374  1.0000
  Zr  Zr3       1.0  0.11840173527022559  0.8805014056668341  0.6197658932655514  1.0000
  Zr  Zr4       1.0  0.8826361842738566  0.12061613150768827  0.37879275037164467  1.0000
  Zr  Zr5       1.0  0.1203909674451609  0.8808089660036842  0.3788943251350859  1.0000
  Zr  Zr6       1.0  0.8800349278571175  0.11975374759065012  0.6195220027977655  1.0000
  H   H1        1.0  0.09271349180458073  0.718474709454398  0.5906535795058546  1.0000
  H   H2        1.0  0.09883525919939018  0.09175060549583954  0.217244552731124  1.0000
  H   H3        1.0  0.09316400265683464  0.0920944177104417  0.5972682470739699  1.0000
  H   H4        1.0  0.7179120183396892  0.09695052769428243  0.5915532855686081  1.0000
  H   H5        1.0  0.16750852709207445  0.5451022817938735  0.4249865330931117  1.0000
  H   H6        1.0  0.8263109820589561  0.46457248463732265  0.561573548210113  1.0000
  H   H7        1.0  0.6366090116077602  0.08130726410233531  0.9516896314812088  1.0000
  H   H8        1.0  0.37411175380295  0.9049753961140822  0.05710380132014582  1.0000
  H   H9        1.0  0.8625735320371105  0.14119845330375105  0.09060692120910119  1.0000
  H   H10       1.0  0.12225213588170204  0.8481260828992204  0.9216837554035778  1.0000
  H   H11       1.0  0.6007619212650539  0.41550902219874797  0.352884282749109  1.0000
  H   H12       1.0  0.4141357938600548  0.5995686614707694  0.6318835867392921  1.0000
  H   H13       1.0  0.7396136834913563  0.63442033264824  0.9701436250404001  1.0000
  H   H14       1.0  0.8228754243173881  0.549377230875777  0.884002790237723  1.0000
  H   H15       1.0  0.8251574095239748  0.3788105472643507  0.05376495457943531  1.0000
  H   H16       1.0  0.7415407662405613  0.4637399423568169  0.13997529456821678  1.0000
  H   H17       1.0  0.5964231264630514  0.8607344870809965  0.6331301789138523  1.0000
  H   H18       1.0  0.4103852934394681  0.13364582596545205  0.35983935576828685  1.0000
  H   H19       1.0  0.22795066204017192  0.26310742723715924  0.4730714455338756  1.0000
  H   H20       1.0  0.2355478539131325  0.3446201781130257  0.33534446774563537  1.0000
  H   H21       1.0  0.28036821936755973  0.3741300928551042  0.40668753640599686  1.0000
  H   H22       1.0  0.7132239493697341  0.6365733866977267  0.5806405519371652  1.0000
  H   H23       1.0  0.7594589675087277  0.6642289733216488  0.6522492475519854  1.0000
  H   H24       1.0  0.7673150247129574  0.7464340392100793  0.5150135274401819  1.0000
  H   H25       1.0  0.41296129077316135  0.18532503209320342  0.13031115498722562  1.0000
  H   H26       1.0  0.4487782739792152  0.05729063141004076  0.23198123365538248  1.0000
  H   H27       1.0  0.5553097045564925  0.1108394643517839  0.11917823961135807  1.0000
  H   H28       1.0  0.5452858243064113  0.9401079485645027  0.7771865416323536  1.0000
  H   H29       1.0  0.6059537216061416  0.8106730672396836  0.86152673377444  1.0000
  H   H30       1.0  0.4586979919126365  0.8658745410818229  0.8964410705612593  1.0000
  H   H31       1.0  0.773851687126907  0.23689154983320287  0.9672757330733432  1.0000
  H   H32       1.0  0.8554132307191152  0.23352978310204958  0.8291643039454046  1.0000
  H   H33       1.0  0.7633066887637908  0.1586017766932032  0.9139363814086393  1.0000
  H   H34       1.0  0.22613374889206733  0.8294432817244228  0.09103380990678281  1.0000
  H   H35       1.0  0.12898993799666428  0.7610163779540854  0.18492085128587385  1.0000
  H   H36       1.0  0.20447693490027757  0.7485489026394704  0.04962682181508176  1.0000
  H   H37       1.0  0.48242148853619676  0.5368017701547246  0.2589224664819412  1.0000
  H   H38       1.0  0.3414757078768319  0.5893573439699723  0.3401857978470702  1.0000
  H   H39       1.0  0.42221845462416485  0.6759174600874117  0.2592818227486617  1.0000
  H   H40       1.0  0.5357200969677933  0.4821340181768576  0.7221545534714907  1.0000
  H   H41       1.0  0.5842023913258388  0.3419406040498957  0.7302214652282262  1.0000
  H   H42       1.0  0.6752174586768406  0.4178273127052492  0.6455815596941294  1.0000
  H   H43       1.0  0.4776543101838655  0.7661606253268474  0.7262367724084912  1.0000
  H   H44       1.0  0.33700131663530886  0.8450960465353318  0.7328393350444032  1.0000
  H   H45       1.0  0.4198435697921922  0.762026460023627  0.6478589025682667  1.0000
  H   H46       1.0  0.5320187314150147  0.22480999795782  0.2637371436915785  1.0000
  H   H47       1.0  0.5863260547776291  0.23240119441570087  0.3430835084703433  1.0000
  H   H48       1.0  0.6720836280406247  0.14644592276187027  0.2606374664183024  1.0000
  H   H49       1.0  0.09965343149373503  0.48158367575369715  0.1905656379850101  1.0000
  H   H50       1.0  0.2589553503262677  0.5233884053370446  0.8096705051507271  1.0000
  C   C1        1.0  0.9926644280901441  0.7023510098776028  0.49351518114927717  1.0000
  C   C2        1.0  0.3114620782441046  0.9949041265554259  0.2016851829433222  1.0000
  C   C3        1.0  0.0018547080703897776  0.3048987297459149  0.49732097271692777  1.0000
  C   C4        1.0  0.6966077445247406  0.9958163959783238  0.8044465756726996  1.0000
  C   C5        1.0  0.9948354050550988  0.7017217185725926  0.8067557324901673  1.0000
  C   C6        1.0  0.6993694318827507  0.002736906938501777  0.4904801400153077  1.0000
  C   C7        1.0  0.9995347237522981  0.30630727832581056  0.2005382519510235  1.0000
  C   C8        1.0  0.30756564014433985  0.9917245910230719  0.5023803122797618  1.0000
  C   C9        1.0  0.3080473953836744  0.6999384538389889  0.4925076010930668  1.0000
  C   C10       1.0  0.9905926166518026  0.999236495934028  0.8088078141370615  1.0000
  C   C11       1.0  0.7014982766623137  0.3099071318185621  0.4971550360959327  1.0000
  C   C12       1.0  0.9997295721452488  0.9947426675797361  0.198109761171253  1.0000
  C   C13       1.0  0.0036217072103922362  0.4065680770038399  0.49438932811094116  1.0000
  C   C14       1.0  0.9901846428429837  0.6027386890539433  0.4929575279073648  1.0000
  C   C15       1.0  0.10341884942141624  0.4267623707911314  0.45450013790228644  1.0000
  C   C16       1.0  0.8905365267324469  0.582586946272052  0.5325363336475704  1.0000
  C   C17       1.0  0.0928458978528751  0.5260485348249802  0.45469873114284104  1.0000
  C   C18       1.0  0.9009400284599992  0.4836017235509687  0.531986691687692  1.0000
  C   C19       1.0  0.4139450730283444  0.9946290338135954  0.10200871368452634  1.0000
  C   C20       1.0  0.5964951658450773  0.9924093198777442  0.9064336760106857  1.0000
  C   C21       1.0  0.4875213062806125  0.04607547786873306  0.07466700894308084  1.0000
  C   C22       1.0  0.5230348917539943  0.9405674404772454  0.9340017883885564  1.0000
  C   C23       1.0  0.5774841717009166  0.042890289596577785  0.9762938035351569  1.0000
  C   C24       1.0  0.43340999355251597  0.9432025968619586  0.03255551546414655  1.0000
  C   C25       1.0  0.9874005645213232  0.0008320669030793352  0.9107355512930798  1.0000
  C   C26       1.0  0.9993166749689946  0.9902407605912913  0.09951474524088151  1.0000
  C   C27       1.0  0.9102955629102993  0.08612858010258871  0.9579572303365469  1.0000
  C   C28       1.0  0.07528847106384964  0.9042722785995281  0.05316822461679761  1.0000
  C   C29       1.0  0.9195668255576379  0.07734442474475131  0.05166146115022495  1.0000
  C   C30       1.0  0.06635844694847755  0.9131259057084692  0.9591070057919995  1.0000
  C   C31       1.0  0.4118167406807344  0.6014498596014166  0.48759387953400357  1.0000
  C   C32       1.0  0.6019007591634918  0.41260621494080857  0.49807916653585255  1.0000
  C   C33       1.0  0.4639583181498568  0.5510823554312124  0.40523164001280787  1.0000
  C   C34       1.0  0.550469713953163  0.46376086777402753  0.5797042780865951  1.0000
  C   C35       1.0  0.5581740849261791  0.4575170471172853  0.41391734849622014  1.0000
  C   C36       1.0  0.4564265140850311  0.5576203683033255  0.5708466478353955  1.0000
  C   C37       1.0  0.9958406143282303  0.6031712166535358  0.9087115175628714  1.0000
  C   C38       1.0  0.9986496121069807  0.40823751300165856  0.10210817970720845  1.0000
  C   C39       1.0  0.9152126189948644  0.5535835837791367  0.961615603634151  1.0000
  C   C40       1.0  0.08189143932189316  0.4572111942551444  0.04975845618798053  1.0000
  C   C41       1.0  0.916283786079589  0.4596250929650479  0.05536463821940864  1.0000
  C   C42       1.0  0.07996018702791484  0.5531453769602236  0.9558461848885784  1.0000
  C   C43       1.0  0.8113155661325562  0.5599611459586386  0.9580916923139358  1.0000
  C   C44       1.0  0.8125782837874383  0.4533232484872442  0.06433126671738164  1.0000
  C   C45       1.0  0.40902450945402785  0.9899710134978363  0.5032393604155916  1.0000
  C   C46       1.0  0.5986401041230422  0.0035604808525489936  0.48895082436207116  1.0000
  C   C47       1.0  0.4602908494520007  0.9096793612319942  0.5836287418706332  1.0000
  C   C48       1.0  0.5473963423283691  0.08362977068302516  0.4085202449536141  1.0000
  C   C49       1.0  0.5541990971379605  0.9202159456368622  0.5731668484018684  1.0000
  C   C50       1.0  0.4530325111858602  0.07368937567358103  0.4193605358835131  1.0000
  C   C51       1.0  0.21778945982649842  0.3479709097425357  0.41548184347364986  1.0000
  C   C52       1.0  0.7766395612339211  0.6614741725697116  0.5719968658230246  1.0000
  C   C53       1.0  0.47570556311085727  0.10239998581254624  0.1432322198415505  1.0000
  C   C54       1.0  0.533608921800507  0.8865872999992844  0.8636947151809622  1.0000
  C   C55       1.0  0.8210398737930686  0.1840754553288519  0.9149057314681458  1.0000
  C   C56       1.0  0.163505713211343  0.8052194871738579  0.09690368770319684  1.0000
  C   C57       1.0  0.42575793608376233  0.5902409428469966  0.3107786863105275  1.0000
  C   C58       1.0  0.588276612754214  0.42474847042795  0.6743759602108669  1.0000
  C   C59       1.0  0.4218438269686829  0.815831185413522  0.6775721678064954  1.0000
  C   C60       1.0  0.58637406589299  0.17690138247824175  0.3138363145732016  1.0000
  C   C61       1.0  0.18217355421039363  0.4032637856503598  0.08551619619134951  1.0000
  C   C62       1.0  0.16749339253173903  0.6032526833891225  0.9136815190190578  1.0000
  O   O1        1.0  0.9168174876004258  0.7420358610738945  0.5712483859238022  1.0000
  O   O2        1.0  0.2696369858971082  0.07158600861945529  0.24260219049677537  1.0000
  O   O3        1.0  0.07926973193723796  0.2626813077652059  0.4219182230601035  1.0000
  O   O4        1.0  0.737801257337374  0.9204818266648332  0.7617129282323419  1.0000
  O   O5        1.0  0.07295285592132202  0.7402793204997027  0.7654722988998942  1.0000
  O   O6        1.0  0.7400166999318358  0.07932472931696569  0.41621657223079483  1.0000
  O   O7        1.0  0.9230903957178356  0.26739898357018177  0.23664565951428077  1.0000
  O   O8        1.0  0.2647825331560723  0.9171846065162158  0.5784425780256157  1.0000
  O   O9        1.0  0.2654272584000594  0.7393208492803397  0.4182397301659365  1.0000
  O   O10       1.0  0.915668978923769  0.075796401974955  0.7665174092671734  1.0000
  O   O11       1.0  0.7406933745440298  0.2667851407802431  0.5748836403514661  1.0000
  O   O12       1.0  0.07692851143517747  0.9205198726068247  0.23787660816569914  1.0000
  O   O13       1.0  0.06874717028720312  0.9229023241652853  0.7684893735155641  1.0000
  O   O14       1.0  0.7403981304410294  0.2704847694036444  0.41987031812849557  1.0000
  O   O15       1.0  0.924030369765184  0.07369233932928408  0.23604652435955142  1.0000
  O   O16       1.0  0.2671387408755733  0.7372407200499821  0.5717816369018608  1.0000
  O   O17       1.0  0.9187753067504261  0.7375485763833821  0.7681276388342868  1.0000
  O   O18       1.0  0.2686210436495884  0.06908828469241977  0.42581765700409596  1.0000
  O   O19       1.0  0.07638216774606822  0.2662655301650645  0.23966055413894347  1.0000
  O   O20       1.0  0.7379751758768551  0.9258281323014325  0.5674430025685738  1.0000
  O   O21       1.0  0.7348912351102257  0.0732304607074282  0.7664094217044451  1.0000
  O   O22       1.0  0.07243645326501995  0.7385614719089375  0.41882292396706333  1.0000
  O   O23       1.0  0.2700421527437695  0.9201183219520744  0.23802644647454238  1.0000
  O   O24       1.0  0.9232305474200118  0.267816529996004  0.5739418437781297  1.0000
  O   O25       1.0  0.798354585033991  0.06927318044480293  0.5650410733473308  1.0000
  O   O26       1.0  0.06693290170775158  0.0663831110615902  0.5687758552773232  1.0000
  O   O27       1.0  0.06994606423714336  0.06734937053716558  0.29743348091098915  1.0000
  O   O28       1.0  0.06581276164978073  0.798463049255105  0.5662300273431813  1.0000
  O   O29       1.0  0.14933735883991492  0.9492550325295429  0.45094289802781184  1.0000
  O   O30       1.0  0.9508922901202728  0.9517627956699355  0.44800772617428947  1.0000
  O   O31       1.0  0.9522355745181769  0.14881522641802292  0.4500791419448192  1.0000
  O   O32       1.0  0.9491795749830132  0.9508211627679231  0.6478377899474099  1.0000
  O   O33       1.0  0.17470033769659915  0.4326479550229507  0.16328885667088852  1.0000
  O   O34       1.0  0.2693382234004885  0.3429715493122529  0.04023623727391622  1.0000
  O   O35       1.0  0.26346652822719097  0.5720830169367164  0.8329261366091887  1.0000
  O   O36       1.0  0.15749193211577503  0.6611047618504174  0.9569591025368425  1.0000
