data_image0
_chemical_formula_structural       Zn2H12C19N2O18
_chemical_formula_sum              "Zn2 H12 C19 N2 O18"
_cell_length_a       9.773852583170713
_cell_length_b       10.918284149252688
_cell_length_c       11.168889831522236
_cell_angle_alpha    92.52592738812567
_cell_angle_beta     84.61129886436431
_cell_angle_gamma    88.20488777961202

_space_group_name_H-M_alt    "P 1"
_space_group_IT_number       1

loop_
  _space_group_symop_operation_xyz
  'x, y, z'

loop_
  _atom_site_type_symbol
  _atom_site_label
  _atom_site_symmetry_multiplicity
  _atom_site_fract_x
  _atom_site_fract_y
  _atom_site_fract_z
  _atom_site_occupancy
  Zn  Zn1       1.0  0.6281139001424663  0.5022236611575579  0.4720691188773357  1.0000
  Zn  Zn2       1.0  0.34150223617186976  0.486854863741442  0.4875237211126161  1.0000
  H   H1        1.0  0.3320620638418745  0.40627234195537915  0.1077610709857311  1.0000
  H   H2        1.0  0.8798918463351201  0.42352643391277667  0.4851015028297637  1.0000
  H   H3        1.0  0.14241752313534303  0.5836340328617453  0.3312061858254295  1.0000
  H   H4        1.0  0.06740888286654469  0.4658684373290214  0.5584404559010989  1.0000
  H   H5        1.0  0.32478722476898264  0.184179121359108  0.7726566533051836  1.0000
  H   H6        1.0  0.1970951340833337  0.1955895446032585  0.2640248625811593  1.0000
  H   H7        1.0  0.5618790442942654  0.7619154413552849  0.898526299526665  1.0000
  H   H8        1.0  0.3226355719706788  0.8776607302933853  0.38347917672091103  1.0000
  H   H9        1.0  0.8244744901918538  0.056074850857072506  0.5121904472861017  1.0000
  H   H10       1.0  0.7901160277804349  0.8512235499132501  0.3771592457159513  1.0000
  H   H11       1.0  0.6116035557132165  0.5309439160531042  0.07647024457747156  1.0000
  H   H12       1.0  0.5295529368877396  0.9079387195669  0.5742352047920674  1.0000
  C   C1        1.0  0.5174413990647365  0.2578723737145552  0.4409559373751291  1.0000
  C   C2        1.0  0.39475386863443157  0.9262788726908371  0.4358848539211022  1.0000
  C   C3        1.0  0.4211912874335796  0.4417805115725955  0.05570874831783359  1.0000
  C   C4        1.0  0.5140493557748158  0.499810341736513  0.11742069037225628  1.0000
  C   C5        1.0  0.46118738060331316  0.8633325607866951  0.515240478698388  1.0000
  C   C6        1.0  0.4253536970552291  0.41463560365735924  0.9264615467846509  1.0000
  C   C7        1.0  0.40739972272941566  0.0570662519946055  0.4213570835310917  1.0000
  C   C8        1.0  0.47961193297287236  0.46619699657967584  0.7062223350830549  1.0000
  C   C9        1.0  0.4876940634556846  0.48293669672244754  0.840045055144486  1.0000
  C   C10       1.0  0.5239535404463566  0.12012633867888672  0.43175398316815006  1.0000
  C   C11       1.0  0.9262407523638244  0.5766773725980485  0.41193076647140703  1.0000
  C   C12       1.0  0.0764381734461352  0.5497753781630976  0.40652565422719517  1.0000
  C   C13       1.0  0.3420558846253953  0.30694205713366063  0.8945575979859651  1.0000
  C   C14       1.0  0.27461484787484375  0.1211807935072926  0.39455895972845667  1.0000
  C   C15       1.0  0.5735578601858649  0.5904091879578389  0.8681466555695464  1.0000
  C   C16       1.0  0.6617427767827238  0.0568243939012447  0.43106248091282123  1.0000
  C   C17       1.0  0.8857309836411102  0.69029868013385  0.3479589855633589  1.0000
  C   C18       1.0  0.4562121205556692  0.7278548984998138  0.5183759013597252  1.0000
  C   C19       1.0  0.4931057349058888  0.513471422441853  0.2503060289650562  1.0000
  N   N1        1.0  0.8374020995199699  0.5040695159323362  0.4582432603965073  1.0000
  N   N2        1.0  0.13272819517605677  0.49208398820536564  0.48734488319512786  1.0000
  O   O1        1.0  0.6270580339654471  0.3144256205789092  0.4161383709209119  1.0000
  O   O2        1.0  0.5967635085256616  0.5486214409048387  0.3034844114424401  1.0000
  O   O3        1.0  0.566223130889604  0.6744183146598034  0.5455516608813866  1.0000
  O   O4        1.0  0.34819131303307665  0.6762136772027603  0.4903140718589042  1.0000
  O   O5        1.0  0.3768877608950731  0.4874256406644193  0.3031865097563723  1.0000
  O   O6        1.0  0.24332867191264995  0.2728318283303466  0.9584622048316473  1.0000
  O   O7        1.0  0.3897005317531351  0.2482769212907813  0.7883769303242685  1.0000
  O   O8        1.0  0.16724226767629347  0.12293306710938619  0.46019386769842174  1.0000
  O   O9        1.0  0.5930447956163434  0.4424432058215472  0.6437439309796389  1.0000
  O   O10       1.0  0.2867488003553049  0.1612543956082106  0.2811667304592617  1.0000
  O   O11       1.0  0.6977169899149301  0.5827842955170227  0.87133240372259  1.0000
  O   O12       1.0  0.49764822881567017  0.6968726243194326  0.8834980888458543  1.0000
  O   O13       1.0  0.709068971355336  0.9803085141805  0.35213747269774126  1.0000
  O   O14       1.0  0.731663753152297  0.094532000604886  0.5233668127228694  1.0000
  O   O15       1.0  0.9201240095134366  0.6906123636858085  0.24003838662690666  1.0000
  O   O16       1.0  0.8212653860379431  0.7766520883993306  0.4201715060818997  1.0000
  O   O17       1.0  0.39869397131850065  0.30505078668984  0.47530026037222217  1.0000
  O   O18       1.0  0.36299126182110086  0.48807870817603316  0.6693081258403024  1.0000
