data_image0
_chemical_formula_structural       Ag4H48C48N12O8
_chemical_formula_sum              "Ag4 H48 C48 N12 O8"
_cell_length_a       8.012716596
_cell_length_b       8.770834080693989
_cell_length_c       17.15
_cell_angle_alpha    90.0
_cell_angle_beta     90.0
_cell_angle_gamma    98.16931992720791

_space_group_name_H-M_alt    "P 1"
_space_group_IT_number       1

loop_
  _space_group_symop_operation_xyz
  'x, y, z'

loop_
  _atom_site_type_symbol
  _atom_site_label
  _atom_site_symmetry_multiplicity
  _atom_site_fract_x
  _atom_site_fract_y
  _atom_site_fract_z
  _atom_site_occupancy
  Ag  Ag1       1.0  0.6537992424635206  0.8726914149234659  0.5410367346938756  1.0000
  Ag  Ag2       1.0  0.3462028952649447  0.6273123208665226  0.0410390670553937  1.0000
  Ag  Ag3       1.0  0.3462031542737164  0.1273083879983048  0.4589615160349823  1.0000
  Ag  Ag4       1.0  0.6537950468869055  0.3726909375472474  0.9589644314868834  1.0000
  H   H1        1.0  0.06669022875205141  0.9083336630458234  0.5495096209912518  1.0000
  H   H2        1.0  0.9333065524898246  0.5916597062681745  0.0495113702623939  1.0000
  H   H3        1.0  0.9333043215685137  0.0916638362146216  0.450486297376095  1.0000
  H   H4        1.0  0.066690846080391  0.4083320338389385  0.9504857142857119  1.0000
  H   H5        1.0  0.23979486843413866  0.0838210212112216  0.774231486880467  1.0000
  H   H6        1.0  0.76020475380016  0.4161713933503393  0.2742344023323611  1.0000
  H   H7        1.0  0.7602035989924759  0.916169567065225  0.22576618075801488  1.0000
  H   H8        1.0  0.23978908598356702  0.583829561402105  0.7257655976676389  1.0000
  H   H9        1.0  0.943003307174969  0.1332783263391235  0.801672886297375  1.0000
  H   H10       1.0  0.0569986441364989  0.3667290620210935  0.3016758017492691  1.0000
  H   H11       1.0  0.05699213284221832  0.8667168692599887  0.1983259475218659  1.0000
  H   H12       1.0  0.9429978708393776  0.6332730445620101  0.69832536443149  1.0000
  H   H13       1.0  0.721399359979138  0.058193940727953496  0.7009311953352793  1.0000
  H   H14       1.0  0.2786008058367955  0.4418099921402643  0.2009341107871734  1.0000
  H   H15       1.0  0.2785969697346715  0.9417989512098259  0.2990664723032097  1.0000
  H   H16       1.0  0.721391248451397  0.5581875071201807  0.7990658892128266  1.0000
  H   H17       1.0  0.8238966438029107  0.3366777999505075  0.45040816326530825  1.0000
  H   H18       1.0  0.1761015573577112  0.1633215255950518  0.9504064139941663  1.0000
  H   H19       1.0  0.1761011130868653  0.6633162438179383  0.5495947521865858  1.0000
  H   H20       1.0  0.823898701666728  0.8366805809880518  0.0495935860058339  1.0000
  H   H21       1.0  0.7048937751581903  0.1855887160261958  0.5667189504373198  1.0000
  H   H22       1.0  0.2951040737851542  0.3144163686726884  0.0667160349854257  1.0000
  H   H23       1.0  0.29510559416961973  0.8144156942182406  0.4332868804664756  1.0000
  H   H24       1.0  0.7048924411907294  0.6855857379104151  0.9332839650145744  1.0000
  H   H25       1.0  0.575691044064932  0.3221221158268577  0.6746664723032083  1.0000
  H   H26       1.0  0.42430876953373087  0.1778875761946921  0.1746653061224492  1.0000
  H   H27       1.0  0.42431011075841246  0.6778857499095778  0.325338775510204  1.0000
  H   H28       1.0  0.5756923852896136  0.8221202895417433  0.8253358600583098  1.0000
  H   H29       1.0  0.7169978009755411  0.6798784169614009  0.3917358600583114  1.0000
  H   H30       1.0  0.2830034409540119  0.8201195596752555  0.8917370262390705  1.0000
  H   H31       1.0  0.2830013830902018  0.3201167786377042  0.6082647230320717  1.0000
  H   H32       1.0  0.7170019892949426  0.1798836987385144  0.1082653061224477  1.0000
  H   H33       1.0  0.8978263299440313  0.5824542755871462  0.3874483965014548  1.0000
  H   H34       1.0  0.10217491198552153  0.9175437010495173  0.887450145772597  1.0000
  H   H35       1.0  0.10217142694574481  0.4175397681812996  0.6125516034985452  1.0000
  H   H36       1.0  0.897831587119839  0.0824584055335862  0.1125492711370271  1.0000
  H   H37       1.0  0.9000950547130273  0.7504268934106761  0.4456466472303191  1.0000
  H   H38       1.0  0.09990529751991063  0.7495733868873202  0.9456489795918372  1.0000
  H   H39       1.0  0.0999028813365328  0.24956830218843606  0.5543527696792978  1.0000
  H   H40       1.0  0.900099953569267  0.2504287196957833  0.0543516034985387  1.0000
  H   H41       1.0  0.5344658032144238  0.732170377357825  0.6678752186588923  1.0000
  H   H42       1.0  0.4655308110722416  0.7678379657548291  0.1678775510204105  1.0000
  H   H43       1.0  0.46553267641676405  0.2678363365479441  0.3321241982507317  1.0000
  H   H44       1.0  0.5344689165751362  0.23216874815093996  0.8321236151603486  1.0000
  H   H45       1.0  0.4982787216939287  0.5564885568881337  0.7200833819241979  1.0000
  H   H46       1.0  0.5017194989284874  0.9435220898858533  0.220086297376092  1.0000
  H   H47       1.0  0.5017197579372592  0.4435181570176354  0.2799172011661781  1.0000
  H   H48       1.0  0.4982830830708237  0.0564869276812487  0.7799160349854262  1.0000
  C   C1        1.0  0.043018315152224304  0.9574650000953043  0.6062658892128283  1.0000
  C   C2        1.0  0.9569754386802244  0.5425329765413593  0.1062664723032043  1.0000
  C   C3        1.0  0.9569785520409299  0.0425313473344744  0.3937323615160366  1.0000
  C   C4        1.0  0.04302142851292961  0.4574633708884122  0.8937306122449015  1.0000
  C   C5        1.0  0.17562064825535373  0.99266840073399  0.6592577259475192  1.0000
  C   C6        1.0  0.8243798709327876  0.5073169057653502  0.1592612244897964  1.0000
  C   C7        1.0  0.8243751378768207  0.007312972897132399  0.3407405247813386  1.0000
  C   C8        1.0  0.17561860259611714  0.4926817453257613  0.8407399416909627  1.0000
  C   C9        1.0  0.1398984010236575  0.0556806462151869  0.7313300291545204  1.0000
  C   C10       1.0  0.8601067507547312  0.4443152238383661  0.2313329446064145  1.0000
  C   C11       1.0  0.8600952534980024  0.9443110938919262  0.2686658892128264  1.0000
  C   C12       1.0  0.1399006380472514  0.5556845790834046  0.7686653061224504  1.0000
  C   C13       1.0  0.9761282521042033  0.0827624888293599  0.7467498542274029  1.0000
  C   C14       1.0  0.02387868516971281  0.4172368367161994  0.2467562682215743  1.0000
  C   C15       1.0  0.02388537067641752  0.9172292512777531  0.2532460641399439  1.0000
  C   C16       1.0  0.9761046330051784  0.5827606625442455  0.7532443148688017  1.0000
  C   C17       1.0  0.8519809530118039  0.0427190957329984  0.6906198250728863  1.0000
  C   C18       1.0  0.14802241937334062  0.4572813816432202  0.1906215743440214  1.0000
  C   C19       1.0  0.14800753028532654  0.9572714925434482  0.3093760932944605  1.0000
  C   C20       1.0  0.8519869279816703  0.5427149657865584  0.8093760932944605  1.0000
  C   C21       1.0  0.3500785842482088  0.9609608061659856  0.6387690962099128  1.0000
  C   C22       1.0  0.6499256850907714  0.5390325631480124  0.1387655976676356  1.0000
  C   C23       1.0  0.6499243438660897  0.0390343894331195  0.3612320699708462  1.0000
  C   C24       1.0  0.3500758219498508  0.46096954343509816  0.861227988338193  1.0000
  C   C25       1.0  0.7543422454688766  0.5487413438299953  0.49392827988338445  1.0000
  C   C26       1.0  0.24565775454678374  0.951264695621326  0.9939300291545194  1.0000
  C   C27       1.0  0.24565480088406133  0.4512561554304497  0.5060734693877578  1.0000
  C   C28       1.0  0.7543448274525275  0.0487443219457759  0.0060728862973747  1.0000
  C   C29       1.0  0.7656404097186851  0.3923930010856651  0.4978314868804646  1.0000
  C   C30       1.0  0.23435850808105843  0.1076109317825527  0.9978309037900885  1.0000
  C   C31       1.0  0.23435592609740752  0.607607953666772  0.5021714285714296  1.0000
  C   C32       1.0  0.765638186054602  0.8923923266312173  0.0021690962099115  1.0000
  C   C33       1.0  0.6992630906396542  0.3088011941769366  0.5631008746355661  1.0000
  C   C34       1.0  0.300739571208652  0.1912027386912811  0.0631020408163252  1.0000
  C   C35       1.0  0.3007400166344283  0.691195153252842  0.436902623906704  1.0000
  C   C36       1.0  0.6992601564387257  0.808803975214488  0.9369014577259449  1.0000
  C   C37       1.0  0.6265176185953436  0.3827233826463186  0.6224938775510225  1.0000
  C   C38       1.0  0.37347630713966135  0.1172805502218992  0.1224938775510225  1.0000
  C   C39       1.0  0.37348086103584427  0.6172833312594506  0.37750845481049566  1.0000
  C   C40       1.0  0.6265187806602484  0.8827204045305379  0.8775049562682185  1.0000
  C   C41       1.0  0.6168248183973759  0.5422116157856038  0.6149807580174951  1.0000
  C   C42       1.0  0.38317536077806846  0.9577955754963839  0.1149790087463529  1.0000
  C   C43       1.0  0.383176867803023  0.4577916426281661  0.3850239067055412  1.0000
  C   C44       1.0  0.6168252626682218  0.0422168975627102  0.8850209912536471  1.0000
  C   C45       1.0  0.821483796092167  0.6447003565973617  0.4257475218658868  1.0000
  C   C46       1.0  0.1785160186614263  0.8552964682086284  0.9257481049562699  1.0000
  C   C47       1.0  0.1785155671333598  0.3552959908324098  0.5742530612244892  1.0000
  C   C48       1.0  0.8214911909807795  0.1447021828824759  0.0742518950437301  1.0000
  N   N1        1.0  0.6798323130968242  0.6220311772638567  0.5511516034985391  1.0000
  N   N2        1.0  0.3201657222635248  0.8779702548648061  0.0511533527696812  1.0000
  N   N3        1.0  0.32016633959186447  0.3779686256579211  0.4488466472303188  1.0000
  N   N4        1.0  0.6798347159206913  0.12203300354896382  0.9488472303207018  1.0000
  N   N5        1.0  0.5448558089312102  0.6175712889258946  0.6719481049562717  1.0000
  N   N6        1.0  0.4551425847486996  0.8824324468640938  0.1719504373177827  1.0000
  N   N7        1.0  0.4551480149819938  0.3824296658265425  0.3280489795918342  1.0000
  N   N8        1.0  0.5448598119885446  0.117567356057684  0.8280507288629764  1.0000
  N   N9        1.0  0.8839469561399725  0.980318472335334  0.6214046647230305  1.0000
  N   N10       1.0  0.1160639115994968  0.5196772006399897  0.1214081632653077  1.0000
  N   N11       1.0  0.11605953686309789  0.0196755714331047  0.3785918367346923  1.0000
  N   N12       1.0  0.8839327764338734  0.4803179949591154  0.8785906705539333  1.0000
  O   O1        1.0  0.3890167746615063  0.9610736855712362  0.5665527696792978  1.0000
  O   O2        1.0  0.6109862527635811  0.5389277465574196  0.06655451895044  1.0000
  O   O3        1.0  0.6109891930667998  0.038933028334533  0.4334448979591841  1.0000
  O   O4        1.0  0.3890125851871744  0.4610812710096752  0.933446064139943  1.0000
  O   O5        1.0  0.44656528169271326  0.9325497509634956  0.6938728862973775  1.0000
  O   O6        1.0  0.5534309681721012  0.5674482256731679  0.1938763848396476  1.0000
  O   O7        1.0  0.5534281997714529  0.0674489001276157  0.3061265306122465  1.0000
  O   O8        1.0  0.4465684011557087  0.4325561845712684  0.8061265306122465  1.0000
