data_image0
_chemical_formula_structural       Mg6H36C51N12O24
_chemical_formula_sum              "Mg6 H36 C51 N12 O24"
_cell_length_a       6.937166748531119
_cell_length_b       32.64124137362524
_cell_length_c       32.63650069429215
_cell_angle_alpha    119.51271418115805
_cell_angle_beta     94.05727798262144
_cell_angle_gamma    94.07260157054215

_space_group_name_H-M_alt    "P 1"
_space_group_IT_number       1

loop_
  _space_group_symop_operation_xyz
  'x, y, z'

loop_
  _atom_site_type_symbol
  _atom_site_label
  _atom_site_symmetry_multiplicity
  _atom_site_fract_x
  _atom_site_fract_y
  _atom_site_fract_z
  _atom_site_occupancy
  Mg  Mg1       1.0  0.28203847506949137  0.669931324108383  0.30273533536535535  1.0000
  Mg  Mg2       1.0  0.6880703138991818  0.33012974784312393  0.6968193657859133  1.0000
  Mg  Mg3       1.0  0.9791946073119319  0.6973333425948879  0.3673009657515749  1.0000
  Mg  Mg4       1.0  0.9909735664069358  0.30310312474662027  0.6332123608354152  1.0000
  Mg  Mg5       1.0  0.612251600827335  0.632778349918027  0.33010998317635654  1.0000
  Mg  Mg6       1.0  0.357889813208608  0.36667807396332114  0.6697623634046367  1.0000
  H   H1        1.0  0.9318532615071433  0.1914874554625356  0.6116069858347758  1.0000
  H   H2        1.0  0.9398041609806  0.1136622084641772  0.5656974905274839  1.0000
  H   H3        1.0  0.009936309100964996  0.0407411053458588  0.5364178649615639  1.0000
  H   H4        1.0  0.7501762713467384  0.9743952154632183  0.4487234621156304  1.0000
  H   H5        1.0  0.8204599771322236  0.9576775690984649  0.4916663395732005  1.0000
  H   H6        1.0  0.1014485864620625  0.9758129667549653  0.4369015107918914  1.0000
  H   H7        1.0  0.3432409423038719  0.9304405037800976  0.42621746998577953  1.0000
  H   H8        1.0  0.056202328384919994  0.8137888611345687  0.3804667431267036  1.0000
  H   H9        1.0  0.7709050172733639  0.8277727291428718  0.420241732150501  1.0000
  H   H10       1.0  0.6155280422995445  0.8996300456120919  0.4396235082148721  1.0000
  H   H11       1.0  0.4093776685014489  0.09946794776271158  0.5263666115001513  1.0000
  H   H12       1.0  0.227315594093497  0.170197855432761  0.5596576697427977  1.0000
  H   H13       1.0  0.3203973886298357  0.3883258295583687  0.5797854979346014  1.0000
  H   H14       1.0  0.37447141758407543  0.43428116643326586  0.5479298533387366  1.0000
  H   H15       1.0  0.4735705691143862  0.4635354764480652  0.5041893614566817  1.0000
  H   H16       1.0  0.30116698307021034  0.5511782772797033  0.5255796273066409  1.0000
  H   H17       1.0  0.3291650144235021  0.5083165743780853  0.46590607646546545  1.0000
  H   H18       1.0  0.6642739441579337  0.5632041424965167  0.5389954861736046  1.0000
  H   H19       1.0  0.9176347614138789  0.5737500660179293  0.5043196199229456  1.0000
  H   H20       1.0  0.6766250498528734  0.6195664190737773  0.4334958992919696  1.0000
  H   H21       1.0  0.35150295744185206  0.5799243316211149  0.40761865768573813  1.0000
  H   H22       1.0  0.1770139481035002  0.560492497241448  0.4600995037086193  1.0000
  H   H23       1.0  0.8835099587654439  0.4736644711550113  0.5731902529759909  1.0000
  H   H24       1.0  0.6681723728398054  0.44038990835323943  0.6106711887504943  1.0000
  H   H25       1.0  0.7407831607976405  0.4200500405745586  0.8084366371796747  1.0000
  H   H26       1.0  0.8266137602162046  0.4519400703354249  0.8862736972149108  1.0000
  H   H27       1.0  0.9694639766952449  0.49575587734982207  0.9592704222539653  1.0000
  H   H28       1.0  0.7756808741528687  0.4744033674415674  0.02555299609571901  1.0000
  H   H29       1.0  0.8629141631579315  0.534087940145298  0.04235077793499905  1.0000
  H   H30       1.0  0.12537269711851445  0.461126920706512  0.02421161947339806  1.0000
  H   H31       1.0  0.4129589352784251  0.4958398753532832  0.06948842408733918  1.0000
  H   H32       1.0  0.24280403608323547  0.5667484676534541  0.18618920561724653  1.0000
  H   H33       1.0  0.9436546233173004  0.5924108650796214  0.1722569453331886  1.0000
  H   H34       1.0  0.7163234361525143  0.5399984962244275  0.10038243207491608  1.0000
  H   H35       1.0  0.31030462951557075  0.42678791821774814  0.9004099972191144  1.0000
  H   H36       1.0  0.05749606570594067  0.3892790671848374  0.8296352843568044  1.0000
  C   C1        1.0  0.6767273887569942  0.22625280436844258  0.6191946061407452  1.0000
  C   C2        1.0  0.7757548567472625  0.18598895150995526  0.6002826972531778  1.0000
  C   C3        1.0  0.6825432852437103  0.1407132197722376  0.5674723373062704  1.0000
  C   C4        1.0  0.7481296025222973  0.0567008234917949  0.5156562690146131  1.0000
  C   C5        1.0  0.867226659382865  0.9791025593358568  0.47580161603467275  1.0000
  C   C6        1.0  0.08621888114351604  0.9179692850733403  0.4473490356223878  1.0000
  C   C7        1.0  0.32573931730414063  0.8613097328416046  0.4113572594902878  1.0000
  C   C8        1.0  0.21298320544472923  0.8171253590105964  0.38915333326534113  1.0000
  C   C9        1.0  0.30017720096023487  0.7751959082196721  0.3759679664968304  1.0000
  C   C10       1.0  0.5067442394914181  0.7796832430542366  0.3879671452591538  1.0000
  C   C11       1.0  0.6151361399870792  0.8248010636296926  0.410631480537866  1.0000
  C   C12       1.0  0.5282622091689716  0.8651048193978282  0.42169916785870504  1.0000
  C   C13       1.0  0.6159160825894147  0.7394630439243102  0.37799426998088853  1.0000
  C   C14       1.0  0.4809866107042708  0.1344047558235815  0.5526212758243645  1.0000
  C   C15       1.0  0.38197421856881425  0.1738361961823571  0.5713333163825496  1.0000
  C   C16       1.0  0.471561388847249  0.21997761385166115  0.6043588591164806  1.0000
  C   C17       1.0  0.3523269841724428  0.2592507886880142  0.620071648132722  1.0000
  C   C18       1.0  0.057835662273795656  0.3807599502586639  0.6070307788543304  1.0000
  C   C19       1.0  0.17573572222163134  0.39969045456931696  0.5856820953202018  1.0000
  C   C20       1.0  0.11546828270789435  0.43254674161833156  0.5732737831326419  1.0000
  C   C21       1.0  0.2328956460910517  0.48434159538577143  0.5410706258082101  1.0000
  C   C22       1.0  0.39141923962179687  0.5241702189476172  0.5032270266947664  1.0000
  C   C23       1.0  0.6394672316386263  0.5526755618937926  0.47065854900870363  1.0000
  C   C24       1.0  0.9153328646713134  0.5886993993794647  0.45008621794554676  1.0000
  C   C25       1.0  0.8247342942142167  0.6109172010613688  0.4281261152379868  1.0000
  C   C26       1.0  0.9249270635940405  0.6241182356841364  0.3993690185544879  1.0000
  C   C27       1.0  0.11957744866565168  0.6121843395532662  0.39185886942697573  1.0000
  C   C28       1.0  0.2053478042376966  0.5895139687753073  0.414278807316613  1.0000
  C   C29       1.0  0.10757262824600371  0.5784239778444867  0.44352429053814996  1.0000
  C   C30       1.0  0.23848392288152095  0.6221449864914773  0.3615822498354504  1.0000
  C   C31       1.0  0.9288384054858554  0.4474185800534229  0.5818751046459526  1.0000
  C   C32       1.0  0.8111567219544964  0.4287100100536207  0.6026129824695516  1.0000
  C   C33       1.0  0.8676844440174848  0.39565336474398544  0.6156809811252303  1.0000
  C   C34       1.0  0.7325793916609342  0.37991158499693967  0.6391811703575173  1.0000
  C   C35       1.0  0.4509037573163043  0.392858709311092  0.7736245223618498  1.0000
  C   C36       1.0  0.5901750593725836  0.414184454471723  0.8139081072707202  1.0000
  C   C37       1.0  0.5422279665096994  0.4266384899134223  0.8591858607581102  1.0000
  C   C38       1.0  0.691656990500924  0.45897212240285507  0.943239090918283  1.0000
  C   C39       1.0  0.8880823649708987  0.4967873133609045  0.020899803235486982  1.0000
  C   C40       1.0  0.1683724321840074  0.5294396440319673  0.0820231588041196  1.0000
  C   C41       1.0  0.46478634135613106  0.5500822094182709  0.1386735501865815  1.0000
  C   C42       1.0  0.3962802151620508  0.5720792310294626  0.18287579616532668  1.0000
  C   C43       1.0  0.5254093624663128  0.6007634875781778  0.2248224601791905  1.0000
  C   C44       1.0  0.7275249628925877  0.6082264854025397  0.22034499923878303  1.0000
  C   C45       1.0  0.7908252612309354  0.5857805944177343  0.17522446000690922  1.0000
  C   C46       1.0  0.6635953180925469  0.556572062789165  0.13491007645751552  1.0000
  C   C47       1.0  0.8768140505323032  0.6384656990225467  0.26059035365168637  1.0000
  C   C48       1.0  0.346977695879211  0.41807678560331846  0.8654681841279555  1.0000
  C   C49       1.0  0.20856641408159501  0.39733175051596  0.8260167917652057  1.0000
  C   C50       1.0  0.25209304287343304  0.3842373525065526  0.7798783581429944  1.0000
  C   C51       1.0  0.0934853699289633  0.3607362710607163  0.7406166329851873  1.0000
  N   N1        1.0  0.7979916203378038  0.1037462608710769  0.551325322289678  1.0000
  N   N2        1.0  0.8979718961109738  0.0295341550479193  0.5100797174999911  1.0000
  N   N3        1.0  0.04502787692553768  0.9626206698679951  0.4565068429403  1.0000
  N   N4        1.0  0.24569566534552922  0.9037731631773694  0.4226376927561263  1.0000
  N   N5        1.0  0.24713220146480813  0.4486849893018744  0.5524473213123146  1.0000
  N   N6        1.0  0.3878942655731095  0.4898510156916061  0.5193261545090453  1.0000
  N   N7        1.0  0.5885512619543505  0.5435773108217961  0.5061580939071251  1.0000
  N   N8        1.0  0.8238437066634531  0.5773441506611334  0.4812134899945448  1.0000
  N   N9        1.0  0.694655998200524  0.4474830940689999  0.8961649492166687  1.0000
  N   N10       1.0  0.8685289458375464  0.48064889465635474  0.970461788138195  1.0000
  N   N11       1.0  0.08230802146371015  0.4939357116009687  0.037386764006115014  1.0000
  N   N12       1.0  0.342190038028896  0.5189387917227535  0.09618398407008048  1.0000
  O   O1        1.0  0.7946188410634746  0.7461284429716599  0.3943732159102282  1.0000
  O   O2        1.0  0.5262090656590246  0.6970166684320772  0.3514625613048922  1.0000
  O   O3        1.0  0.1884509159014982  0.7331371535007847  0.35216543658273036  1.0000
  O   O4        1.0  0.1717629120527278  0.25244646691763967  0.6046700245568246  1.0000
  O   O5        1.0  0.4351229306520565  0.30163834664155337  0.6504155489274839  1.0000
  O   O6        1.0  0.7811121947211674  0.2682410574381748  0.6495170123183771  1.0000
  O   O7        1.0  0.5886067724907349  0.04084359294609641  0.4907838656248914  1.0000
  O   O8        1.0  0.9910537862148201  0.8942810381281346  0.4605384181827645  1.0000
  O   O9        1.0  0.4006549437277656  0.6057319179113776  0.35177926543514815  1.0000
  O   O10       1.0  0.17501167517886532  0.6486462957011626  0.3456733512891932  1.0000
  O   O11       1.0  0.83671363564239  0.6478626987404039  0.38109128523588953  1.0000
  O   O12       1.0  0.5674578663463451  0.39532854587237415  0.6477738239976318  1.0000
  O   O13       1.0  0.7847166304224585  0.34950577992077564  0.6511558856716135  1.0000
  O   O14       1.0  0.13170600141025096  0.35037009420894805  0.6185987332145829  1.0000
  O   O15       1.0  0.09847185684864704  0.509272927970521  0.5502175340014048  1.0000
  O   O16       1.0  0.5314508508386948  0.5394537593628853  0.433719772129578  1.0000
  O   O17       1.0  0.04886228298710183  0.648197623690038  0.2539505483856601  1.0000
  O   O18       1.0  0.829421862335714  0.6543712399544932  0.3030321718315961  1.0000
  O   O19       1.0  0.45574603906628397  0.6190337833771693  0.2668796579058466  1.0000
  O   O20       1.0  0.9198041163684892  0.3521059118912433  0.7474332120041965  1.0000
  O   O21       1.0  0.13364033557087396  0.34877583087815367  0.6982332009423403  1.0000
  O   O22       1.0  0.513252831181333  0.3812842513467841  0.7316516973285943  1.0000
  O   O23       1.0  0.5479605144207795  0.4499452795494036  0.9590818707410662  1.0000
  O   O24       1.0  0.09702345652749499  0.5663343609643903  0.10572946129568811  1.0000
