data_image0
_chemical_formula_structural       Cu2H12C18I2N2O4
_chemical_formula_sum              "Cu2 H12 C18 I2 N2 O4"
_cell_length_a       4.002065292900876
_cell_length_b       9.38923871539475
_cell_length_c       12.976086344586772
_cell_angle_alpha    96.25852953588388
_cell_angle_beta     95.76846595929112
_cell_angle_gamma    101.41530734207687

_space_group_name_H-M_alt    "P 1"
_space_group_IT_number       1

loop_
  _space_group_symop_operation_xyz
  'x, y, z'

loop_
  _atom_site_type_symbol
  _atom_site_label
  _atom_site_symmetry_multiplicity
  _atom_site_fract_x
  _atom_site_fract_y
  _atom_site_fract_z
  _atom_site_occupancy
  Cu  Cu1       1.0  0.8035427817501885  0.09481772972811343  0.5192393740035187  1.0000
  Cu  Cu2       1.0  0.1964365573835566  0.9051857540377811  0.48075310377731756  1.0000
  H   H1        1.0  0.4382763433986413  0.34722279327906597  0.8731907542858085  1.0000
  H   H2        1.0  0.5617126450666703  0.6527697225615938  0.12680654290031163  1.0000
  H   H3        1.0  0.18164899368820642  0.1358759367079401  0.7324997731966008  1.0000
  H   H4        1.0  0.8183491537646435  0.86411986771531  0.26749884077167974  1.0000
  H   H5        1.0  0.7649566276030626  0.4064446109553543  0.548306196595455  1.0000
  H   H6        1.0  0.23506037798835433  0.5935588641777587  0.4516966961562829  1.0000
  H   H7        1.0  0.009075459195138209  0.6281970520768143  0.6786766229796087  1.0000
  H   H8        1.0  0.9909393829285308  0.3718020436478113  0.3213227709871589  1.0000
  H   H9        1.0  0.6818822462506875  0.9957088375882253  0.8217373090273628  1.0000
  H   H10       1.0  0.3181239784558231  0.004288065713382099  0.17826087233058274  1.0000
  H   H11       1.0  0.12672692692549978  0.7763690505727326  0.045986518288806615  1.0000
  H   H12       1.0  0.8732663933994828  0.2236322332370549  0.9540123828069798  1.0000
  C   C1        1.0  0.2945512579399434  0.36388822684462957  0.8012894915678431  1.0000
  C   C2        1.0  0.7054540791143471  0.6361119631578022  0.19870969491996965  1.0000
  C   C3        1.0  0.15061298841410328  0.24716610574212447  0.7242285613099925  1.0000
  C   C4        1.0  0.8494013107322618  0.7528318912080252  0.27577226952922024  1.0000
  C   C5        1.0  0.9191762838709606  0.3986530677136956  0.6209866988503451  1.0000
  C   C6        1.0  0.08083910193344927  0.6013471280928611  0.37901048772107526  1.0000
  C   C7        1.0  0.05459915454259356  0.5214049860017269  0.6939485409593475  1.0000
  C   C8        1.0  0.9454262793084856  0.4785952143015138  0.3060474162185686  1.0000
  C   C9        1.0  0.2471272379055734  0.5043122277531752  0.7862044105454872  1.0000
  C   C10       1.0  0.7528739613707031  0.4956846706851863  0.21379592655501511  1.0000
  C   C11       1.0  0.4071329190833809  0.6289328910335499  0.8685469599822824  1.0000
  C   C12       1.0  0.5928598575608532  0.3710672926943062  0.1314541485088512  1.0000
  C   C13       1.0  0.6025244287301634  0.9999060199205233  0.8997912103773376  1.0000
  C   C14       1.0  0.39747445718854385  9.636229717810004e-05  0.10020718019504221  1.0000
  C   C15       1.0  0.39991299601313574  0.8758220724006451  0.9286204380564629  1.0000
  C   C16       1.0  0.6000618564469422  0.124182497431768  0.07137738173186393  1.0000
  C   C17       1.0  0.2950074506805578  0.8739009062595215  0.027679888342461826  1.0000
  C   C18       1.0  0.7049769054419884  0.1261025666801814  0.9723196799706105  1.0000
  I   I1        1.0  0.7050473810076386  0.8537384213816638  0.6064107101534832  1.0000
  I   I2        1.0  0.2949227892902258  0.14626175549729942  0.3935912381657758  1.0000
  N   N1        1.0  0.9654024673458892  0.26323604545856943  0.6349001858855348  1.0000
  N   N2        1.0  0.034603949331916836  0.7367663303257431  0.3651030615634597  1.0000
  O   O1        1.0  0.2871375629728309  0.752290626061509  0.8525539685291935  1.0000
  O   O2        1.0  0.7128591524435991  0.24770736367317886  0.14744862848719725  1.0000
  O   O3        1.0  0.6213052116382161  0.6218421067354712  0.9404934722939376  1.0000
  O   O4        1.0  0.37870390726391895  0.378165739387086  0.05951646020497491  1.0000
