data_image0
_chemical_formula_structural       Ti24H48C102O84
_chemical_formula_sum              "Ti24 H48 C102 O84"
_cell_length_a       12.113563899002076
_cell_length_b       21.86423357143036
_cell_length_c       21.864241539014987
_cell_angle_alpha    120.00002652286774
_cell_angle_beta     90.00005821257928
_cell_angle_gamma    89.99999964751511

_space_group_name_H-M_alt    "P 1"
_space_group_IT_number       1

loop_
  _space_group_symop_operation_xyz
  'x, y, z'

loop_
  _atom_site_type_symbol
  _atom_site_label
  _atom_site_symmetry_multiplicity
  _atom_site_fract_x
  _atom_site_fract_y
  _atom_site_fract_z
  _atom_site_occupancy
  Ti  Ti1       1.0  0.8505436485350583  0.7193210064712474  0.43864220722388564  1.0000
  Ti  Ti2       1.0  0.14945708550745  0.4386426054290809  0.7193218411811344  1.0000
  Ti  Ti3       1.0  0.8505437620569793  0.28067811247160535  0.5613569915189061  1.0000
  Ti  Ti4       1.0  0.8505435044930891  0.5613572279960479  0.2806789952549664  1.0000
  Ti  Ti5       1.0  0.14945682794265744  0.7193217917084596  0.4386428594265153  1.0000
  Ti  Ti6       1.0  0.149456683442871  0.7193217364795998  0.2806781048819502  1.0000
  Ti  Ti7       1.0  0.8505435040361745  0.7193208804874445  0.28067843817000687  1.0000
  Ti  Ti8       1.0  0.850543081036058  0.2806788891299661  0.7193219393698342  1.0000
  Ti  Ti9       1.0  0.1494562604428253  0.2806787596309378  0.7193216768364437  1.0000
  Ti  Ti10      1.0  0.14945694146416597  0.2806784403407009  0.5613571863535256  1.0000
  Ti  Ti11      1.0  0.850543906100448  0.4386429989896358  0.7193218396531904  1.0000
  Ti  Ti12      1.0  0.1494558583783103  0.56135690519028  0.2806780112919256  1.0000
  Ti  Ti13      1.0  0.6483875702658892  0.7744493409270419  0.3872248830196624  1.0000
  Ti  Ti14      1.0  0.3516115161180479  0.3872244411616849  0.774449334671914  1.0000
  Ti  Ti15      1.0  0.6483886036976116  0.22555081137757338  0.6127758004875616  1.0000
  Ti  Ti16      1.0  0.6483834431281463  0.6127756418463265  0.3872244008662308  1.0000
  Ti  Ti17      1.0  0.35160785916519194  0.6127753229668329  0.3872245537951144  1.0000
  Ti  Ti18      1.0  0.35161198630251533  0.7744485646794317  0.3872245785805362  1.0000
  Ti  Ti19      1.0  0.6483882483611224  0.6127759203863478  0.22555097364121224  1.0000
  Ti  Ti20      1.0  0.6483879256014689  0.38722430267320357  0.7744487243753325  1.0000
  Ti  Ti21      1.0  0.35161219421352286  0.2255507565594642  0.6127756893547911  1.0000
  Ti  Ti22      1.0  0.3516121937465968  0.38722471970094563  0.6127759074453393  1.0000
  Ti  Ti23      1.0  0.6483877777097931  0.38722477451890563  0.6127760185777971  1.0000
  Ti  Ti24      1.0  0.3516118388772825  0.612775601506705  0.2255511265697833  1.0000
  H   H1        1.0  0.9999995317986644  0.9529878126142749  0.7454893774849933  1.0000
  H   H2        1.0  0.9999997222097364  0.7454897758547502  0.9529881777810586  1.0000
  H   H3        1.0  2.3268008679999997e-07  0.04701209156563377  0.25451047346011524  1.0000
  H   H4        1.0  1.8907611829999998e-07  0.25451071102237677  0.20749874156438608  1.0000
  H   H5        1.0  6.796541854e-07  0.7925018536367928  0.7454897534528085  1.0000
  H   H6        1.0  1.8380994219999996e-06  0.9529882978427935  0.20749836657594764  1.0000
  H   H7        1.0  8.662360642000002e-07  0.7925016768180201  0.047012312670325795  1.0000
  H   H8        1.0  0.9999997237642403  0.20749842066863528  0.9529882597044405  1.0000
  H   H9        1.0  0.9999995774208585  0.047011870398954284  0.7925012203084449  1.0000
  H   H10       1.0  2.3221654289999998e-07  0.2074987805677537  0.2545106377624506  1.0000
  H   H11       1.0  0.9999995754028107  0.745489914587189  0.792501302687391  1.0000
  H   H12       1.0  0.9999997203987689  0.2545103130369242  0.04701204763023977  1.0000
  H   H13       1.0  0.8915383671282627  0.8863179637762711  0.6325818446815957  1.0000
  H   H14       1.0  0.1084610449991601  0.6325820803247737  0.8863180200973985  1.0000
  H   H15       1.0  0.8915406033623865  0.11368208504762836  0.3674182995002866  1.0000
  H   H16       1.0  0.8915388475954559  0.3674179940289051  0.25373594357335344  1.0000
  H   H17       1.0  0.10846163808415811  0.7462638316707099  0.6325820686900343  1.0000
  H   H18       1.0  0.10846129112690761  0.8863185649628633  0.2537365727969671  1.0000
  H   H19       1.0  0.8915378928641005  0.7462641653574238  0.11368182769277269  1.0000
  H   H20       1.0  0.891539426584778  0.25373588346617754  0.8863183164884987  1.0000
  H   H21       1.0  0.1084617439032769  0.11368138788010636  0.7462637063416436  1.0000
  H   H22       1.0  0.10846139694577771  0.2537363852337933  0.3674179463872349  1.0000
  H   H23       1.0  0.8915392973744788  0.6325827762244957  0.7462643939148919  1.0000
  H   H24       1.0  0.10846116450989737  0.3674181365795802  0.11368199497957217  1.0000
  H   H25       1.0  0.1084613973504958  0.11368194040364438  0.36741800626351306  1.0000
  H   H26       1.0  0.8915387194795983  0.36741782385514193  0.11368183084771731  1.0000
  H   H27       1.0  0.10846163767968156  0.8863180124393323  0.6325822728750978  1.0000
  H   H28       1.0  0.1084617424043586  0.6325826315808101  0.7462641006787365  1.0000
  H   H29       1.0  0.8915389519150665  0.25373561514123827  0.36741732488737705  1.0000
  H   H30       1.0  0.8915384733525115  0.11368153252364277  0.7462639995774936  1.0000
  H   H31       1.0  0.1084610460940141  0.25373547476080927  0.8863182873133723  1.0000
  H   H32       1.0  0.10846116341552658  0.7462642140204778  0.11368225588626746  1.0000
  H   H33       1.0  0.8915380205757231  0.8863182522382758  0.2537364086648068  1.0000
  H   H34       1.0  0.8915383675331512  0.7462642403757727  0.6325820978645496  1.0000
  H   H35       1.0  0.10846129262599653  0.3674180426918099  0.2537363717665428  1.0000
  H   H36       1.0  0.8915402510110512  0.6325822249687578  0.8863183133341721  1.0000
  H   H37       1.0  0.6809363729003549  0.9999997993594222  0.5653173650612827  1.0000
  H   H38       1.0  0.31906308444264647  0.5653180456500169  0.9999994767245255  1.0000
  H   H39       1.0  0.6809370760316824  0.9999992569265996  0.43468170665730804  1.0000
  H   H40       1.0  0.6809370776652415  0.43468187220260296  0.4346818957904475  1.0000
  H   H41       1.0  0.3190626868126785  0.5653171172410723  0.5653170404186482  1.0000
  H   H42       1.0  0.3190633944678538  1.8524773407711875e-09  0.4346826265388871  1.0000
  H   H43       1.0  0.6809358541372463  0.5653177745624306  0.9999998017930593  1.0000
  H   H44       1.0  0.6809359437534397  0.43468173909140273  0.9999997272929305  1.0000
  H   H45       1.0  0.3190626884466568  1.898851920116825e-07  0.5653176869197907  1.0000
  H   H46       1.0  0.31906339321196237  0.4346827200964968  0.4346826750169654  1.0000
  H   H47       1.0  0.6809371967881007  0.565317641451692  0.5653176332964661  1.0000
  H   H48       1.0  0.31906308482061974  0.43468212961732894  4.915174401448325e-08  1.0000
  C   C1        1.0  0.9999998509497913  0.9999998328870277  0.7395064293454536  1.0000
  C   C2        1.0  0.9999999978639947  0.7395069819296153  7.339017215991225e-07  1.0000
  C   C3        1.0  2.3828891220000007e-07  0.9999995195515724  0.2604934518498752  1.0000
  C   C4        1.0  2.3753671739999998e-07  0.2604940126943305  0.26049394939712295  1.0000
  C   C5        1.0  0.9999998488135446  0.7395070788781765  0.7395068991858337  1.0000
  C   C6        1.0  0.9999996773769624  0.26049349905675007  2.2133874467947397e-07  1.0000
  C   C7        1.0  0.8994700341333868  3.0097763940406886e-07  0.6979253191672257  1.0000
  C   C8        1.0  0.10053028041375711  0.6979253399908956  3.4196743567769105e-07  1.0000
  C   C9        1.0  0.8994713230675657  1.0906675100666597e-06  0.30207535822299286  1.0000
  C   C10       1.0  0.8994696711530779  0.3020753440903974  0.30207544136776215  1.0000
  C   C11       1.0  0.1005309188469781  0.6979250174577843  0.6979248669456695  1.0000
  C   C12       1.0  0.10053055875588511  2.2166405961531628e-07  0.3020748657399253  1.0000
  C   C13       1.0  0.8994702192028824  0.6979243795217231  0.9999990049781573  1.0000
  C   C14       1.0  0.8994702203476733  0.3020746836275094  1.55905333093547e-07  1.0000
  C   C15       1.0  0.1005309179740266  0.9999995349425107  0.6979246860297154  1.0000
  C   C16       1.0  0.1005313834042312  0.3020751965170518  0.30207514219229376  1.0000
  C   C17       1.0  0.8994700321162269  0.6979256931543462  0.6979246379987671  1.0000
  C   C18       1.0  0.1005294560361634  0.30207453605370194  0.9999998567289409  1.0000
  C   C19       1.0  0.8588015197199541  0.9368676933556088  0.6424037813922041  1.0000
  C   C20       1.0  0.14119794745793968  0.6424038345306259  0.9368670243795661  1.0000
  C   C21       1.0  0.8588037382759738  0.06313044314710228  0.3575954942906349  1.0000
  C   C22       1.0  0.8588028541536444  0.3575957138637946  0.2944634618596069  1.0000
  C   C23       1.0  0.14119850343448087  0.7055364783072947  0.6424050618341609  1.0000
  C   C24       1.0  0.1411973589623585  0.9368676078239203  0.2944635816842407  1.0000
  C   C25       1.0  0.8588009904952469  0.7055373484773995  0.06313351471703028  1.0000
  C   C26       1.0  0.8588017909396228  0.2944636029885147  0.936867519682245  1.0000
  C   C27       1.0  0.14119856304112938  0.06313209305113791  0.7055369860330956  1.0000
  C   C28       1.0  0.1411982440903188  0.2944636799360368  0.357595963251498  1.0000
  C   C29       1.0  0.8588024038426313  0.642403865498217  0.7055362004365762  1.0000
  C   C30       1.0  0.14119714902417974  0.35759639446733615  0.06313301521478823  1.0000
  C   C31       1.0  0.1411982447589821  0.06313293225395  0.35759626285958024  1.0000
  C   C32       1.0  0.8588018170201577  0.3575958763426925  0.06313210513619787  1.0000
  C   C33       1.0  0.1411968517231443  0.936867296744012  0.6424037767347741  1.0000
  C   C34       1.0  0.1411993868881822  0.6424046476846925  0.7055368464544429  1.0000
  C   C35       1.0  0.8588029120869505  0.2944633551179834  0.35759577460225955  1.0000
  C   C36       1.0  0.8588015799950952  0.06313183898771522  0.7055358118925525  1.0000
  C   C37       1.0  0.1411971229432325  0.2944636637450345  0.9368679723928253  1.0000
  C   C38       1.0  0.14119879905960178  0.7055358438234335  0.06313187389516627  1.0000
  C   C39       1.0  0.8588012014379345  0.9368665615760676  0.29446319972802104  1.0000
  C   C40       1.0  0.8588006948677955  0.7055359601821963  0.642404151754647  1.0000
  C   C41       1.0  0.1411981861565934  0.35759558131372415  0.2944631931408351  1.0000
  C   C42       1.0  0.8588034409782707  0.6424050043687403  0.9368699147546876  1.0000
  C   C43       1.0  0.7804843098083226  0.936402595692897  0.5948744772092524  1.0000
  C   C44       1.0  0.2195151136055813  0.5948747444691306  0.9364026806231748  1.0000
  C   C45       1.0  0.7804866153183313  0.0635981335346757  0.40512577710732245  1.0000
  C   C46       1.0  0.7804840795929876  0.40512588292807544  0.34152885644599  1.0000
  C   C47       1.0  0.219515626526821  0.6584720430269186  0.5948748485381188  1.0000
  C   C48       1.0  0.21951621949364147  0.9364030382641602  0.341528495060963  1.0000
  C   C49       1.0  0.7804829990988934  0.6584720403704694  0.06359661490190398  1.0000
  C   C50       1.0  0.7804846239429608  0.3415273167521349  0.9364022673094112  1.0000
  C   C51       1.0  0.2195165119428992  0.06359741297322327  0.6584723246182591  1.0000
  C   C52       1.0  0.21951627938925355  0.3415288655784323  0.4051264285087938  1.0000
  C   C53       1.0  0.7804851944925489  0.5948750396057818  0.6584721192993186  1.0000
  C   C54       1.0  0.21951514126764235  0.4051255134612006  0.06359741762577187  1.0000
  C   C55       1.0  0.21951545467019426  0.06359757254854517  0.4051251096745219  1.0000
  C   C56       1.0  0.7804846508734115  0.40512489564925147  0.06359743438327561  1.0000
  C   C57       1.0  0.21951562572326108  0.9364024920753451  0.5948742671453856  1.0000
  C   C58       1.0  0.2195156848864244  0.5948742145584305  0.6584717159284708  1.0000
  C   C59       1.0  0.7804841379527686  0.3415287758892376  0.40512591714301044  1.0000
  C   C60       1.0  0.7804843705068335  0.06359778065214532  0.6584722706204785  1.0000
  C   C61       1.0  0.21951511433701396  0.3415272131344338  0.9364020572452318  1.0000
  C   C62       1.0  0.2195159660562638  0.6584721300598133  0.0635971262680002  1.0000
  C   C63       1.0  0.780483252536271  0.9364029485748091  0.3415279836948669  1.0000
  C   C64       1.0  0.7804851361322848  0.6584726747676797  0.5948745304796218  1.0000
  C   C65       1.0  0.21951704654993884  0.40512551524930274  0.341528910444076  1.0000
  C   C66       1.0  0.7804854487315113  0.5948749188419242  0.9364019051969733  1.0000
  C   C67       1.0  0.7393849373190876  0.999999869736186  0.6032102576925169  1.0000
  C   C68       1.0  0.26061363981825986  0.6032110434459241  1.705472456704525e-07  1.0000
  C   C69       1.0  0.7393855740137097  0.9999986478059667  0.3967885410871402  1.0000
  C   C70       1.0  0.7393897004720812  0.39678893426501816  0.39678897815208797  1.0000
  C   C71       1.0  0.260614191610685  0.6032105125475412  0.6032104154265596  1.0000
  C   C72       1.0  0.26061483004887975  1.9553723971127904e-07  0.3967894698463184  1.0000
  C   C73       1.0  0.7393843837849376  0.6032120466167754  1.2645667694795468e-06  1.0000
  C   C74       1.0  0.7393843843806777  0.39678970160167654  5.206312679043811e-07  1.0000
  C   C75       1.0  0.2606150159853371  7.757633119795506e-08  0.6032106591836026  1.0000
  C   C76       1.0  0.2606148289026464  0.39678976056587356  0.3967897136030487  1.0000
  C   C77       1.0  0.7393849355761047  0.6032101436140352  0.6032101373420602  1.0000
  C   C78       1.0  0.26061446593530485  0.3967891557990912  0.9999998839800596  1.0000
  C   C79       1.0  0.7564260960784637  0.8670369644470171  0.5306437962734449  1.0000
  C   C80       1.0  0.24357403103334724  0.5306445907489632  0.8670365528098074  1.0000
  C   C81       1.0  0.7564260421356436  0.13296257709467346  0.46935578934959205  1.0000
  C   C82       1.0  0.7564250940134443  0.4693559354410014  0.3363925991378451  1.0000
  C   C83       1.0  0.243572897410111  0.6636071350649644  0.5306441823676308  1.0000
  C   C84       1.0  0.24357271912838738  0.8670368822129149  0.33639212768979815  1.0000
  C   C85       1.0  0.75642408184234  0.6636078698331715  0.13296326205698952  1.0000
  C   C86       1.0  0.7564272308513013  0.33639212907648647  0.8670367809337449  1.0000
  C   C87       1.0  0.24357384609437102  0.1329631205435361  0.6636082526384185  1.0000
  C   C88       1.0  0.24357531885524958  0.3363937824280328  0.46935711269722435  1.0000
  C   C89       1.0  0.7564253931584091  0.5306441342234436  0.6636064583618974  1.0000
  C   C90       1.0  0.2435741852302726  0.4693554827627365  0.13296284202834832  1.0000
  C   C91       1.0  0.24357531944247768  0.13296339710132082  0.4693565120402922  1.0000
  C   C92       1.0  0.7564249079240355  0.4693558415538561  0.1329627700123268  1.0000
  C   C93       1.0  0.24357372234317856  0.8670363415940584  0.5306441323501899  1.0000
  C   C94       1.0  0.2435746704648949  0.5306435113707906  0.6636067944392606  1.0000
  C   C95       1.0  0.7564252160272885  0.3363932264827625  0.469356125944877  1.0000
  C   C96       1.0  0.7564262198294854  0.13296302196684448  0.6636077232550049  1.0000
  C   C97       1.0  0.24357403159488197  0.3363917702849123  0.8670368529488428  1.0000
  C   C98       1.0  0.24357501019011343  0.6636077751038841  0.13296307001229465  1.0000
  C   C99       1.0  0.756425092863985  0.8670362555131632  0.33639212642906097  1.0000
  C   C100      1.0  0.7564244456239209  0.6636065791199998  0.5306431956158946  1.0000
  C   C101      1.0  0.24357354579879598  0.4693555766497255  0.3363926711535611  1.0000
  C   C102      1.0  0.7564255792487203  0.5306441573556454  0.8670372729781021  1.0000
  O   O1        1.0  0.8233031844908824  0.817439924394634  0.5200064001898709  1.0000
  O   O2        1.0  0.17669936425823346  0.5200073574525775  0.8174402183041635  1.0000
  O   O3        1.0  0.8233031497219299  0.18255971260797577  0.4799922500289213  1.0000
  O   O4        1.0  0.8233021563434589  0.4799930051145225  0.29743261017827644  1.0000
  O   O5        1.0  0.17669578956764548  0.7025668941644767  0.5200073786942809  1.0000
  O   O6        1.0  0.1767005387594267  0.8174407922007276  0.2974334865512275  1.0000
  O   O7        1.0  0.823301225099314  0.702567877271001  0.18256072222980174  1.0000
  O   O8        1.0  0.8232993304692116  0.2974333251414905  0.8174400215201983  1.0000
  O   O9        1.0  0.1766976091101  0.18255990728046367  0.7025670369993833  1.0000
  O   O10       1.0  0.17669575413528094  0.2974332771924325  0.4799936729765335  1.0000
  O   O11       1.0  0.8233033523491287  0.5200068251945281  0.7025667614695549  1.0000
  O   O12       1.0  0.1766987836117764  0.4799928139055538  0.18256083336912343  1.0000
  O   O13       1.0  0.17669905655004206  0.1825605079087964  0.4799929226334925  1.0000
  O   O14       1.0  0.8233004002215977  0.4799931974020454  0.18256081143830724  1.0000
  O   O15       1.0  0.17669909131906536  0.8174397342042709  0.5200071435491082  1.0000
  O   O16       1.0  0.17669595709244848  0.5200062483903737  0.7025660619688665  1.0000
  O   O17       1.0  0.8233039749124273  0.2974333966286126  0.47999391510952455  1.0000
  O   O18       1.0  0.8233000512410484  0.18256002671557772  0.7025672791302069  1.0000
  O   O19       1.0  0.176698539380105  0.2974322202155051  0.8174398501446589  1.0000
  O   O20       1.0  0.1766987829679465  0.7025673004677628  0.18256002273096777  1.0000
  O   O21       1.0  0.8233013298473535  0.8174395395311792  0.29743235657741  1.0000
  O   O22       1.0  0.823304010343648  0.7025673484171334  0.5200063712752507  1.0000
  O   O23       1.0  0.17669723765009587  0.4799926216174199  0.2974326321078634  1.0000
  O   O24       1.0  0.8233026319096483  0.5200070195197243  0.8174400030672898  1.0000
  O   O25       1.0  0.6777060377553284  0.8603334255871786  0.4894142158148326  1.0000
  O   O26       1.0  0.32229487116909883  0.4894145077831596  0.8603335793358937  1.0000
  O   O27       1.0  0.6777077102449026  0.13966615762871737  0.5105843253621458  1.0000
  O   O28       1.0  0.6777051048504603  0.510585966857029  0.37091914285091565  1.0000
  O   O29       1.0  0.3222920549016166  0.6290814843888272  0.48941509227113755  1.0000
  O   O30       1.0  0.32229524792297326  0.8603347513045208  0.37092056063072926  1.0000
  O   O31       1.0  0.677705718488113  0.6290813336557265  0.13966621036917798  1.0000
  O   O32       1.0  0.6777039019093606  0.37092007903189017  0.8603341602782919  1.0000
  O   O33       1.0  0.32229466063891005  0.1396661952698182  0.6290807933907345  1.0000
  O   O34       1.0  0.3222929005343573  0.3709182833868283  0.5105856110737932  1.0000
  O   O35       1.0  0.677706992109492  0.4894147244013922  0.6290810344908095  1.0000
  O   O36       1.0  0.322294211870819  0.5105857881163233  0.13966659588790264  1.0000
  O   O37       1.0  0.3222937267231885  0.13966674265426338  0.5105853710689415  1.0000
  O   O38       1.0  0.6777057188302961  0.5105856604584389  0.13966600754819317  1.0000
  O   O39       1.0  0.3222937052747241  0.86033381730644  0.4894145400928948  1.0000
  O   O40       1.0  0.3222930085876001  0.48941458799728815  0.6290818868909368  1.0000
  O   O41       1.0  0.6777068840571514  0.3709183490359962  0.5105857441643522  1.0000
  O   O42       1.0  0.6777045165566165  0.13966606761162836  0.6290802050503997  1.0000
  O   O43       1.0  0.32229404599082295  0.37091929195383944  0.8603338338826063  1.0000
  O   O44       1.0  0.3222950370486899  0.6290805465775193  0.13966588397317983  1.0000
  O   O45       1.0  0.6777051038398483  0.8603337089100975  0.3709190575543813  1.0000
  O   O46       1.0  0.6777068639445717  0.6290823422227305  0.48941443317799116  1.0000
  O   O47       1.0  0.3222935978909831  0.510586094514913  0.3709197311906251  1.0000
  O   O48       1.0  0.6777080291709366  0.4894155589233478  0.860333641671481  1.0000
  O   O49       1.0  0.6657450038578219  0.7107005372069394  0.42140115646351706  1.0000
  O   O50       1.0  0.33425488108137097  0.4214009302914335  0.7107012819464202  1.0000
  O   O51       1.0  0.6657451488734693  0.2892994282031652  0.5785988186135782  1.0000
  O   O52       1.0  0.6657448833982826  0.578598903133539  0.289299554489375  1.0000
  O   O53       1.0  0.33425296456393033  0.7107009333445617  0.4214014896989226  1.0000
  O   O54       1.0  0.3342544947643161  0.7107011471464731  0.2892997060041012  1.0000
  O   O55       1.0  0.6657457085373152  0.7107007510087016  0.2892993727683829  1.0000
  O   O56       1.0  0.6657452697148544  0.28929921440155953  0.7107006023090179  1.0000
  O   O57       1.0  0.33425405594185514  0.2892996105393309  0.7107009355447431  1.0000
  O   O58       1.0  0.33425476062117804  0.28929910291144273  0.5785989585429405  1.0000
  O   O59       1.0  0.6657444438127769  0.4214012555830067  0.7107011420167523  1.0000
  O   O60       1.0  0.33425284410355965  0.5785983845349207  0.2892989729887673  1.0000
  O   O61       1.0  0.9999995758295698  0.7205139640256348  0.4410253918932979  1.0000
  O   O62       1.0  0.9999998323013415  0.4410249738174771  0.7205132637081704  1.0000
  O   O63       1.0  0.9999996849989686  0.2794862128104825  0.558974541953333  1.0000
  O   O64       1.0  0.9999991066560056  0.5589727660733317  0.2794860073166205  1.0000
  O   O65       1.0  0.9999991061908772  0.7205125470241853  0.2794877708096875  1.0000
  O   O66       1.0  0.9999995108974032  0.2794877351739303  0.7205131760306429  1.0000
  O   O67       1.0  0.8265382716314776  0.757130109012074  0.3785647906070293  1.0000
  O   O68       1.0  0.17346079106277304  0.3785649705592106  0.7571302027568476  1.0000
  O   O69       1.0  0.8265376697646118  0.24286991579872816  0.6214353048931045  1.0000
  O   O70       1.0  0.8265399230653542  0.6214353085729201  0.37856484007093627  1.0000
  O   O71       1.0  0.17345961854384484  0.6214349238797325  0.3785648595757038  1.0000
  O   O72       1.0  0.1734612691932611  0.7571299883810313  0.3785645460516989  1.0000
  O   O73       1.0  0.8265381478950928  0.6214349336205486  0.24286964818795537  1.0000
  O   O74       1.0  0.8265377935007477  0.3785653552517872  0.7571301832508439  1.0000
  O   O75       1.0  0.1734614928472809  0.24286979516783447  0.6214350603380864  1.0000
  O   O76       1.0  0.1734606669342824  0.37856459560714484  0.6214350108744853  1.0000
  O   O77       1.0  0.8265393204142696  0.37856471623849325  0.621435255430434  1.0000
  O   O78       1.0  0.17346114545729557  0.6214352703576296  0.24286986100063487  1.0000
  O   O79       1.0  0.4999993699191236  0.7841207259629998  0.39206021703500926  1.0000
  O   O80       1.0  0.49999972969288825  0.39206012221453795  0.7841205350975216  1.0000
  O   O81       1.0  0.5000003945596349  0.21587917821691605  0.6079396339101066  1.0000
  O   O82       1.0  0.49999606834548865  0.6079387993900838  0.39206115682301856  1.0000
  O   O83       1.0  0.5000000347858632  0.6079397819653778  0.21587931584759443  1.0000
  O   O84       1.0  0.5000003940496568  0.3920620902803977  0.607938623366195  1.0000
