data_image0
_chemical_formula_structural       Cu2H32C48N8O12
_chemical_formula_sum              "Cu2 H32 C48 N8 O12"
_cell_length_a       7.372065684139666
_cell_length_b       11.856483304664048
_cell_length_c       13.111545742832094
_cell_angle_alpha    108.42791353286445
_cell_angle_beta     106.33013585851648
_cell_angle_gamma    90.00823623748634

_space_group_name_H-M_alt    "P 1"
_space_group_IT_number       1

loop_
  _space_group_symop_operation_xyz
  'x, y, z'

loop_
  _atom_site_type_symbol
  _atom_site_label
  _atom_site_symmetry_multiplicity
  _atom_site_fract_x
  _atom_site_fract_y
  _atom_site_fract_z
  _atom_site_occupancy
  Cu  Cu1       1.0  0.40356430683461747  0.7499200952077699  3.237940894237789e-05  1.0000
  Cu  Cu2       1.0  0.5964381124885351  0.25007807093771117  0.9999655894275745  1.0000
  H   H1        1.0  0.532126124424444  0.025193257739275103  0.8092676122050831  1.0000
  H   H2        1.0  0.7227839030040214  0.47512451134853967  0.19081039672983735  1.0000
  H   H3        1.0  0.4678679541028147  0.9748058006791993  0.19073082124865684  1.0000
  H   H4        1.0  0.27720593498789736  0.5248745398344354  0.8091904154418258  1.0000
  H   H5        1.0  0.6489340543574614  0.944190947222495  0.6421085766803855  1.0000
  H   H6        1.0  0.006820412561552296  0.5559137658263822  0.35807737251474236  1.0000
  H   H7        1.0  0.35105847112757976  0.05580722297710141  0.3578878302149704  1.0000
  H   H8        1.0  0.9931712583043648  0.4440879668742567  0.6419237388509414  1.0000
  H   H9        1.0  0.041214957649593514  0.26320930115058166  0.7722673530334204  1.0000
  H   H10       1.0  0.2684583406341402  0.23681825197616047  0.22765142966846943  1.0000
  H   H11       1.0  0.9587898686968971  0.7367861727667631  0.22773403413370366  1.0000
  H   H12       1.0  0.7315433641851642  0.7631843789278676  0.7723484748804026  1.0000
  H   H13       1.0  0.905645221727731  0.3329193388311609  0.9318347594432835  1.0000
  H   H14       1.0  0.9731274974561972  0.16721108870429194  0.06820894903862039  1.0000
  H   H15       1.0  0.09435564415445437  0.6670779278792125  0.06816499298643917  1.0000
  H   H16       1.0  0.026869687474480496  0.832789755124921  0.9317904894106163  1.0000
  H   H17       1.0  0.6896292317010903  0.21829635947170795  0.5695241499810847  1.0000
  H   H18       1.0  0.1201650738150875  0.2816616269449881  0.4305630992534474  1.0000
  H   H19       1.0  0.3103703605719232  0.7817018011023578  0.43047565867748  1.0000
  H   H20       1.0  0.8798312564964662  0.7183427793852601  0.5694410436661171  1.0000
  H   H21       1.0  0.5981787987306789  0.29131492958926947  0.4076954493874467  1.0000
  H   H22       1.0  0.19056728271711176  0.20872669883798523  0.5924394880231958  1.0000
  H   H23       1.0  0.4018251733954373  0.7086841180453477  0.5923068320984086  1.0000
  H   H24       1.0  0.8094359752241473  0.791276822528161  0.40756168105374246  1.0000
  H   H25       1.0  0.7139450348945926  0.20192064454473518  0.24144432511862843  1.0000
  H   H26       1.0  0.47269242623350755  0.29822339617974347  0.7586664749900932  1.0000
  H   H27       1.0  0.2860590771075381  0.7980792986176514  0.7585574737002077  1.0000
  H   H28       1.0  0.5273108318672541  0.7017801296728906  0.24133317002620908  1.0000
  H   H29       1.0  0.07303900922969578  0.9573669509155919  0.7623748445627851  1.0000
  H   H30       1.0  0.31049613655851255  0.5424882952480488  0.23759190962351076  1.0000
  H   H31       1.0  0.9269621361652797  0.042632100120592  0.2376262286238529  1.0000
  H   H32       1.0  0.689504434687123  0.4575161295339286  0.7624060444265481  1.0000
  C   C1        1.0  0.6435515669760362  0.0750935829197346  0.7971569520640003  1.0000
  C   C2        1.0  0.8462167495942053  0.4251565389541696  0.20295114613263368  1.0000
  C   C3        1.0  0.35644675176754964  0.9249054737612568  0.2028421507931028  1.0000
  C   C4        1.0  0.1537763346771612  0.5748451931673061  0.7970501883674996  1.0000
  C   C5        1.0  0.7105627817185934  0.030699821383485905  0.7045388981272039  1.0000
  C   C6        1.0  0.005868730165694586  0.4694326274720736  0.29558887733034567  1.0000
  C   C7        1.0  0.28943398390303093  0.9692983448353872  0.29545894020183266  1.0000
  C   C8        1.0  0.9941271809963083  0.5305691057343296  0.704412141408376  1.0000
  C   C9        1.0  0.8552741897215768  0.09711336696855707  0.692104027332668  1.0000
  C   C10       1.0  0.1628954654038353  0.4029142230938874  0.3079721183488998  1.0000
  C   C11       1.0  0.14472498316263233  0.9028821137519216  0.30789494323600747  1.0000
  C   C12       1.0  0.8371007252709575  0.5970892944383266  0.6920302211467301  1.0000
  C   C13       1.0  0.9268737480469798  0.20761254771294094  0.7757032332725302  1.0000
  C   C14       1.0  0.1507459261756452  0.2924622947915196  0.22431394746116237  1.0000
  C   C15       1.0  0.07312980477008313  0.7923838223113361  0.22429744809311797  1.0000
  C   C16       1.0  0.8492532311860472  0.707542117110151  0.7756883556363546  1.0000
  C   C17       1.0  0.8533390241502518  0.24687359201490716  0.8662730275279172  1.0000
  C   C18       1.0  0.9865283225520259  0.25327704366630144  0.13377261203366686  1.0000
  C   C19       1.0  0.1466659420722536  0.7531227774302066  0.13372787697218055  1.0000
  C   C20       1.0  0.01346900201541959  0.7467246889609455  0.8662286298395044  1.0000
  C   C21       1.0  0.9301794525636993  0.048873292458274896  0.5941317038969274  1.0000
  C   C22       1.0  0.3359563621307372  0.45108590388178976  0.40586543857519786  1.0000
  C   C23       1.0  0.0698198601167803  0.9511230815467329  0.40586754603504716  1.0000
  C   C24       1.0  0.6640384153778528  0.5489176209593155  0.5941343916950286  1.0000
  C   C25       1.0  0.058176148430852836  0.9604089713261529  0.5949478043774191  1.0000
  C   C26       1.0  0.4631610823477458  0.5395431525902765  0.4050553750599731  1.0000
  C   C27       1.0  0.9418248573273545  0.03958919091199681  0.40505146538528436  1.0000
  C   C28       1.0  0.5368322819149044  0.4604603773164868  0.5949427080151679  1.0000
  C   C29       1.0  0.870752817825185  0.08938920115424762  0.5007564003109478  1.0000
  C   C30       1.0  0.37000721155680333  0.41061054476063674  0.4992672957118884  1.0000
  C   C31       1.0  0.12924804805700774  0.9106080655561258  0.4992433521187749  1.0000
  C   C32       1.0  0.629988839640717  0.5893920884600305  0.5007317162991782  1.0000
  C   C33       1.0  0.7440763840351537  0.18025208957563169  0.498068539719469  1.0000
  C   C34       1.0  0.24610309146506637  0.319719411110448  0.5020112366344874  1.0000
  C   C35       1.0  0.2559243419710171  0.8197442816069724  0.5019316953772801  1.0000
  C   C36       1.0  0.7538956468268266  0.680282329910611  0.4979871802518688  1.0000
  C   C37       1.0  0.6926756165701704  0.22082755393158487  0.4076951934637591  1.0000
  C   C38       1.0  0.2850724715936792  0.2792227065956752  0.5924292974597165  1.0000
  C   C39       1.0  0.30732538902853423  0.7791706038200702  0.5923056003595802  1.0000
  C   C40       1.0  0.7149237194798629  0.7207808221527611  0.4075692318843307  1.0000
  C   C41       1.0  0.7600493015069675  0.17083805585504314  0.313419037490732  1.0000
  C   C42       1.0  0.4467839922377621  0.3292758619361464  0.686671257179725  1.0000
  C   C43       1.0  0.23995029068630197  0.8291601024757681  0.6865815331981509  1.0000
  C   C44       1.0  0.5532158800265421  0.6707240964231929  0.3133253000538473  1.0000
  C   C45       1.0  0.12012879175771467  0.9178519180423166  0.6883417634536141  1.0000
  C   C46       1.0  0.43165803126630203  0.5820483641075498  0.3116171340856794  1.0000
  C   C47       1.0  0.8798695269061199  0.08214713639543451  0.3116581014337996  1.0000
  C   C48       1.0  0.5683421204310334  0.4179533763343527  0.688381505935119  1.0000
  N   N1        1.0  0.6779946464315217  0.9076978096903335  0.011367037688302332  1.0000
  N   N2        1.0  0.6667761461848158  0.5923513675124497  0.9886596061446793  1.0000
  N   N3        1.0  0.32201031971123223  0.0922985575115476  0.9886346288421206  1.0000
  N   N4        1.0  0.33322923982525043  0.40764769300247383  0.011338326293724775  1.0000
  N   N5        1.0  0.7134548644245483  0.1818498247180216  0.8768574355018971  1.0000
  N   N6        1.0  0.8362616316218238  0.31840639980354984  0.12320821203341839  1.0000
  N   N7        1.0  0.2865433146025183  0.8181483409216881  0.12314062596158952  1.0000
  N   N8        1.0  0.16373569294562168  0.6815953328236972  0.876793029839753  1.0000
  O   O1        1.0  0.8307254752747397  0.9689522976309776  0.03708338764013764  1.0000
  O   O2        1.0  0.7937458353175233  0.5310755791741215  0.9629492430861646  1.0000
  O   O3        1.0  0.16927935099199942  0.031043174043119796  0.9629187615572973  1.0000
  O   O4        1.0  0.20626462992572672  0.46892884604022095  0.03704874884441977  1.0000
  O   O5        1.0  0.5499671998562974  0.8880344320537858  0.91936138491355  1.0000
  O   O6        1.0  0.6307138922643248  0.6119753984448978  0.0806405380733253  1.0000
  O   O7        1.0  0.4500397234342087  0.11197444113146565  0.0806441927030264  1.0000
  O   O8        1.0  0.3692891020056734  0.3880174163872355  0.9193529295965913  1.0000
  O   O9        1.0  0.64753931302549  0.8599373468523698  0.08320899877007543  1.0000
  O   O10       1.0  0.564530411555694  0.6401232695709781  0.9168319841353207  1.0000
  O   O11       1.0  0.3524663677008776  0.1400545578341976  0.9167899700176675  1.0000
  O   O12       1.0  0.4354711534673328  0.3598784680485211  0.0831676410502595  1.0000
