data_image0
_chemical_formula_structural       Li4B4H48C24O12F16
_chemical_formula_sum              "Li4 B4 H48 C24 O12 F16"
_cell_length_a       8.189771533144837
_cell_length_b       8.836496639818282
_cell_length_c       13.776016043367951
_cell_angle_alpha    94.38756440417514
_cell_angle_beta     90.0006803919343
_cell_angle_gamma    89.99981911543354

_space_group_name_H-M_alt    "P 1"
_space_group_IT_number       1

loop_
  _space_group_symop_operation_xyz
  'x, y, z'

loop_
  _atom_site_type_symbol
  _atom_site_label
  _atom_site_symmetry_multiplicity
  _atom_site_fract_x
  _atom_site_fract_y
  _atom_site_fract_z
  _atom_site_occupancy
  Li  Li1       1.0  0.9437881144564315  0.14263529678476766  0.7340845241430356  1.0000
  Li  Li2       1.0  0.44378633182991933  0.3573584877741425  0.765915800661112  1.0000
  Li  Li3       1.0  0.056216474228449394  0.8573618075195029  0.2659063373650525  1.0000
  Li  Li4       1.0  0.5562231411697597  0.6426351175325493  0.2340915768927587  1.0000
  B   B1        1.0  0.6533918195350169  0.10412589746449191  0.8561671474274489  1.0000
  B   B2        1.0  0.15337521580722321  0.39586963814232223  0.6438297977444235  1.0000
  B   B3        1.0  0.34662620061774874  0.8958722968462424  0.14383175507069268  1.0000
  B   B4        1.0  0.8466330360906796  0.6041364806620065  0.35617314136442246  1.0000
  H   H1        1.0  0.5512350097170612  0.33983348188279183  0.5238937451515753  1.0000
  H   H2        1.0  0.0512357283607727  0.16016790978495274  0.9761085983635738  1.0000
  H   H3        1.0  0.44875981082689986  0.6601748864735129  0.4761129390023412  1.0000
  H   H4        1.0  0.9487590921237016  0.8398223437144807  0.02388917018691929  1.0000
  H   H5        1.0  0.7696941561905603  0.33389917268485897  0.5288930805323204  1.0000
  H   H6        1.0  0.2696947529902333  0.16610177396121625  0.97110858030679  1.0000
  H   H7        1.0  0.2303018852955176  0.666106978836666  0.47110405298312935  1.0000
  H   H8        1.0  0.7303012885489437  0.8338907372509609  0.028891481950985586  1.0000
  H   H9        1.0  0.5478528745000021  0.0992992322962678  0.6166354502329268  1.0000
  H   H10       1.0  0.04784844397506301  0.40069762650010426  0.883366636886066  1.0000
  H   H11       1.0  0.45214805118349943  0.9007091564939033  0.3833676054721025  1.0000
  H   H12       1.0  0.952143934487765  0.5992948683637067  0.1166363281349945  1.0000
  H   H13       1.0  0.6233433894520176  0.0812937709268766  0.49416894030225916  1.0000
  H   H14       1.0  0.12334710519461109  0.418707338025726  0.00583147130097931  1.0000
  H   H15       1.0  0.3766489889711053  0.9187134910592578  0.5058326056750033  1.0000
  H   H16       1.0  0.8766464943135759  0.5812828827705729  0.9941721027969733  1.0000
  H   H17       1.0  0.7237663366626493  0.8604579362805963  0.6375991704732157  1.0000
  H   H18       1.0  0.22375749103963471  0.6395421870705177  0.8624003129258923  1.0000
  H   H19       1.0  0.2762260416841542  0.1395391598603481  0.36239314238102327  1.0000
  H   H20       1.0  0.7762348874231931  0.360450307793286  0.13760265209516828  1.0000
  H   H21       1.0  0.7758617307703092  0.8723549740632207  0.5118226998437833  1.0000
  H   H22       1.0  0.2758615848245682  0.6276484656385078  0.9881736864144057  1.0000
  H   H23       1.0  0.2241330896228462  0.12765007517490548  0.48816856980523937  1.0000
  H   H24       1.0  0.7241307936208089  0.37234630737957986  0.011827943839989506  1.0000
  H   H25       1.0  0.9957688820442959  0.7419958734938348  0.6020118793900905  1.0000
  H   H26       1.0  0.49576035312431094  0.7580093717898251  0.8979868534661787  1.0000
  H   H27       1.0  0.0042234962844461  0.2579978299439958  0.3979780814504251  1.0000
  H   H28       1.0  0.5042271411865684  0.24199220299181695  0.1020165780231395  1.0000
  H   H29       1.0  0.0649704434593659  0.9106698166961348  0.5516293224892621  1.0000
  H   H30       1.0  0.5649645492238309  0.5893329172030232  0.9483677398834729  1.0000
  H   H31       1.0  0.9350255980107393  0.08932500128669568  0.44836432514416896  1.0000
  H   H32       1.0  0.4350278292355513  0.41066865348545173  0.051636417316501586  1.0000
  H   H33       1.0  0.2717197915677048  0.97834474084555  0.6824282534208164  1.0000
  H   H34       1.0  0.7717065893645626  0.5216620634505347  0.8175769877183967  1.0000
  H   H35       1.0  0.7282738078854153  0.021654584391782805  0.3175714329983704  1.0000
  H   H36       1.0  0.22829189427110924  0.4783519839354399  0.18242926230719547  1.0000
  H   H37       1.0  0.22730899212434957  0.7917622759765308  0.7194896492040639  1.0000
  H   H38       1.0  0.7273005033558348  0.7082423594747099  0.780513720142636  1.0000
  H   H39       1.0  0.7726931545462535  0.20823706560406663  0.2805071344685429  1.0000
  H   H40       1.0  0.272690654058799  0.2917671561386754  0.2194908452275044  1.0000
  H   H41       1.0  0.12399739653435658  0.9077379267437564  0.8790031462629031  1.0000
  H   H42       1.0  0.6239946135296748  0.5922646713308097  0.6209964969860521  1.0000
  H   H43       1.0  0.8760010870404783  0.09225914077443778  0.12099424646989117  1.0000
  H   H44       1.0  0.3760063121766848  0.4077368993487198  0.37900766024316107  1.0000
  H   H45       1.0  0.3306793054567266  0.9647314194272103  0.8599232501564982  1.0000
  H   H46       1.0  0.8306771051809462  0.5352741182761492  0.6400837874200249  1.0000
  H   H47       1.0  0.6693203991473737  0.03526451718866501  0.1400733585758971  1.0000
  H   H48       1.0  0.16932504155320063  0.4647399331940464  0.35992173692415  1.0000
  C   C1        1.0  0.6568721464024068  0.30151241147743235  0.5657162318402057  1.0000
  C   C2        1.0  0.156876768748802  0.1984932908433166  0.9342885189471416  1.0000
  C   C3        1.0  0.3431300003251039  0.6984948382343247  0.43428749125233407  1.0000
  C   C4        1.0  0.8431192727742741  0.8015003635340605  0.06571015023334331  1.0000
  C   C5        1.0  0.6481799179907526  0.13146694157676816  0.5687186255624821  1.0000
  C   C6        1.0  0.14818145468691313  0.36853993845947025  0.9312817699005719  1.0000
  C   C7        1.0  0.3518173445762045  0.8685380504260749  0.4312828038102481  1.0000
  C   C8        1.0  0.8518158078834901  0.6314559777187015  0.0687184672932375  1.0000
  C   C9        1.0  0.8089927806568156  0.9111063297630155  0.5872693603146926  1.0000
  C   C10       1.0  0.3089778042257905  0.5888958974380216  0.9127286456085315  1.0000
  C   C11       1.0  0.1910057028455014  0.08890212035049669  0.4127228099726779  1.0000
  C   C12       1.0  0.6910084690418117  0.4111000105755451  0.08727304293559968  1.0000
  C   C13       1.0  0.9831737338660674  0.8662514946458443  0.6063078292050219  1.0000
  C   C14       1.0  0.48316188031260765  0.6337526420167945  0.8936907591700416  1.0000
  C   C15       1.0  0.016824749667229393  0.1337433274224793  0.3936850927428066  1.0000
  C   C16       1.0  0.5168280560494126  0.3662466750482665  0.10631037862452788  1.0000
  C   C17       1.0  0.19218091199623194  0.9121978223815359  0.7283773251736534  1.0000
  C   C18       1.0  0.6921763184583584  0.5878103038283201  0.7716238017368794  1.0000
  C   C19       1.0  0.8078212346435265  0.0878026705403556  0.27161661403376053  1.0000
  C   C20       1.0  0.30782338619723504  0.4121980808750862  0.2283799796579231  1.0000
  C   C21       1.0  0.2047402195050054  0.9729124879402846  0.8331471264456026  1.0000
  C   C22       1.0  0.7047337067496289  0.5270876547942295  0.6668558552799196  1.0000
  C   C23       1.0  0.795255821971125  0.0270834609435866  0.16684730519239818  1.0000
  C   C24       1.0  0.2952659979160401  0.4729184558429366  0.3331485351875969  1.0000
  O   O1        1.0  0.8003262305923756  0.07386868773876637  0.6015746661592017  1.0000
  O   O2        1.0  0.30032079767215697  0.42613220705769816  0.8984250271212344  1.0000
  O   O3        1.0  0.19967347400766042  0.926130653844382  0.3984221175050563  1.0000
  O   O4        1.0  0.699672801817222  0.573861426881976  0.10157727052067139  1.0000
  O   O5        1.0  0.024440886552007206  0.9311095332864384  0.7016761552418912  1.0000
  O   O6        1.0  0.5244271316334307  0.5688978213270701  0.7983215887911965  1.0000
  O   O7        1.0  0.9755551549429242  0.0688830024540508  0.29831955285215617  1.0000
  O   O8        1.0  0.47556890991840106  0.43110262254458587  0.20168105872278363  1.0000
  O   O9        1.0  0.15319936780436194  0.12816947565194428  0.8373453851734353  1.0000
  O   O10       1.0  0.6532001359276832  0.37183626297718325  0.6626542606188011  1.0000
  O   O11       1.0  0.8468003368131322  0.8718275877769202  0.16265273325749519  1.0000
  O   O12       1.0  0.34681055803341115  0.6281698599126386  0.33734795280444263  1.0000
  F   F1        1.0  0.7962733708765696  0.192603703090974  0.8381623014027609  1.0000
  F   F2        1.0  0.296264762057774  0.30739267250018537  0.6618349538182143  1.0000
  F   F3        1.0  0.20373610189106023  0.8073991047699992  0.16182377181746685  1.0000
  F   F4        1.0  0.7037386057748307  0.69260546459315  0.3381741083451715  1.0000
  F   F5        1.0  0.5168196940381691  0.17615692139018793  0.8141302700771788  1.0000
  F   F6        1.0  0.016809074761219706  0.32383321696612194  0.6858669007055551  1.0000
  F   F7        1.0  0.48318611586770294  0.8238389457224145  0.1858786754733117  1.0000
  F   F8        1.0  0.9831894087719493  0.6761740818060887  0.31412811404700847  1.0000
  F   F9        1.0  0.6313787973927633  0.10044419808977521  0.9563109180690075  1.0000
  F   F10       1.0  0.1313601477355562  0.399544569574971  0.5436862523423471  1.0000
  F   F11       1.0  0.368661201429994  0.899549439889384  0.0436906540376469  1.0000
  F   F12       1.0  0.868665198631483  0.6004638314538013  0.4563146263643461  1.0000
  F   F13       1.0  0.6711193229435465  0.9576396564282773  0.8101826495942034  1.0000
  F   F14       1.0  0.1710975378123436  0.5423515094902952  0.68981383005314  1.0000
  F   F15       1.0  0.3288974761733172  0.0423528670263309  0.1898152356527091  1.0000
  F   F16       1.0  0.8289094930824774  0.45765232298492714  0.31019189520610263  1.0000
