data_image0
_chemical_formula_structural       Pr2Zn2H32C52N4Cl2O22
_chemical_formula_sum              "Pr2 Zn2 H32 C52 N4 Cl2 O22"
_cell_length_a       8.47935352060812
_cell_length_b       12.739901187349181
_cell_length_c       13.334780676689844
_cell_angle_alpha    107.62225930833732
_cell_angle_beta     104.9282412879975
_cell_angle_gamma    93.36686817709145

_space_group_name_H-M_alt    "P 1"
_space_group_IT_number       1

loop_
  _space_group_symop_operation_xyz
  'x, y, z'

loop_
  _atom_site_type_symbol
  _atom_site_label
  _atom_site_symmetry_multiplicity
  _atom_site_fract_x
  _atom_site_fract_y
  _atom_site_fract_z
  _atom_site_occupancy
  Pr  Pr1       1.0  0.24482362192068047  0.4911423125212623  0.9875919521245465  1.0000
  Pr  Pr2       1.0  0.7551796586957168  0.5088615942056123  0.012407420861023918  1.0000
  Zn  Zn1       1.0  0.3208094577029144  0.21490676916482707  0.16148392824418784  1.0000
  Zn  Zn2       1.0  0.6791896592226719  0.785094620948527  0.8385177934088333  1.0000
  H   H1        1.0  0.13150090769373424  0.5883660270161997  0.7890166342324322  1.0000
  H   H2        1.0  0.8685018380579735  0.41163538057106314  0.210979679195134  1.0000
  H   H3        1.0  0.995751070526609  0.58586538551738  0.853687128892844  1.0000
  H   H4        1.0  0.004252901757546063  0.4141360288461583  0.14631013452260785  1.0000
  H   H5        1.0  0.6787196677972461  0.1849183096260276  0.6767090627575031  1.0000
  H   H6        1.0  0.3212829319751762  0.8150822667314586  0.32329148602865837  1.0000
  H   H7        1.0  0.7656348515556601  0.0386266656225445  0.5369742612697623  1.0000
  H   H8        1.0  0.23436480182726874  0.961371400378617  0.4630280846828043  1.0000
  H   H9        1.0  0.04251420043321726  0.977568901269187  0.5918014776458235  1.0000
  H   H10       1.0  0.9574851102199488  0.022427499417510398  0.4082010808348074  1.0000
  H   H11       1.0  0.5140039097239821  0.9592943701013114  0.782003985698765  1.0000
  H   H12       1.0  0.48599905585601977  0.0407078728683103  0.2180001042816784  1.0000
  H   H13       1.0  0.07402864827336225  0.9766701734556662  0.8902588070643631  1.0000
  H   H14       1.0  0.9259701120757741  0.023329550564618304  0.10974087488332174  1.0000
  H   H15       1.0  0.160110953528509  0.831311693454353  0.9740379174261095  1.0000
  H   H16       1.0  0.8398839673973272  0.1686871782287369  0.025960897683098925  1.0000
  H   H17       1.0  0.4214885754046163  0.753881869888957  0.9566489289039879  1.0000
  H   H18       1.0  0.5785075812847893  0.24611700908947406  0.04335233768205172  1.0000
  H   H19       1.0  0.730045220094901  0.785527715122001  0.35980775734270776  1.0000
  H   H20       1.0  0.269952656451558  0.21447366743647928  0.640190762089027  1.0000
  H   H21       1.0  0.6360659392966423  0.8619112929253062  0.5289066949686045  1.0000
  H   H22       1.0  0.3639340429693689  0.1380884376117137  0.47109318622251106  1.0000
  H   H23       1.0  0.4201899364287128  0.7502087557052731  0.561792673942783  1.0000
  H   H24       1.0  0.5798137162034891  0.2497909946414794  0.4382085557230654  1.0000
  H   H25       1.0  0.2916642525177266  0.5070441484555915  0.6085482815795659  1.0000
  H   H26       1.0  0.7083409739922361  0.49295727424142666  0.3914544362905802  1.0000
  H   H27       1.0  0.04547344148228649  0.6888481985522145  0.40479722080954156  1.0000
  H   H28       1.0  0.9545268804905901  0.3111473737879322  0.5951992618505741  1.0000
  H   H29       1.0  0.9035603536081636  0.7695690484870853  0.5512122557437992  1.0000
  H   H30       1.0  0.09642984106881158  0.23042480588566858  0.44878134400805453  1.0000
  H   H31       1.0  0.9679007040690734  0.7157546880066619  0.7185163390930924  1.0000
  H   H32       1.0  0.03209350831941997  0.28424085174982133  0.2814791473499056  1.0000
  C   C1        1.0  0.10530489007294358  0.09144863866233517  0.756477980171887  1.0000
  C   C2        1.0  0.8946924839177794  0.9085502465732915  0.24352273491310678  1.0000
  C   C3        1.0  0.06128100747422851  0.17604768123172226  0.8344147860838549  1.0000
  C   C4        1.0  0.9387201967086581  0.8239520558220264  0.16558529435068434  1.0000
  C   C5        1.0  0.9056140801263554  0.20920282364293288  0.8036184314376273  1.0000
  C   C6        1.0  0.09438835058896437  0.7907969201870841  0.19638259898479749  1.0000
  C   C7        1.0  0.7988117148772106  0.1580628939926427  0.697686662686323  1.0000
  C   C8        1.0  0.20118966759390125  0.8419376761076408  0.30231443760088444  1.0000
  C   C9        1.0  0.8477771100856942  0.0764504385641374  0.6202650925309926  1.0000
  C   C10       1.0  0.15221993040638176  0.9235467818760908  0.37973733657099024  1.0000
  C   C11       1.0  0.0015219701537319004  0.0426076433719231  0.6496985452011901  1.0000
  C   C12       1.0  0.998476794810962  0.9573920809078944  0.3503018874909642  1.0000
  C   C13       1.0  0.1778596023860004  0.223093967780855  0.9493849872041552  1.0000
  C   C14       1.0  0.8221379452773832  0.7769057502417667  0.05061599698904469  1.0000
  C   C15       1.0  0.8564156037207766  0.30501880850899  0.8795410088953518  1.0000
  C   C16       1.0  0.14358732955028586  0.6949834326438803  0.12045782587381369  1.0000
  C   C17       1.0  0.4321505449006863  0.9324250771739742  0.823536839940914  1.0000
  C   C18       1.0  0.5678512033779981  0.0675771595384518  0.17646780154056074  1.0000
  C   C19       1.0  0.288890642175275  0.9790414167073962  0.8300804303386755  1.0000
  C   C20       1.0  0.7111098749554116  0.020960812969228495  0.1699225104104444  1.0000
  C   C21       1.0  0.18769790292286354  0.9431049069254058  0.8846312067361596  1.0000
  C   C22       1.0  0.812301031098933  0.05689564988187361  0.11536874431973135  1.0000
  C   C23       1.0  0.23627360138748796  0.8616856553942894  0.9313570145317911  1.0000
  C   C24       1.0  0.7637241199485557  0.1383148954153341  0.06864423876960758  1.0000
  C   C25       1.0  0.3800161474666907  0.817725079407879  0.9215797765173976  1.0000
  C   C26       1.0  0.6199812219084677  0.18227380556820796  0.07842018782312722  1.0000
  C   C27       1.0  0.3833536809112346  0.6144256079802304  0.4101845027886953  1.0000
  C   C28       1.0  0.6166475186560876  0.3855741288139854  0.5898148269013747  1.0000
  C   C29       1.0  0.4333490083916161  0.5707258746864738  0.3152226167821723  1.0000
  C   C30       1.0  0.5666530795939408  0.42927220382907905  0.684778626168317  1.0000
  C   C31       1.0  0.5610327293942843  0.6332527077318061  0.2992928633174968  1.0000
  C   C32       1.0  0.43896760021705455  0.3667486883792108  0.7007075560900234  1.0000
  C   C33       1.0  0.632475183102912  0.7388181540553378  0.3752537599268352  1.0000
  C   C34       1.0  0.36752164519933916  0.26118405477341616  0.624744829369682  1.0000
  C   C35       1.0  0.5794283408197956  0.7811493818609064  0.4678665547307261  1.0000
  C   C36       1.0  0.4205707668746683  0.21885200773337493  0.5321336654333636  1.0000
  C   C37       1.0  0.456545212446521  0.718584824683603  0.4868802676686528  1.0000
  C   C38       1.0  0.5434582665130137  0.28141409287614744  0.5131206928889968  1.0000
  C   C39       1.0  0.3472198111416063  0.4579234649765808  0.2359369313306843  1.0000
  C   C40       1.0  0.6527789538230877  0.5420762593032364  0.7640635013614698  1.0000
  C   C41       1.0  0.6276601659446753  0.5899743509440682  0.2042595649648007  1.0000
  C   C42       1.0  0.37233981632133606  0.4100253795929519  0.7957403162263079  1.0000
  C   C43       1.0  0.20760450686093176  0.5660219048175533  0.5948158105519568  1.0000
  C   C44       1.0  0.7923979284699525  0.43397783927199635  0.4051859706149373  1.0000
  C   C45       1.0  0.1818501868351206  0.5955808825735076  0.5001067885105002  1.0000
  C   C46       1.0  0.8181532828932916  0.4044180344671702  0.4998926705582108  1.0000
  C   C47       1.0  0.07097342289078767  0.6688825077678686  0.4808744448408504  1.0000
  C   C48       1.0  0.9290258646845614  0.3311138916211505  0.5191243599174487  1.0000
  C   C49       1.0  0.9929576850329908  0.7129530655431607  0.5609800191209757  1.0000
  C   C50       1.0  0.007038975804817887  0.2870424875063264  0.43901661655333163  1.0000
  C   C51       1.0  0.027049066126934848  0.6813322795807791  0.6547167240564136  1.0000
  C   C52       1.0  0.9729467247548912  0.31866493278550934  0.3452810013353514  1.0000
  N   N1        1.0  0.47557487711090823  0.8528493796636596  0.8678592249836541  1.0000
  N   N2        1.0  0.5244254755782405  0.1471520177450358  0.1321449481461983  1.0000
  N   N3        1.0  0.13078849029601966  0.6085560023887879  0.6710690424378286  1.0000
  N   N4        1.0  0.8692127185024319  0.3914437349245006  0.3289317887411728  1.0000
  Cl  Cl1       1.0  0.22664454233181172  0.12210247576604162  0.25594830670878116  1.0000
  Cl  Cl2       1.0  0.7733536969993297  0.8778947498932438  0.7440505679142931  1.0000
  O   O1        1.0  0.2620134238175211  0.0602605668426932  0.7817285813364736  1.0000
  O   O2        1.0  0.7379865722951775  0.9397391644729323  0.21827355208804272  1.0000
  O   O3        1.0  0.1463674991896653  0.1789886492250332  0.01758092623198588  1.0000
  O   O4        1.0  0.8536338786658818  0.8210119206157103  0.982419423310752  1.0000
  O   O5        1.0  0.29880113675545056  0.2975116985715616  0.971821793304507  1.0000
  O   O6        1.0  0.7011991928558885  0.7024896975394554  0.028178626103006425  1.0000
  O   O7        1.0  0.9705787467464759  0.38773209276259724  0.9424355041537495  1.0000
  O   O8        1.0  0.02942224524657887  0.6122726326796695  0.057560736475316746  1.0000
  O   O9        1.0  0.7083508617241705  0.3080781753032937  0.8804323120697931  1.0000
  O   O10       1.0  0.2916538098662044  0.6919265704677784  0.11956677852294459  1.0000
  O   O11       1.0  0.26272254856689164  0.5464304719661754  0.42355946602437206  1.0000
  O   O12       1.0  0.7372856490030486  0.4535676391330342  0.576442773143228  1.0000
  O   O13       1.0  0.40645691486987084  0.3738447847134124  0.2535654645745709  1.0000
  O   O14       1.0  0.5935456802869935  0.6261557913845336  0.7464343334671284  1.0000
  O   O15       1.0  0.2195782628308649  0.45507009647952407  0.15933665814406342  1.0000
  O   O16       1.0  0.7804260660297402  0.544932983977084  0.8406626449767317  1.0000
  O   O17       1.0  0.5328520309437295  0.5184918820233975  0.1125488631478575  1.0000
  O   O18       1.0  0.46714828482092224  0.4815095133090139  0.8874493040262551  1.0000
  O   O19       1.0  0.7756605280533578  0.621353681295389  0.21334144810887073  1.0000
  O   O20       1.0  0.22433963250087874  0.37864688228815885  0.7866594529349131  1.0000
  O   O21       1.0  0.11558653162760628  0.5911349227407641  0.8631595085985282  1.0000
  O   O22       1.0  0.8844174452721135  0.40886649188230717  0.1368385055613928  1.0000
