data_image0
_chemical_formula_structural       Ag4H36C28N12O8
_chemical_formula_sum              "Ag4 H36 C28 N12 O8"
_cell_length_a       8.151264284157643
_cell_length_b       9.335008401017648
_cell_length_c       12.164225510217696
_cell_angle_alpha    109.35750819747217
_cell_angle_beta     90.00070445247235
_cell_angle_gamma    89.9998688909528

_space_group_name_H-M_alt    "P 1"
_space_group_IT_number       1

loop_
  _space_group_symop_operation_xyz
  'x, y, z'

loop_
  _atom_site_type_symbol
  _atom_site_label
  _atom_site_symmetry_multiplicity
  _atom_site_fract_x
  _atom_site_fract_y
  _atom_site_fract_z
  _atom_site_occupancy
  Ag  Ag1       1.0  0.5254125012893313  6.866676469618999e-08  0.7499983648732852  1.0000
  Ag  Ag2       1.0  0.47458130251260405  0.9999957835325475  0.2500030501515695  1.0000
  Ag  Ag3       1.0  0.8294785303679932  7.4455547149983e-06  0.2500035533790097  1.0000
  Ag  Ag4       1.0  0.17051772702931345  0.9999986702805187  0.749998105741291  1.0000
  H   H1        1.0  0.7449896579847748  0.7173626296582541  0.7419348398212408  1.0000
  H   H2        1.0  0.744979356804379  0.2826459358984296  0.7580666635252057  1.0000
  H   H3        1.0  0.2550151870335072  0.282646907396078  0.2580669006979832  1.0000
  H   H4        1.0  0.25501812738980334  0.7173397136655951  0.24193123491163962  1.0000
  H   H5        1.0  0.9466723827223691  0.6003500779183498  0.847340489866042  1.0000
  H   H6        1.0  0.9466610533109263  0.3996531202599203  0.652664540542368  1.0000
  H   H7        1.0  0.053337369530041215  0.3996639699262872  0.1526640862560029  1.0000
  H   H8        1.0  0.0533315236578815  0.6003291385858702  0.3473316402519302  1.0000
  H   H9        1.0  0.1031804410806316  0.8146009508139259  0.13468620075215654  1.0000
  H   H10       1.0  0.10317114823308772  0.18540119451805745  0.365319720955199  1.0000
  H   H11       1.0  0.896824403977462  0.18541760781201336  0.8653212109300483  1.0000
  H   H12       1.0  0.8968251091286066  0.8145856513606519  0.6346752047875341  1.0000
  H   H13       1.0  0.9453984785505868  0.6845841298570862  0.1395642339392182  1.0000
  H   H14       1.0  0.9453875152177889  0.315424301019391  0.36043957476597654  1.0000
  H   H15       1.0  0.054606366466202906  0.31543109905011596  0.8604381876025259  1.0000
  H   H16       1.0  0.054607515367791806  0.6845670403952511  0.6395590046827309  1.0000
  H   H17       1.0  0.09708738583945122  0.6309674478887362  0.02595120922698872  1.0000
  H   H18       1.0  0.09708204415019851  0.3690404238611791  0.4740528861494653  1.0000
  H   H19       1.0  0.9029174591833782  0.3690534576225843  0.9740527114670954  1.0000
  H   H20       1.0  0.9029142132253585  0.6309452561992119  0.5259433760224255  1.0000
  H   H21       1.0  0.452199951044186  0.5652267575888106  0.9026118137850859  1.0000
  H   H22       1.0  0.45218137656002716  0.43477318601237164  0.5973924079748656  1.0000
  H   H23       1.0  0.547820842384411  0.43477033669733345  0.09738417427890061  1.0000
  H   H24       1.0  0.5478112004974208  0.5652214088750185  0.4026152522526871  1.0000
  H   H25       1.0  0.3129991434092149  0.5200029604628967  0.995119692363872  1.0000
  H   H26       1.0  0.31298119987060613  0.4800103972091424  0.5048844625768752  1.0000
  H   H27       1.0  0.6870228768515859  0.47999976468225475  0.00488024924722202  1.0000
  H   H28       1.0  0.6870101503621768  0.519978551570496  0.4951200622333829  1.0000
  H   H29       1.0  0.6145872036240905  0.16881336458757093  0.9962710547900856  1.0000
  H   H30       1.0  0.6145854578136893  0.8311927824527603  0.5037238062602967  1.0000
  H   H31       1.0  0.3854066001444211  0.8312007594861657  0.0037294306135678412  1.0000
  H   H32       1.0  0.38541079952056384  0.1687895678888935  0.49626746577114034  1.0000
  H   H33       1.0  0.6934480237040433  0.17960828244505225  0.1349144825436568  1.0000
  H   H34       1.0  0.6934578532111574  0.8203984896384072  0.36509010814626924  1.0000
  H   H35       1.0  0.30654578012987344  0.8204034337483109  0.8650927663673684  1.0000
  H   H36       1.0  0.3065433113873653  0.17958831049856636  0.6349072720072328  1.0000
  C   C1        1.0  0.7472207380053321  0.9846901283926216  0.9968889219286226  1.0000
  C   C2        1.0  0.7472150685368106  0.0153275238304218  0.5031149994816958  1.0000
  C   C3        1.0  0.25277797302474886  0.015333002008482303  0.003118052789162101  1.0000
  C   C4        1.0  0.2527836424105915  0.984660503117603  0.49687777171273967  1.0000
  C   C5        1.0  0.7800266950733317  0.7749579450728561  0.8325956736120049  1.0000
  C   C6        1.0  0.7800320604446471  0.2250517591402641  0.6674097068111564  1.0000
  C   C7        1.0  0.21996710873257547  0.22506292993084295  0.16740988329369344  1.0000
  C   C8        1.0  0.21995806292309084  0.7749361763073994  0.33258797312480953  1.0000
  C   C9        1.0  0.8867334670139757  0.7083913221707833  0.8908290538642022  1.0000
  C   C10       1.0  0.8867277668517561  0.29161748833533363  0.60917450014243  1.0000
  C   C11       1.0  0.11326524398504033  0.2916239067307842  0.1091733676508753  1.0000
  C   C12       1.0  0.11326971732102464  0.708369342295754  0.39082124373545213  1.0000
  C   C13       1.0  0.9144534705337792  0.7867141151643865  0.008610285073011441  1.0000
  C   C14       1.0  0.9144525519188564  0.21329427416542765  0.49139243646872893  1.0000
  C   C15       1.0  0.08554892085719963  0.21329773827558549  0.9913896007070447  1.0000
  C   C16       1.0  0.08554493224006882  0.7866937222839783  0.5086019709799956  1.0000
  C   C17       1.0  0.021973035453164903  0.7246684614092019  0.08095453828130421  1.0000
  C   C18       1.0  0.021968165217188602  0.27534042302604433  0.41904838565316277  1.0000
  C   C19       1.0  0.9780318095835272  0.2753512782838072  0.9190507188419375  1.0000
  C   C20       1.0  0.9780293189429445  0.7246487087441907  0.5809463216260299  1.0000
  C   C21       1.0  0.41764334435144695  0.3286844832384617  0.8670985329276135  1.0000
  C   C22       1.0  0.4176407265929499  0.671329127534179  0.6329032594772528  1.0000
  C   C23       1.0  0.5823713150654157  0.6713182876461731  0.13289895426204618  1.0000
  C   C24       1.0  0.5823506236446719  0.3286643625287554  0.3671024646548702  1.0000
  C   C25       1.0  0.43379111110294843  0.48907582295535  0.9538352405677344  1.0000
  C   C26       1.0  0.4337824294116076  0.5109218772158143  0.5461649489839573  1.0000
  C   C27       1.0  0.5662223214853342  0.5109247230327512  0.04615919256622191  1.0000
  C   C28       1.0  0.5662113744282921  0.4890670715660761  0.4538395758369731  1.0000
  N   N1        1.0  0.6849136427013606  0.12317852446638261  0.04648295398055071  1.0000
  N   N2        1.0  0.6849175822502007  0.8768318208928536  0.45351264440810723  1.0000
  N   N3        1.0  0.3150789342759738  0.876840125640783  0.9535195488694513  1.0000
  N   N4        1.0  0.31507990188398344  0.12314712348744912  0.546477728137262  1.0000
  N   N5        1.0  0.7139488720479151  0.9116499200099286  0.8822546520657186  1.0000
  N   N6        1.0  0.7139463364511728  0.08836090496132702  0.6177447266758591  1.0000
  N   N7        1.0  0.2860486121599095  0.0883698349250679  0.1177497868957076  1.0000
  N   N8        1.0  0.2860548280885596  0.9116203253127467  0.3822454274166347  1.0000
  N   N9        1.0  0.8415890103688358  0.921818486789725  0.06240224324695015  1.0000
  N   N10       1.0  0.841583791017314  0.07818858771443621  0.43760199925392135  1.0000
  N   N11       1.0  0.15841583466181675  0.0781955762991586  0.9376015147239515  1.0000
  N   N12       1.0  0.15841369315668172  0.9217993782374736  0.5623940444544289  1.0000
  O   O1        1.0  0.3143016065296181  0.30584495865684164  0.786029730365705  1.0000
  O   O2        1.0  0.3143077767508232  0.6941661612840593  0.7139722000846832  1.0000
  O   O3        1.0  0.6857167332903701  0.6941578274799198  0.21396693871014352  1.0000
  O   O4        1.0  0.6856774394349686  0.3058308109794511  0.2860303328631204  1.0000
  O   O5        1.0  0.511674443185406  0.22645060112351703  0.8831642281787566  1.0000
  O   O6        1.0  0.5116822931750848  0.7735460304658589  0.6168404294853147  1.0000
  O   O7        1.0  0.4883144534475151  0.7735451595788165  0.11684209560363719  1.0000
  O   O8        1.0  0.4883139642529316  0.2264463700269985  0.3831625404482395  1.0000
