data_image0
_chemical_formula_structural       Zn4H52C87N20O2
_chemical_formula_sum              "Zn4 H52 C87 N20 O2"
_cell_length_a       19.06365073747583
_cell_length_b       18.739945960655092
_cell_length_c       21.414927546553738
_cell_angle_alpha    106.0166002196625
_cell_angle_beta     107.32268205555683
_cell_angle_gamma    110.68772041468691

_space_group_name_H-M_alt    "P 1"
_space_group_IT_number       1

loop_
  _space_group_symop_operation_xyz
  'x, y, z'

loop_
  _atom_site_type_symbol
  _atom_site_label
  _atom_site_symmetry_multiplicity
  _atom_site_fract_x
  _atom_site_fract_y
  _atom_site_fract_z
  _atom_site_occupancy
  Zn  Zn1       1.0  0.890950663709674  0.8902443126904488  0.49118105301850074  1.0000
  Zn  Zn2       1.0  0.07524532056918787  0.1070747961407292  0.47988387651676595  1.0000
  Zn  Zn3       1.0  0.09204190996645419  0.0458314551860468  0.6360769908066003  1.0000
  Zn  Zn4       1.0  0.8738820801886645  0.9865411765600812  0.37871676872785526  1.0000
  H   H1        1.0  0.8510974694285524  0.807983559704347  0.6037550816887246  1.0000
  H   H2        1.0  0.27035143546400775  0.17804711686060407  0.5104612755010719  1.0000
  H   H3        1.0  0.11775521918911377  0.8956149871667732  0.6790047243112554  1.0000
  H   H4        1.0  0.879705235481687  0.9679826148426474  0.2155840981224132  1.0000
  H   H5        1.0  0.1311800614611585  0.0399404367126337  0.36126808459371773  1.0000
  H   H6        1.0  0.9350429760428227  0.7484378283751739  0.4550377323212514  1.0000
  H   H7        1.0  0.8855982011804285  0.8581358052289971  0.2565330313977936  1.0000
  H   H8        1.0  0.24688535780395418  0.03537049362829947  0.6381466575348752  1.0000
  H   H9        1.0  0.4088888454395132  0.20997095733240909  0.5485368029540325  1.0000
  H   H10       1.0  0.36263305255683054  0.020657015632202975  0.6307276677643401  1.0000
  H   H11       1.0  0.45816971042079047  0.9589939490977031  0.6514502198601733  1.0000
  H   H12       1.0  0.08116299245557461  0.2503962407964124  0.6112611896400536  1.0000
  H   H13       1.0  0.5660237049482858  0.9304479069658665  0.6256816866285317  1.0000
  H   H14       1.0  0.6567707307480574  0.9445599076622885  0.5623205482186789  1.0000
  H   H15       1.0  0.6975911959679734  0.12740463806853322  0.47342246574788044  1.0000
  H   H16       1.0  0.6322239317107189  0.22136175152891716  0.48755677781939255  1.0000
  H   H17       1.0  0.5269972763657333  0.2524331492449504  0.5162732589374668  1.0000
  H   H18       1.0  0.1324448976075203  0.7600928205360519  0.6594345947341794  1.0000
  H   H19       1.0  0.8765180633376203  0.6433797029475699  0.5017116623816874  1.0000
  H   H20       1.0  0.7814446224515093  0.49236281235927476  0.4631177558446422  1.0000
  H   H21       1.0  0.7629533965518861  0.35344736007026967  0.45878692506603597  1.0000
  H   H22       1.0  0.8281114372454681  0.2655207266178791  0.4860158387964972  1.0000
  H   H23       1.0  0.2692418764038961  0.13368921734168981  0.7805471857995342  1.0000
  H   H24       1.0  0.08435051405043477  0.3831155536255936  0.6444394722639756  1.0000
  H   H25       1.0  0.1660721558378597  0.53863049648146  0.7102880177608526  1.0000
  H   H26       1.0  0.18453479633798503  0.677529227801955  0.714699479078739  1.0000
  H   H27       1.0  0.416494774632902  0.20993200444377177  0.8325539089935673  1.0000
  H   H28       1.0  0.757970688658446  0.46645955080521156  0.12399213074427698  1.0000
  H   H29       1.0  0.3975576793848248  0.40847020384657645  0.7761803211205276  1.0000
  H   H30       1.0  0.7061254292127115  0.6259794509330944  0.027926053934166258  1.0000
  H   H31       1.0  0.5493372743205426  0.5015831863830441  0.8556745612223366  1.0000
  H   H32       1.0  0.6893094224575051  0.9895118283237995  0.3700609361387777  1.0000
  H   H33       1.0  0.7771667388980604  0.7444093835493392  0.14996003997794113  1.0000
  H   H34       1.0  0.8914878920051874  0.8623991899347132  0.13315968925498803  1.0000
  H   H35       1.0  0.9032110397615793  0.8153050514652447  0.018096021925835152  1.0000
  H   H36       1.0  0.8612843488787548  0.7475841613628945  0.8149506895759088  1.0000
  H   H37       1.0  0.8436003901603684  0.7821964748728263  0.7090195794499222  1.0000
  H   H38       1.0  0.15774176845962976  0.027098893039720868  0.24696242539732785  1.0000
  H   H39       1.0  0.09986488437454709  0.9703510734245173  0.9417409937809396  1.0000
  H   H40       1.0  0.16835630842647484  0.9773970750780236  0.13120233408615428  1.0000
  H   H41       1.0  0.0833287185169809  0.0059178050865326855  0.8366123429142079  1.0000
  H   H42       1.0  0.2563509191689164  0.3338794207495255  0.7220280206806748  1.0000
  H   H43       1.0  0.8123223822115762  0.9820049061719016  0.571884667259006  1.0000
  H   H44       1.0  0.8366863354369939  0.14666208294271846  0.4346473512294508  1.0000
  H   H45       1.0  0.04588958864891881  0.061686791972249515  0.7561196779709931  1.0000
  H   H46       1.0  0.8078540576065975  0.6895668404781432  0.3534762575622067  1.0000
  H   H47       1.0  0.5803186367700945  0.20666351514462616  0.9459072722108458  1.0000
  H   H48       1.0  0.7467262048871673  0.4665225754726308  0.2363957993063153  1.0000
  H   H49       1.0  0.8226776668371089  0.444452224357569  0.33985171788663143  1.0000
  H   H50       1.0  0.9708167381121556  0.54846992168482  0.42497681917756575  1.0000
  H   H51       1.0  0.04302716654497369  0.6748519900030274  0.4062205208525995  1.0000
  H   H52       1.0  0.9671564935678488  0.6966166823222011  0.30296823807017137  1.0000
  C   C1        1.0  0.8977329804130675  0.8741436256055124  0.6319534508479164  1.0000
  C   C2        1.0  0.9572829163055018  0.23342035230219668  0.5367875414547424  1.0000
  C   C3        1.0  0.30328222194300025  0.25476006230773857  0.7667417208161638  1.0000
  C   C4        1.0  0.730718715538167  0.0005547382581880709  0.48404352553229285  1.0000
  C   C5        1.0  0.8301074146642266  0.7426123868789462  0.3402277592635413  1.0000
  C   C6        1.0  0.2526999939742113  0.14289458438040736  0.540788350689418  1.0000
  C   C7        1.0  0.07496104760927838  0.8719198830464094  0.6226474750291331  1.0000
  C   C8        1.0  0.9386465061082915  0.9907184664556183  0.2613387107857078  1.0000
  C   C9        1.0  0.06728987328615692  0.028005307803013614  0.3350085974281427  1.0000
  C   C10       1.0  0.9799845771790814  0.7971407555284885  0.5089621680012114  1.0000
  C   C11       1.0  0.8690707257506103  0.828716463023859  0.290586084708785  1.0000
  C   C12       1.0  0.023021831942116898  0.2156255330379082  0.5619979594224062  1.0000
  C   C13       1.0  0.2397590806464507  0.06949594921265145  0.6052123722051447  1.0000
  C   C14       1.0  0.838170448119662  0.7434361835024247  0.27705581110124916  1.0000
  C   C15       1.0  0.29553798779953405  0.11113395295636509  0.5806522489239683  1.0000
  C   C16       1.0  0.020829825514446995  0.7882564632303544  0.5704793324916012  1.0000
  C   C17       1.0  0.011935393868029099  0.9888269234930154  0.26127494317078975  1.0000
  C   C18       1.0  0.4247518968370514  0.16483457171397478  0.5639909709623367  1.0000
  C   C19       1.0  0.3750641830910125  0.11365679603743929  0.5873799358636944  1.0000
  C   C20       1.0  0.3995812249367887  0.059787703641880796  0.6110966885709388  1.0000
  C   C21       1.0  0.4676829722324173  0.05051837242604762  0.6058005773151507  1.0000
  C   C22       1.0  0.5127273218246983  0.09669685269356164  0.5751199117192485  1.0000
  C   C23       1.0  0.25225767389845544  0.17532621030421325  0.7603473612905417  1.0000
  C   C24       1.0  0.49257399877606634  0.15692764524063554  0.5566413035316983  1.0000
  C   C25       1.0  0.49074569584541894  0.9921302194795487  0.6257740710871502  1.0000
  C   C26       1.0  0.5502273446698426  0.9762117041268542  0.6114020762742741  1.0000
  C   C27       1.0  0.5917231452793033  0.016973876441660585  0.5754987788947685  1.0000
  C   C28       1.0  0.5738580356801322  0.07947155326376526  0.5593791610001871  1.0000
  C   C29       1.0  0.6146239421710079  0.12143425672218906  0.5239929544075466  1.0000
  C   C30       1.0  0.5980148562186256  0.18640896163295634  0.5113214002840464  1.0000
  C   C31       1.0  0.5399474512334451  0.20374588721648482  0.5273141879036415  1.0000
  C   C32       1.0  0.6456087950797027  0.9946007888465689  0.5524992225738571  1.0000
  C   C33       1.0  0.6814054296489404  0.03144662672527686  0.5133932033263661  1.0000
  C   C34       1.0  0.7276397153996043  0.9828617216136875  0.4148311856636439  1.0000
  C   C35       1.0  0.667230624336483  0.09608032585234128  0.5012630342326075  1.0000
  C   C36       1.0  0.0708592144254325  0.7047947254532331  0.6269015475947554  1.0000
  C   C37       1.0  0.0066223168056183  0.7102484009831757  0.5786887414003773  1.0000
  C   C38       1.0  0.927470904202444  0.6389318400007582  0.537712465401114  1.0000
  C   C39       1.0  0.912613136375569  0.5613796807916529  0.5404525093905689  1.0000
  C   C40       1.0  0.9797694751695473  0.5550806701495785  0.5863806911617427  1.0000
  C   C41       1.0  0.059058482456798296  0.628700334397486  0.6317810167853111  1.0000
  C   C42       1.0  0.8333239257671748  0.486763684029853  0.49642561441932287  1.0000
  C   C43       1.0  0.8231743379481811  0.40997299959431627  0.494033688428871  1.0000
  C   C44       1.0  0.8915381774464848  0.4009015718334368  0.5352820636749909  1.0000
  C   C45       1.0  0.2444916006199023  0.27635951453807917  0.7295161122293193  1.0000
  C   C46       1.0  0.9691794727088235  0.47532471926109565  0.5839132226205235  1.0000
  C   C47       1.0  0.03780441271404559  0.4681880711459314  0.6264920390697383  1.0000
  C   C48       1.0  0.11472514111464699  0.543951364072896  0.6758100485870244  1.0000
  C   C49       1.0  0.12494690700828671  0.6207087856178433  0.6781904658150424  1.0000
  C   C50       1.0  0.8867438527409772  0.3219370000874803  0.5256319183074466  1.0000
  C   C51       1.0  0.9566446558610124  0.31425115949184607  0.561582464794668  1.0000
  C   C52       1.0  0.029979681503611695  0.3878125660255165  0.6146312246379323  1.0000
  C   C53       1.0  0.8101624333682266  0.6742596868973224  0.20754676628385468  1.0000
  C   C54       1.0  0.7762688115840745  0.6843641335692041  0.14429253451058321  1.0000
  C   C55       1.0  0.7357565669449854  0.6186635187281413  0.07606086105455032  1.0000
  C   C56       1.0  0.7895748347385947  0.9781980492185057  0.5175772122134815  1.0000
  C   C57       1.0  0.7252609112196635  0.5380982577461992  0.0688634924386661  1.0000
  C   C58       1.0  0.7636301200347971  0.5284083808401546  0.13064724986300993  1.0000
  C   C59       1.0  0.8079487449385993  0.5956527479632996  0.19971760037963543  1.0000
  C   C60       1.0  0.5300056933415078  0.3254825076118165  0.8814021086252809  1.0000
  C   C61       1.0  0.4445491616053658  0.2746498507329633  0.8385918071882088  1.0000
  C   C62       1.0  0.5669396274593907  0.4108560036436017  0.89169369853753  1.0000
  C   C63       1.0  0.393558794761418  0.3043806479718967  0.8033660495377218  1.0000
  C   C64       1.0  0.4339441412299294  0.38488050820322434  0.8057785051405303  1.0000
  C   C65       1.0  0.5188985511030708  0.4367871831524894  0.8490158006882566  1.0000
  C   C66       1.0  0.9610278834647586  0.8982219921927025  0.7655288422637624  1.0000
  C   C67       1.0  0.8975661286735317  0.1605770518380965  0.4721927310100753  1.0000
  C   C68       1.0  0.034373799927081394  0.9491246037708979  0.8315473192410537  1.0000
  C   C69       1.0  0.04468591512758019  0.9293866494192146  0.8901287349895881  1.0000
  C   C70       1.0  0.9810789604547522  0.8572853855662218  0.8850214449806656  1.0000
  C   C71       1.0  0.9098270104813365  0.8034793259454176  0.8184239647616776  1.0000
  C   C72       1.0  0.9003076978155065  0.8234388937339432  0.7596163554681253  1.0000
  C   C73       1.0  0.9583051966152352  0.8609943089845231  0.06873737445113877  1.0000
  C   C74       1.0  0.9523864874065991  0.8887338665486197  0.13292918254406047  1.0000
  C   C75       1.0  0.036235785701308  0.896117541539276  0.06738754670313087  1.0000
  C   C76       1.0  0.0231008426096295  0.9519931432381558  0.19771751047146327  1.0000
  C   C77       1.0  0.1017710001424561  0.9798546105901169  0.19726833981604128  1.0000
  C   C78       1.0  0.9973327030407474  0.003214477351107884  0.7096992739096563  1.0000
  C   C79       1.0  0.10826323383684407  0.9522499883891842  0.13293577404113682  1.0000
  C   C80       1.0  0.9507505880222735  0.9237485949575301  0.7064039886829717  1.0000
  C   C81       1.0  0.5816971339435425  0.28749728287801446  0.9095186937877101  1.0000
  C   C82       1.0  0.8516241549514659  0.5831825931741578  0.26255527725381705  1.0000
  C   C83       1.0  0.8118674517549564  0.5120377574297166  0.2735515987201821  1.0000
  C   C84       1.0  0.8544889644578575  0.4996398611502073  0.3315964286224257  1.0000
  C   C85       1.0  0.937714205079402  0.5579786004348575  0.379505874166476  1.0000
  C   C86       1.0  0.9780411559607954  0.6289593536831147  0.36906702764062504  1.0000
  C   C87       1.0  0.9353791890992865  0.6414794810859306  0.3112681735155646  1.0000
  N   N1        1.0  0.9135046504075673  0.9203299489174483  0.5949496143238874  1.0000
  N   N2        1.0  0.17836359862231888  0.12236645440713534  0.543028215524849  1.0000
  N   N3        1.0  0.06534345897342318  0.925149895863875  0.5939304365490442  1.0000
  N   N4        1.0  0.9484553328849687  0.026424480061926745  0.32917608431948503  1.0000
  N   N5        1.0  0.028905518915067298  0.049889345008359995  0.3750272110979864  1.0000
  N   N6        1.0  0.006316409630777299  0.8798610153207349  0.5234099816553197  1.0000
  N   N7        1.0  0.8780641964228834  0.8750302270736015  0.35585139945242616  1.0000
  N   N8        1.0  0.1697887341207434  0.0764661297913989  0.5824708407209016  1.0000
  N   N9        1.0  0.666970646629366  0.46448651800053387  0.004755232378926047  1.0000
  N   N10       1.0  0.6412812656230215  0.47803511820632133  0.9493761332202125  1.0000
  N   N11       1.0  0.9785983341286267  0.8430167945804427  0.9454661579742093  1.0000
  N   N12       1.0  0.003815753132343499  0.13862963940831463  0.5145441134458366  1.0000
  N   N13       1.0  0.04581733846234211  0.8902517796644673  0.0037782998574157995  1.0000
  N   N14       1.0  0.17097062223772497  0.15278408756395825  0.7223238903509709  1.0000
  N   N15       1.0  0.7796718026847032  0.9511461792649032  0.4073168706370324  1.0000
  N   N16       1.0  0.1661460933997745  0.21588099385159865  0.7026031724625598  1.0000
  N   N17       1.0  0.8190689798016277  0.9494677365217186  0.4718449600505961  1.0000
  N   N18       1.0  0.9263530828434979  0.10520624169005535  0.45910097499017144  1.0000
  N   N19       1.0  0.9759551107330535  0.0008984678513780668  0.6426381600128648  1.0000
  N   N20       1.0  0.8530988710352927  0.821134086735924  0.3862871609935609  1.0000
  O   O1        1.0  0.6478479724190932  0.2990979937869226  0.9073352368263982  1.0000
  O   O2        1.0  0.543301658038743  0.230945183391384  0.9331044725364135  1.0000
