data_image0
_chemical_formula_structural       Cu4H4C12N28
_chemical_formula_sum              "Cu4 H4 C12 N28"
_cell_length_a       7.356005151671591
_cell_length_b       9.431264595787168
_cell_length_c       9.653668954002065
_cell_angle_alpha    90.00004494946648
_cell_angle_beta     90.00003279474137
_cell_angle_gamma    114.08261828349278

_space_group_name_H-M_alt    "P 1"
_space_group_IT_number       1

loop_
  _space_group_symop_operation_xyz
  'x, y, z'

loop_
  _atom_site_type_symbol
  _atom_site_label
  _atom_site_symmetry_multiplicity
  _atom_site_fract_x
  _atom_site_fract_y
  _atom_site_fract_z
  _atom_site_occupancy
  Cu  Cu1       1.0  0.7578931161150348  0.5332587885282078  0.07737405158086122  1.0000
  Cu  Cu2       1.0  0.7421063607849447  0.966739920938572  0.5773737263482417  1.0000
  Cu  Cu3       1.0  0.24211201528779475  0.46674540739685005  0.9226255938415592  1.0000
  Cu  Cu4       1.0  0.2578885813221561  0.033254924942973184  0.422625919068615  1.0000
  H   H1        1.0  0.5237340560407021  0.6867002009203916  0.3319062864913249  1.0000
  H   H2        1.0  0.9762679132585462  0.813297721508782  0.8319059749435173  1.0000
  H   H3        1.0  0.4762608860685232  0.3132946449632568  0.6680964665522993  1.0000
  H   H4        1.0  0.023742096545994705  0.1867053727840684  0.16809470635531912  1.0000
  C   C1        1.0  0.6840355320638096  0.7394997181513431  0.31937949954249945  1.0000
  C   C2        1.0  0.8159644628718183  0.7604970111132728  0.819379074930332  1.0000
  C   C3        1.0  0.31596332449374387  0.2604974801585981  0.6806222176272669  1.0000
  C   C4        1.0  0.18403109865599282  0.2395070803996546  0.18062160636530683  1.0000
  C   C5        1.0  0.12812369684068872  0.7723680616958576  0.16545033387427577  1.0000
  C   C6        1.0  0.37187732767779386  0.7276313175740725  0.6654550943853934  1.0000
  C   C7        1.0  0.871870684485451  0.22763370721950343  0.8345462039179522  1.0000
  C   C8        1.0  0.6281254433287985  0.2723682331628652  0.33454662278609965  1.0000
  C   C9        1.0  0.9777050411749286  0.7952463939264902  0.2454874763577095  1.0000
  C   C10       1.0  0.522293111687425  0.7047548357928831  0.7454910150412176  1.0000
  C   C11       1.0  0.022292261329823797  0.2047530971445752  0.7545121690612505  1.0000
  C   C12       1.0  0.47770810526707663  0.29524700770587486  0.2545096662550606  1.0000
  N   N1        1.0  0.2278297632888808  0.6472297224889799  0.0239983980337044  1.0000
  N   N2        1.0  0.2721736150211384  0.8527718028828487  0.5240042278819886  1.0000
  N   N3        1.0  0.7721702734653776  0.3527697984136182  0.9760002115103462  1.0000
  N   N4        1.0  0.727824464510725  0.147226541808358  0.47599748928795554  1.0000
  N   N5        1.0  0.805452085533531  0.8583117702340389  0.3962705413663984  1.0000
  N   N6        1.0  0.6945542601303742  0.6416839763616977  0.8962710152125981  1.0000
  N   N7        1.0  0.19454363360067353  0.14168192926764075  0.6037311758014496  1.0000
  N   N8        1.0  0.30545751997028253  0.35832260182119313  0.10372655846104813  1.0000
  N   N9        1.0  0.9934288907985473  0.8938200943780785  0.3479884378471213  1.0000
  N   N10       1.0  0.5065766117812062  0.6061767332652437  0.8479898323336742  1.0000
  N   N11       1.0  0.006567821608214785  0.10617823539700308  0.6520132793224891  1.0000
  N   N12       1.0  0.4934314408002366  0.39382518481551193  0.1520129207154781  1.0000
  N   N13       1.0  0.06222968328889073  0.6500377840864004  0.07872884514203093  1.0000
  N   N14       1.0  0.43777317980200076  0.849962654046756  0.5787326823612844  1.0000
  N   N15       1.0  0.9377695764389673  0.3499628831967598  0.92126872852662  1.0000
  N   N16       1.0  0.5622268569536713  0.150036866857242  0.4212679989339421  1.0000
  N   N17       1.0  0.7857974117373062  0.6961825067430994  0.22381687961045318  1.0000
  N   N18       1.0  0.7142044096764195  0.8038152694231329  0.7238185054528259  1.0000
  N   N19       1.0  0.21419715651724403  0.3038169544957299  0.7761827658078246  1.0000
  N   N20       1.0  0.28579876450260144  0.19618775028912688  0.2761821758443191  1.0000
  N   N21       1.0  0.3870259475830693  0.7633647065448484  0.07476259414423941  1.0000
  N   N22       1.0  0.11297672315834724  0.7366380339032547  0.5747713774880552  1.0000
  N   N23       1.0  0.6129719450182662  0.23663594582079378  0.9252329077729019  1.0000
  N   N24       1.0  0.8870240906244362  0.263360340620885  0.42523137555815543  1.0000
  N   N25       1.0  0.32757140179830196  0.8444304457577088  0.1646009883215456  1.0000
  N   N26       1.0  0.17243002473399108  0.6555724013416293  0.6646097474780817  1.0000
  N   N27       1.0  0.6724229795264236  0.15557132315625213  0.8353934777195067  1.0000
  N   N28       1.0  0.827572156174604  0.34442598809933145  0.3353940414440616  1.0000
