data_image0
_chemical_formula_structural       Zn4H24C74Br8O16
_chemical_formula_sum              "Zn4 H24 C74 Br8 O16"
_cell_length_a       16.458180493613575
_cell_length_b       16.605734618224226
_cell_length_c       28.345559617675566
_cell_angle_alpha    90.93220106076943
_cell_angle_beta     89.74695896381763
_cell_angle_gamma    89.96196850715506

_space_group_name_H-M_alt    "P 1"
_space_group_IT_number       1

loop_
  _space_group_symop_operation_xyz
  'x, y, z'

loop_
  _atom_site_type_symbol
  _atom_site_label
  _atom_site_symmetry_multiplicity
  _atom_site_fract_x
  _atom_site_fract_y
  _atom_site_fract_z
  _atom_site_occupancy
  Zn  Zn1       1.0  0.501052763136137  0.914264078452618  0.49976614318753576  1.0000
  Zn  Zn2       1.0  0.49953309648196154  0.07676488808741061  0.5008466141511079  1.0000
  Zn  Zn3       1.0  0.08490712087269263  0.5010138575865215  0.9982612312227415  1.0000
  Zn  Zn4       1.0  0.9204892654187233  0.5035343421797905  0.0005572079050394998  1.0000
  H   H1        1.0  0.3077396133572918  0.9019444338378263  0.5916220313429719  1.0000
  H   H2        1.0  0.6833388367852251  0.15791648106129236  0.39821812300310455  1.0000
  H   H3        1.0  0.7392705747977288  0.06730503310706841  0.6972947824136424  1.0000
  H   H4        1.0  0.13640780217502171  0.876018438079015  0.37482759000804566  1.0000
  H   H5        1.0  0.16089007627169846  0.7811221436158889  0.8304344440496292  1.0000
  H   H6        1.0  0.9024924703995226  0.22753587536745107  0.1640652223068599  1.0000
  H   H7        1.0  0.9697290219254671  0.2703534976577161  0.7910441428509216  1.0000
  H   H8        1.0  0.969587657888745  0.7355369905306832  0.20880325352766244  1.0000
  H   H9        1.0  0.9575753366770883  0.10725098162983934  0.9082394542507114  1.0000
  H   H10       1.0  0.9859837496744884  0.8984895060225286  0.0917122044897951  1.0000
  H   H11       1.0  0.8993354074824252  0.783155710313473  0.8402863238991711  1.0000
  H   H12       1.0  0.16415228874745222  0.21450177159871947  0.16109024003812775  1.0000
  H   H13       1.0  0.8522453664721112  0.8678534579864278  0.6227934644146486  1.0000
  H   H14       1.0  0.26221073350448887  0.0768654956053609  0.31324820022038574  1.0000
  H   H15       1.0  0.1656624540003904  0.6677317673491389  0.8872731669227318  1.0000
  H   H16       1.0  0.907303163319078  0.34028568082154464  0.10671217144735577  1.0000
  H   H17       1.0  0.9051518864330035  0.6694719223650197  0.8968942098310249  1.0000
  H   H18       1.0  0.1679136751437582  0.32721063940872613  0.10373663996609389  1.0000
  H   H19       1.0  0.3258013283492005  0.1585033256242525  0.6120749032142283  1.0000
  H   H20       1.0  0.6780009727132567  0.8990627780919526  0.39617534874313515  1.0000
  H   H21       1.0  0.7347889760669376  0.8631314703635055  0.5675169096537687  1.0000
  H   H22       1.0  0.3711870994659492  0.06287894208953303  0.37326662238859837  1.0000
  H   H23       1.0  0.1925470720612665  0.8981031575892758  0.6492867053131163  1.0000
  H   H24       1.0  0.7981571123225919  0.15505847357179192  0.3401795182654225  1.0000
  C   C1        1.0  0.6073597352212234  0.027547857713578604  0.4365062068171212  1.0000
  C   C2        1.0  0.3916329437532013  0.030417080750133593  0.5636360183413699  1.0000
  C   C3        1.0  0.9619405793221604  0.3247123829638029  0.8605126030128073  1.0000
  C   C4        1.0  0.9673150963982665  0.6815636493436799  0.13910707650087767  1.0000
  C   C5        1.0  0.9585988487600261  0.16818707572385705  0.8947242217254753  1.0000
  C   C6        1.0  0.9805805251860491  0.8376889493305129  0.10509375217147009  1.0000
  C   C7        1.0  0.9553480066192038  0.23419010871802476  0.9255177949530304  1.0000
  C   C8        1.0  0.9764523823020642  0.7719985720330911  0.07416094085367318  1.0000
  C   C9        1.0  0.9573771077267779  0.757355611686087  0.8505078000229103  1.0000
  C   C10       1.0  0.10804867799837581  0.2424260985492737  0.14927511711357505  1.0000
  C   C11       1.0  0.9605332042395317  0.6943083417885988  0.8818768699106838  1.0000
  C   C12       1.0  0.11020516382559012  0.3051574815087861  0.11734738126361319  1.0000
  C   C13       1.0  0.23319759726809516  0.09907721307455832  0.6529622768871446  1.0000
  C   C14       1.0  0.7680458289147863  0.9534548322001584  0.3512976347004723  1.0000
  C   C15       1.0  0.29678352513099066  0.10163364083166472  0.6205041308921934  1.0000
  C   C16       1.0  0.7044911243178191  0.9547908837510237  0.383613450250614  1.0000
  C   C17       1.0  0.8022301018466322  0.9103887123057319  0.6267624139930417  1.0000
  C   C18       1.0  0.2592732290277411  0.029496137668779503  0.3393182945967226  1.0000
  C   C19       1.0  0.7368817797321157  0.9079405584699954  0.5959836844948114  1.0000
  C   C20       1.0  0.32005738684099333  0.021319825158343495  0.37248452543234817  1.0000
  C   C21       1.0  0.9998842228455588  0.9921713203814523  0.7522904341592278  1.0000
  C   C22       1.0  0.003307548878567  0.014144618610735899  0.248213969857197  1.0000
  C   C23       1.0  0.609380667129372  0.9631678278102813  0.5621988506559247  1.0000
  C   C24       1.0  0.38647859741389123  0.9599135782284451  0.4409071223063562  1.0000
  C   C25       1.0  0.1943433413030888  0.025809744113132603  0.6639003410465065  1.0000
  C   C26       1.0  0.8035233735244417  0.0256622674714748  0.33521631670746627  1.0000
  C   C27       1.0  0.323701305287841  0.030217744474477108  0.5985679378777389  1.0000
  C   C28       1.0  0.6740926516463263  0.02857744709522341  0.4007232698976608  1.0000
  C   C29       1.0  0.8043760471070984  0.968904401594067  0.6632914963958142  1.0000
  C   C30       1.0  0.1920178175337384  0.9769829120312468  0.3398283088366582  1.0000
  C   C31       1.0  0.6727720979532208  0.9636321480740835  0.5997014409065569  1.0000
  C   C32       1.0  0.3181014338440776  0.9603562552741421  0.40638277037729137  1.0000
  C   C33       1.0  0.0297583037755871  0.7901344467741112  0.8321129769368695  1.0000
  C   C34       1.0  0.0329583311320434  0.213311440913543  0.16601281750873645  1.0000
  C   C35       1.0  0.0356207545848761  0.6624092505308213  0.895697723113315  1.0000
  C   C36       1.0  0.0377267333273608  0.3400508663657221  0.10170428287378287  1.0000
  C   C37       1.0  0.9649934065563385  0.18097301052927153  0.8458523610446418  1.0000
  C   C38       1.0  0.9786276634135901  0.824759638139085  0.15407648844938385  1.0000
  C   C39       1.0  0.9578452541243081  0.31353630461999427  0.9093902535727307  1.0000
  C   C40       1.0  0.9702352642083272  0.6928047920012119  0.09022525354926358  1.0000
  C   C41       1.0  0.07136704753037292  0.0088771023311054  0.7222546654409001  1.0000
  C   C42       1.0  0.9292867778630766  0.0222995636293248  0.277717814489037  1.0000
  C   C43       1.0  0.013943483721426697  0.9178781423411879  0.7791665666420823  1.0000
  C   C44       1.0  0.0174149715118901  0.0881269209514599  0.22107257624521273  1.0000
  C   C45       1.0  0.22246186397083528  0.9547175519341381  0.6411071649086394  1.0000
  C   C46       1.0  0.7712429017392636  0.09928633567519542  0.3525413399262262  1.0000
  C   C47       1.0  0.9284869944543389  0.9816128775254712  0.7212485946430502  1.0000
  C   C48       1.0  0.07262931730453197  0.9987890468912467  0.2798477233397634  1.0000
  C   C49       1.0  0.9852688180543796  0.05982638470986501  0.7858374637891287  1.0000
  C   C50       1.0  0.9932750348088321  0.9458420237324886  0.21460064329285433  1.0000
  C   C51       1.0  0.12849194990838697  0.020368291714028403  0.6959627804218725  1.0000
  C   C52       1.0  0.8704458542965625  0.024481237568878104  0.30370202013850184  1.0000
  C   C53       1.0  0.9740190690456603  0.1149561573976712  0.8137602297538321  1.0000
  C   C54       1.0  0.9855797731577668  0.8905263794345546  0.1864468294017598  1.0000
  C   C55       1.0  0.0243321322366157  0.8580753194257796  0.8025187081731955  1.0000
  C   C56       1.0  0.0276860693245524  0.14652263165962856  0.19650194877326746  1.0000
  C   C57       1.0  0.8713011285864597  0.9746206770606424  0.6945640640785695  1.0000
  C   C58       1.0  0.12756032909587836  0.9872307895780426  0.3073883323664361  1.0000
  C   C59       1.0  0.9623378982779586  0.38397312328386585  0.9433079880155473  1.0000
  C   C60       1.0  0.971028966755341  0.6221257838317555  0.0563493540202558  1.0000
  C   C61       1.0  0.0362101087649691  0.5990115385987737  0.932137459442657  1.0000
  C   C62       1.0  0.037430039752017294  0.4037136315020221  0.065415880766146  1.0000
  C   C63       1.0  0.2862188645416667  0.9567477642696078  0.6091417739612692  1.0000
  C   C64       1.0  0.7075099435147794  0.1009421753340547  0.3847879404399989  1.0000
  C   C65       1.0  0.7389734651150447  0.023069789402875105  0.6685596782354961  1.0000
  C   C66       1.0  0.1886750302995139  0.9160344039409055  0.37370451679883837  1.0000
  C   C67       1.0  0.6744067226441077  0.0204358689404955  0.6370910469685995  1.0000
  C   C68       1.0  0.2513296581836713  0.9075855899118467  0.40621255049826027  1.0000
  C   C69       1.0  0.1050105118174756  0.7563608395356455  0.8449637288363828  1.0000
  C   C70       1.0  0.9603605061357356  0.2499150231634104  0.150891779141368  1.0000
  C   C71       1.0  0.10772370850861529  0.6932197113169066  0.8765792845579341  1.0000
  C   C72       1.0  0.9629637343074222  0.3124163862643313  0.11912408929835287  1.0000
  C   C73       1.0  0.9654104355912168  0.2601285730464582  0.828770474284134  1.0000
  C   C74       1.0  0.9713001576080983  0.7458558942924753  0.17102196429337366  1.0000
  Br  Br1       1.0  0.19814539063376907  0.19606113152772764  0.6829431518297894  1.0000
  Br  Br2       1.0  0.8078462813337667  0.85239803762115  0.3290743468531828  1.0000
  Br  Br3       1.0  0.587373894703056  0.09351508590594189  0.6491794934533175  1.0000
  Br  Br4       1.0  0.23822762883525433  0.8256478600276155  0.4517958716577012  1.0000
  Br  Br5       1.0  0.9646857088393048  0.4311191537832642  0.8365795017936575  1.0000
  Br  Br6       1.0  0.9595947608744454  0.5753418271506164  0.16294586180279677  1.0000
  Br  Br7       1.0  0.9501407970154148  0.2157375576532773  0.9915981332866222  1.0000
  Br  Br8       1.0  0.9803664616652698  0.7906480956924185  0.008095961948853897  1.0000
  O   O1        1.0  0.5820400386271416  0.9592233092562948  0.44972625998845916  1.0000
  O   O2        1.0  0.4181005775070759  0.099035083536009  0.5491838166310287  1.0000
  O   O3        1.0  0.5863533459925421  0.030609492925776697  0.5469197883551971  1.0000
  O   O4        1.0  0.4144173760751642  0.8920184511923995  0.4549372473154206  1.0000
  O   O5        1.0  0.5843659319417752  0.8939986567064937  0.5467521436483906  1.0000
  O   O6        1.0  0.4136719682021591  0.028586537421226403  0.4533598157025196  1.0000
  O   O7        1.0  0.5800946877266001  0.0960373282914304  0.45195442395749547  1.0000
  O   O8        1.0  0.41906177685612533  0.9624570244174963  0.5498482955574318  1.0000
  O   O9        1.0  0.0326986240456932  0.40734857179957373  0.9545635934284604  1.0000
  O   O10       1.0  0.9016492970308008  0.5945817452396156  0.04326575825164979  1.0000
  O   O11       1.0  0.9679979468759117  0.5746844967018561  0.9474370547546298  1.0000
  O   O12       1.0  0.1064982931181078  0.4271091083463149  0.0485782559784198  1.0000
  O   O13       1.0  0.10564935825692598  0.5733725251410462  0.9469449989740111  1.0000
  O   O14       1.0  0.9689361523829945  0.43058447110914244  0.0523886583683364  1.0000
  O   O15       1.0  0.8947506980348053  0.41417427095041864  0.9579616194976734  1.0000
  O   O16       1.0  0.0399033027198712  0.5958737752080269  0.043755196758525  1.0000
