data_image0
_chemical_formula_structural       Cu2H18C14N2Cl2
_chemical_formula_sum              "Cu2 H18 C14 N2 Cl2"
_cell_length_a       4.124590983187958
_cell_length_b       9.971765285017538
_cell_length_c       9.342639252818444
_cell_angle_alpha    90.00001874372055
_cell_angle_beta     89.99851612419842
_cell_angle_gamma    89.99770954624113

_space_group_name_H-M_alt    "P 1"
_space_group_IT_number       1

loop_
  _space_group_symop_operation_xyz
  'x, y, z'

loop_
  _atom_site_type_symbol
  _atom_site_label
  _atom_site_symmetry_multiplicity
  _atom_site_fract_x
  _atom_site_fract_y
  _atom_site_fract_z
  _atom_site_occupancy
  Cu  Cu1       1.0  0.2925860238734828  0.49999164161625487  0.11078333116351052  1.0000
  Cu  Cu2       1.0  0.707419732620032  4.104485519499999e-06  0.6107783443423926  1.0000
  H   H1        1.0  0.28181417369085443  0.7554635544248853  0.2685602329361174  1.0000
  H   H2        1.0  0.2818581209222942  0.24450186827051107  0.268582262299816  1.0000
  H   H3        1.0  0.7181675911728858  0.2554868695535076  0.7685658250978094  1.0000
  H   H4        1.0  0.7181731855133009  0.7445457133000204  0.7685620641516877  1.0000
  H   H5        1.0  0.6102025530263404  0.7388244639737066  0.1475733021878582  1.0000
  H   H6        1.0  0.6102133836610976  0.2611287034794856  0.1475909400920088  1.0000
  H   H7        1.0  0.38981206152878656  0.23886928476066774  0.6475805559705776  1.0000
  H   H8        1.0  0.3897966628360976  0.7611649719815502  0.647580966481897  1.0000
  H   H9        1.0  0.6581471937985767  0.8324459250478214  0.3101049453288027  1.0000
  H   H10       1.0  0.6581573224675239  0.1675195242087852  0.3101424700131759  1.0000
  H   H11       1.0  0.34185870888899916  0.332482517685996  0.8101159654529156  1.0000
  H   H12       1.0  0.34187170187310306  0.6675545841197916  0.8101298403846329  1.0000
  H   H13       1.0  0.9146162260613692  0.7170736659393953  0.5027410569691639  1.0000
  H   H14       1.0  0.9146516352349182  0.28290279647036687  0.5027371433113857  1.0000
  H   H15       1.0  0.0853458309927717  0.21710529184579028  0.0027399820497109  1.0000
  H   H16       1.0  0.085355009523532  0.7829338928468346  0.0027509518131481  1.0000
  H   H17       1.0  0.07902037746441688  0.49998502922647253  0.6210151215408503  1.0000
  H   H18       1.0  0.9209799365210926  2.2816727401700003e-05  0.1210236370204498  1.0000
  C   C1        1.0  0.651520939678626  0.6181068820982175  0.33578901446201576  1.0000
  C   C2        1.0  0.6515153196466344  0.3818618510255618  0.33580157111980924  1.0000
  C   C3        1.0  0.34847740510547  0.11813433910670308  0.835792465401326  1.0000
  C   C4        1.0  0.34846979982051346  0.8818957980230165  0.8357888648374329  1.0000
  C   C5        1.0  0.5464569392795867  0.7435597285978871  0.2618186746973521  1.0000
  C   C6        1.0  0.5464561030075714  0.2563842023501692  0.26183634407433237  1.0000
  C   C7        1.0  0.4535457534288625  0.24362454898998462  0.7618391050319104  1.0000
  C   C8        1.0  0.45353808420149033  0.7564324476306081  0.761835265484919  1.0000
  C   C9        1.0  0.840854815583491  0.6202357198038085  0.45954416131891673  1.0000
  C   C10       1.0  0.8408421265413112  0.3797366777066387  0.45955566174929163  1.0000
  C   C11       1.0  0.15913615734888253  0.1202633167306644  0.9595487343491272  1.0000
  C   C12       1.0  0.15916512355866527  0.8797707642802592  0.9595504994732738  1.0000
  C   C13       1.0  0.934089809340911  0.4999806144130332  0.5233332751521331  1.0000
  C   C14       1.0  0.0658870680462798  2.660368932789999e-05  0.0233431292090884  1.0000
  N   N1        1.0  0.555913997298468  0.49997995733853157  0.27671029404961445  1.0000
  N   N2        1.0  0.44405547986306  2.2872899791099997e-05  0.776708356569543  1.0000
  Cl  Cl1       1.0  0.9319996485843589  0.5000090823761454  0.9507767420852034  1.0000
  Cl  Cl2       1.0  0.0680207998246587  0.9999762858178229  0.4507661332905855  1.0000
