data_image0
_chemical_formula_structural       Co2H12C12N16O8
_chemical_formula_sum              "Co2 H12 C12 N16 O8"
_cell_length_a       8.298276139322063
_cell_length_b       8.298318361564107
_cell_length_c       9.527427695927143
_cell_angle_alpha    65.57287664844385
_cell_angle_beta     65.5728329644949
_cell_angle_gamma    60.29306098703292

_space_group_name_H-M_alt    "P 1"
_space_group_IT_number       1

loop_
  _space_group_symop_operation_xyz
  'x, y, z'

loop_
  _atom_site_type_symbol
  _atom_site_label
  _atom_site_symmetry_multiplicity
  _atom_site_fract_x
  _atom_site_fract_y
  _atom_site_fract_z
  _atom_site_occupancy
  Co  Co1       1.0  0.5382881273208893  0.4617054940547192  0.750001640778393  1.0000
  Co  Co2       1.0  0.4617058404044341  0.5382929862901449  0.24999977331972195  1.0000
  H   H1        1.0  0.5194839089458368  0.12201815942383122  0.652606827433587  1.0000
  H   H2        1.0  0.8779794160126142  0.48052033752367873  0.84739137979723  1.0000
  H   H3        1.0  0.480515722382087  0.877976007688936  0.3473972469895088  1.0000
  H   H4        1.0  0.12202288866910747  0.5194838786050013  0.1526007451328653  1.0000
  H   H5        1.0  0.3278253605935005  0.9186908538775358  0.706923678571165  1.0000
  H   H6        1.0  0.08130597490243463  0.6721790314481025  0.7930762304660987  1.0000
  H   H7        1.0  0.6721718227785016  0.08130619119748421  0.2930802402973642  1.0000
  H   H8        1.0  0.9186912393676818  0.32782807078520204  0.20691984067241245  1.0000
  H   H9        1.0  0.09254899997692677  0.9850891531238447  0.8386958782828271  1.0000
  H   H10       1.0  0.014910850823618163  0.9074544520848421  0.661301984910281  1.0000
  H   H11       1.0  0.9074470650901103  0.014910774257721502  0.16131055127711144  1.0000
  H   H12       1.0  0.9850871217782567  0.0925540834903344  0.3386911941913482  1.0000
  C   C1        1.0  0.4081063742153645  0.1622787895601689  0.7575602804632665  1.0000
  C   C2        1.0  0.8377177423957247  0.5918996349399775  0.7424375722631563  1.0000
  C   C3        1.0  0.5919015575554311  0.837711050567819  0.24243920777018965  1.0000
  C   C4        1.0  0.16228493349002795  0.40810027676093336  0.2575612235156939  1.0000
  C   C5        1.0  0.24554695976779317  0.9401857141198209  0.8264599380237596  1.0000
  C   C6        1.0  0.059814494683479255  0.7544581763539  0.6735373649764114  1.0000
  C   C7        1.0  0.7544528754189058  0.0598113321633633  0.1735451203345234  1.0000
  C   C8        1.0  0.9401851637989578  0.2455460441769333  0.32645676521556766  1.0000
  C   C9        1.0  0.3081935294608086  0.750405756831327  0.9541647961034913  1.0000
  C   C10       1.0  0.24959757838779936  0.6918090675112653  0.5458324514921031  1.0000
  C   C11       1.0  0.6918044178583569  0.24959272719588918  0.04583937547980097  1.0000
  C   C12       1.0  0.750403969833968  0.30819371714564886  0.4541636137254199  1.0000
  N   N1        1.0  0.26926511276063536  0.09351302376386876  0.8414904621396316  1.0000
  N   N2        1.0  0.9064862236571823  0.7307365343408634  0.6585079426412435  1.0000
  N   N3        1.0  0.7307350842710747  0.9064797087410029  0.15851602581467708  1.0000
  N   N4        1.0  0.09351532082097683  0.2692662465758389  0.3414860260751808  1.0000
  N   N5        1.0  0.14910899864498353  0.18497973102846293  0.9577663768177587  1.0000
  N   N6        1.0  0.8150185112086556  0.8508921885443714  0.5422324263044016  1.0000
  N   N7        1.0  0.850894046572989  0.8150158743745592  0.042238041559301095  1.0000
  N   N8        1.0  0.18498094715860694  0.14910915655626406  0.45776281645348865  1.0000
  N   N9        1.0  0.21417842465925926  0.3060828786925498  0.944218806670207  1.0000
  N   N10       1.0  0.693916230420477  0.7858223434093999  0.5557797996202679  1.0000
  N   N11       1.0  0.7858216050272017  0.6939170374105148  0.055781994370534015  1.0000
  N   N12       1.0  0.30608266973020176  0.21418044377956144  0.4442172226085929  1.0000
  N   N13       1.0  0.37566317915761965  0.295506795273738  0.8200584457239088  1.0000
  N   N14       1.0  0.7044923594575819  0.6243393149576947  0.6799406763172867  1.0000
  N   N15       1.0  0.6243381764361898  0.7044931214334013  0.1799429250617096  1.0000
  N   N16       1.0  0.2955046546973675  0.375664911845405  0.3200565073871289  1.0000
  O   O1        1.0  0.34148602779602283  0.6006684296079142  0.922567212255842  1.0000
  O   O2        1.0  0.3993333155318623  0.6585134870076458  0.577431839368316  1.0000
  O   O3        1.0  0.6585052881146041  0.39933004952878554  0.07743306235251882  1.0000
  O   O4        1.0  0.6006671200003451  0.3414921855661391  0.4225698812922543  1.0000
  O   O5        1.0  0.3125694041492365  0.758245911624144  0.08206942348950719  1.0000
  O   O6        1.0  0.2417564174993742  0.6874339325542282  0.417930143887183  1.0000
  O   O7        1.0  0.6874432636753479  0.24174536365795524  0.9179288819416979  1.0000
  O   O8        1.0  0.7582504015818611  0.3125587954906308  0.5820749997893274  1.0000
