data_image0
_chemical_formula_structural       Hg4H40C44I8N16
_chemical_formula_sum              "Hg4 H40 C44 I8 N16"
_cell_length_a       5.374231884745141
_cell_length_b       16.109108339574934
_cell_length_c       19.836300122780404
_cell_angle_alpha    89.9994996853192
_cell_angle_beta     90.00093774665493
_cell_angle_gamma    98.67380412319567

_space_group_name_H-M_alt    "P 1"
_space_group_IT_number       1

loop_
  _space_group_symop_operation_xyz
  'x, y, z'

loop_
  _atom_site_type_symbol
  _atom_site_label
  _atom_site_symmetry_multiplicity
  _atom_site_fract_x
  _atom_site_fract_y
  _atom_site_fract_z
  _atom_site_occupancy
  Hg  Hg1       1.0  0.9742116990101408  0.21891724439747412  0.7064884387375441  1.0000
  Hg  Hg2       1.0  0.025768570241538745  0.28108340703975193  0.2064770738185828  1.0000
  Hg  Hg3       1.0  0.025794947701342677  0.7810936203022862  0.2935157135750259  1.0000
  Hg  Hg4       1.0  0.9742183937886251  0.7189117164785728  0.7935175001080663  1.0000
  H   H1        1.0  0.16835110035460593  0.47119624746774497  0.5343881595734743  1.0000
  H   H2        1.0  0.8316469140157351  0.028800816225420092  0.0343921996533325  1.0000
  H   H3        1.0  0.8316496997010104  0.5288051923048014  0.465608934992197  1.0000
  H   H4        1.0  0.1683677268605237  0.9712025505397435  0.9656109444509297  1.0000
  H   H5        1.0  0.5040068685092222  0.1756050488674603  0.5947404165945045  1.0000
  H   H6        1.0  0.4959765348130673  0.32438835087507556  0.0947328130215368  1.0000
  H   H7        1.0  0.49601868292187845  0.8244021162848653  0.4052687770352748  1.0000
  H   H8        1.0  0.5040043079462179  0.6756054982524305  0.9052652897801892  1.0000
  H   H9        1.0  0.17983544165254264  0.23766407678839835  0.5326311303512057  1.0000
  H   H10       1.0  0.8201536895840248  0.262329836264513  0.032628915120909596  1.0000
  H   H11       1.0  0.820198369390411  0.7623362183593798  0.4673740303109852  1.0000
  H   H12       1.0  0.17982954294193823  0.7376696641335343  0.9673676752870434  1.0000
  H   H13       1.0  0.5625172237215847  0.48265376733390036  0.593996869862238  1.0000
  H   H14       1.0  0.43748210653372144  0.0173421992598293  0.0939992698070142  1.0000
  H   H15       1.0  0.43746254745505536  0.5173463486240523  0.4059992164096897  1.0000
  H   H16       1.0  0.562548774170608  0.982659967292278  0.9060033702107404  1.0000
  H   H17       1.0  0.8524360012283977  0.4079729722493538  0.6610626958527774  1.0000
  H   H18       1.0  0.1475626766568681  0.09202496655591122  0.161062791702328  1.0000
  H   H19       1.0  0.14755307321652117  0.5920403423296747  0.33893943990757686  1.0000
  H   H20       1.0  0.8524567626130094  0.9079721457469888  0.8389403524347543  1.0000
  H   H21       1.0  0.03651664458504203  0.31097445684471137  0.4562176160443555  1.0000
  H   H22       1.0  0.9634663456728273  0.1890229618695756  0.9562185608701197  1.0000
  H   H23       1.0  0.9634833635603285  0.689020709925046  0.5437794785419925  1.0000
  H   H24       1.0  0.036537119172358204  0.8109759785823057  0.0437805502153807  1.0000
  H   H25       1.0  0.49098790482152305  0.43470415852746663  0.2362169583417213  1.0000
  H   H26       1.0  0.5089887629789869  0.0652924820501539  0.7362248674821001  1.0000
  H   H27       1.0  0.508970567583482  0.5652983949004523  0.7637897145266521  1.0000
  H   H28       1.0  0.49102242118288325  0.9347071110348467  0.2637757559967397  1.0000
  H   H29       1.0  0.810956412022655  0.4918240584375014  0.3210770283743756  1.0000
  H   H30       1.0  0.18903021928287697  0.008170685692242302  0.8210864683185121  1.0000
  H   H31       1.0  0.18902096948927033  0.5081704062362035  0.6789240991752121  1.0000
  H   H32       1.0  0.8109849572681611  0.9918295476733688  0.17891365104049575  1.0000
  H   H33       1.0  0.577874819738632  0.2684609736195823  0.4404438311191398  1.0000
  H   H34       1.0  0.42207265035073493  0.23153833393710235  0.9404476525902368  1.0000
  H   H35       1.0  0.4221315799053185  0.7315317062113919  0.5595497346061576  1.0000
  H   H36       1.0  0.5779065899026037  0.7684605261646738  0.0595534749477196  1.0000
  H   H37       1.0  0.2691384608548831  0.21975996426161973  0.3489348341744432  1.0000
  H   H38       1.0  0.7307957313263173  0.2802431627669577  0.8489411689000332  1.0000
  H   H39       1.0  0.7308439797608414  0.7802332631336385  0.6510617562541867  1.0000
  H   H40       1.0  0.26918456643002026  0.7197625982480743  0.151061975120669  1.0000
  C   C1        1.0  0.5112117587812008  0.24375282763851658  0.5931698356284798  1.0000
  C   C2        1.0  0.48877181933642067  0.25624121221798657  0.093163191447033  1.0000
  C   C3        1.0  0.4887991553132024  0.756250526754556  0.4068363332253142  1.0000
  C   C4        1.0  0.5112199384815597  0.7437520460742205  0.9068344072543724  1.0000
  C   C5        1.0  0.33185597478273365  0.2792165553817156  0.5570290090051699  1.0000
  C   C6        1.0  0.6681369609906368  0.22077843017434864  0.057027938819487596  1.0000
  C   C7        1.0  0.668161857156882  0.7207899571609887  0.44297262271602716  1.0000
  C   C8        1.0  0.33186730523863156  0.7792180047727726  0.9429741970343315  1.0000
  C   C9        1.0  0.34774051238725434  0.3670400892476665  0.555886379935302  1.0000
  C   C10       1.0  0.6522590145462458  0.1329530461414734  0.0558873800314998  1.0000
  C   C11       1.0  0.6522799841962479  0.6329639239939481  0.4441122270430141  1.0000
  C   C12       1.0  0.34774817721189066  0.8670459066648845  0.9441132434409096  1.0000
  C   C13       1.0  0.5418135509096585  0.4144480618748716  0.5929303370286332  1.0000
  C   C14       1.0  0.4581787949694202  0.08554914412835052  0.09293032373931  1.0000
  C   C15       1.0  0.45819017477679574  0.5855558957432051  0.40706877403951575  1.0000
  C   C16       1.0  0.5418382450016779  0.9144510954193876  0.9070692914974713  1.0000
  C   C17       1.0  0.705818413659088  0.373169063319203  0.6294991540917749  1.0000
  C   C18       1.0  0.2941840303947457  0.1268291391970351  0.1294986336325223  1.0000
  C   C19       1.0  0.2941890389840225  0.6268349066474741  0.3705029817420921  1.0000
  C   C20       1.0  0.705826357280202  0.8731685701174215  0.8705060228614698  1.0000
  C   C21       1.0  0.026057099726074288  0.3761384567685083  0.4705476538453723  1.0000
  C   C22       1.0  0.9739352394076446  0.12385699776439198  0.9705536469605106  1.0000
  C   C23       1.0  0.9739402388928085  0.6238635985756955  0.5294459118266488  1.0000
  C   C24       1.0  0.02608526186907771  0.876142626229317  0.029444960033494293  1.0000
  C   C25       1.0  0.5165748496157576  0.3995656238176011  0.2821581667457949  1.0000
  C   C26       1.0  0.4834066021737512  0.10043129401412901  0.7821657131394275  1.0000
  C   C27       1.0  0.4834123754304827  0.6004345168434284  0.7178424566787597  1.0000
  C   C28       1.0  0.5166104377682075  0.8995689455375312  0.21783289384481458  1.0000
  C   C29       1.0  0.694589815418851  0.43132712488854713  0.32979837471873447  1.0000
  C   C30       1.0  0.30538879924055334  0.06866940436604099  0.8298043620238928  1.0000
  C   C31       1.0  0.30539981353198437  0.568665499291491  0.670202752864185  1.0000
  C   C32       1.0  0.6946253151288316  0.9313283173322519  0.1701942449629499  1.0000
  C   C33       1.0  0.7196862018361613  0.3852852345155569  0.3888887465017703  1.0000
  C   C34       1.0  0.28029343323810707  0.11470957374475425  0.8888937911991093  1.0000
  C   C35       1.0  0.28029278222541615  0.6147042191779944  0.6111108686904103  1.0000
  C   C36       1.0  0.7197196142855516  0.8852900255302172  0.1111043116524257  1.0000
  C   C37       1.0  0.5664142932428503  0.30692826946526697  0.39571859424835754  1.0000
  C   C38       1.0  0.4335625360802098  0.1930721184643858  0.895724757103082  1.0000
  C   C39       1.0  0.43356814725633086  0.6930649579456514  0.6042739631701081  1.0000
  C   C40       1.0  0.5664483825763041  0.8069268466984097  0.10427687462996721  1.0000
  C   C41       1.0  0.39330430904667674  0.2799410087903169  0.34526888423438606  1.0000
  C   C42       1.0  0.6066618854489361  0.22005911836150455  0.8452761146958423  1.0000
  C   C43       1.0  0.6066818536868084  0.7200566202210225  0.6547256896815694  1.0000
  C   C44       1.0  0.3933271983387101  0.7799454177275963  0.1547245087170666  1.0000
  I   I1        1.0  0.9536593582955034  0.07284489294343642  0.6383038209192762  1.0000
  I   I2        1.0  0.046343859805020315  0.42715386914520087  0.13829200665352906  1.0000
  I   I3        1.0  0.04636166954635717  0.9271603761093131  0.3617013396972339  1.0000
  I   I4        1.0  0.95364602989968  0.5728437722127777  0.861706096154414  1.0000
  I   I5        1.0  0.20323804637165915  0.35672677805930414  0.7712982482357091  1.0000
  I   I6        1.0  0.7967265328458237  0.14327581364569406  0.2712912356945479  1.0000
  I   I7        1.0  0.7967664713998558  0.6432834525380643  0.22870691232702  1.0000
  I   I8        1.0  0.2032678849519697  0.8567193345894139  0.7287043465008409  1.0000
  N   N1        1.0  0.6950473180556285  0.28938494137479137  0.6290119396730488  1.0000
  N   N2        1.0  0.3049263449217676  0.21061567773013218  0.12900784301508134  1.0000
  N   N3        1.0  0.3049566685740642  0.7106240333957814  0.3709907002616433  1.0000
  N   N4        1.0  0.6950640758519099  0.7893832194644403  0.8709902597895436  1.0000
  N   N5        1.0  0.17976374194081046  0.4089680602237138  0.520898995988972  1.0000
  N   N6        1.0  0.8202177888284721  0.0910271750435783  0.0209045582241245  1.0000
  N   N7        1.0  0.8202328048552304  0.5910277221059487  0.4790975944613363  1.0000
  N   N8        1.0  0.17978913740974176  0.9089711498425216  0.9790965693762175  1.0000
  N   N9        1.0  0.8829643930563547  0.421488693540759  0.4391307021032773  1.0000
  N   N10       1.0  0.11700750082540877  0.07850255396562028  0.9391383168293573  1.0000
  N   N11       1.0  0.11704467611407673  0.5784970977157755  0.5608663925363402  1.0000
  N   N12       1.0  0.882982388937563  0.921495087384528  0.0608618024836716  1.0000
  N   N13       1.0  0.3652945615660527  0.32584342446136816  0.2900990965909855  1.0000
  N   N14       1.0  0.6346564673928582  0.17415521037710852  0.7901077854983924  1.0000
  N   N15       1.0  0.6346591214967106  0.6741566049780519  0.7098959813717228  1.0000
  N   N16       1.0  0.3653336785181693  0.8258518373871411  0.2098923337815961  1.0000
