data_image0
_chemical_formula_structural       Cd4H44C68N4O16
_chemical_formula_sum              "Cd4 H44 C68 N4 O16"
_cell_length_a       6.764141402479601
_cell_length_b       14.041254600407989
_cell_length_c       14.735748110775452
_cell_angle_alpha    90.00037175244803
_cell_angle_beta     89.99888089107105
_cell_angle_gamma    90.00078290323736

_space_group_name_H-M_alt    "P 1"
_space_group_IT_number       1

loop_
  _space_group_symop_operation_xyz
  'x, y, z'

loop_
  _atom_site_type_symbol
  _atom_site_label
  _atom_site_symmetry_multiplicity
  _atom_site_fract_x
  _atom_site_fract_y
  _atom_site_fract_z
  _atom_site_occupancy
  Cd  Cd1       1.0  0.15533418156630316  0.19304038903336362  0.4626014527959228  1.0000
  Cd  Cd2       1.0  0.34466165254382014  0.8069579371104327  0.9626022210812124  1.0000
  Cd  Cd3       1.0  0.6553370808677028  0.30696015628766565  0.5373979291203241  1.0000
  Cd  Cd4       1.0  0.8446588335039137  0.6930392412544679  0.0373999016729059  1.0000
  H   H1        1.0  0.21849538943354932  0.331602575501691  0.7560844903571678  1.0000
  H   H2        1.0  0.28150180895194404  0.6684007522514078  0.2560834859477126  1.0000
  H   H3        1.0  0.7184875434727759  0.16840407889952763  0.2439204309076786  1.0000
  H   H4        1.0  0.7815158769181422  0.8315945901961969  0.7439164905401228  1.0000
  H   H5        1.0  0.1826940563830988  0.4557563060327325  0.876788780906196  1.0000
  H   H6        1.0  0.3173098514195373  0.5442492690956299  0.37678600916223814  1.0000
  H   H7        1.0  0.6826907281862731  0.04425225163136301  0.12321374799187619  1.0000
  H   H8        1.0  0.8173074612863116  0.9557491553964751  0.6232143238356898  1.0000
  H   H9        1.0  0.0653991526023248  0.4928374351849031  0.4786447237954974  1.0000
  H   H10       1.0  0.4346152204406336  0.5071617125695553  0.9786387600294972  1.0000
  H   H11       1.0  0.5653985783987635  0.007161099696446601  0.5213608963262075  1.0000
  H   H12       1.0  0.934593580841536  0.9928346275349043  0.0213571244438597  1.0000
  H   H13       1.0  0.0087478405704786  0.6608448813522189  0.4351539830003546  1.0000
  H   H14       1.0  0.4912668980178338  0.33915396987909924  0.9351491866614339  1.0000
  H   H15       1.0  0.5087534551312486  0.8391529567576724  0.5648491263533728  1.0000
  H   H16       1.0  0.9912560791109469  0.16084164268741571  0.0648512443611153  1.0000
  H   H17       1.0  0.006628611796997999  0.7881430225278335  0.5543841651600018  1.0000
  H   H18       1.0  0.49338157367039054  0.21185964221119494  0.0543797928000487  1.0000
  H   H19       1.0  0.5066223293746006  0.7118626357862469  0.4456176060962704  1.0000
  H   H20       1.0  0.9933828878157343  0.2881374085541637  0.9456219763884306  1.0000
  H   H21       1.0  0.06466004709665188  0.7456461326066801  0.7151160263386416  1.0000
  H   H22       1.0  0.4353255830009103  0.2543590523186268  0.215109045531733  1.0000
  H   H23       1.0  0.5646558833850647  0.7543577673313564  0.28488793723194317  1.0000
  H   H24       1.0  0.9353354512462387  0.24564402981997088  0.7848905315285535  1.0000
  H   H25       1.0  0.21543552531443305  0.1381680108528798  0.2582428781149133  1.0000
  H   H26       1.0  0.2845630600341025  0.8618346194175713  0.7582370611389777  1.0000
  H   H27       1.0  0.7154268968108112  0.3618307895387645  0.7417593561741712  1.0000
  H   H28       1.0  0.7845662664207395  0.6381671526157432  0.24175949476387606  1.0000
  H   H29       1.0  0.2004060470712048  0.9977909280452621  0.1522828761619124  1.0000
  H   H30       1.0  0.2995970306857598  0.0022124041881284  0.6522858674773673  1.0000
  H   H31       1.0  0.7003914938829325  0.502210295496745  0.8477103653201966  1.0000
  H   H32       1.0  0.7995986554988902  0.4977890812377197  0.3477128950143396  1.0000
  H   H33       1.0  0.10639198348915359  0.838399095293589  0.21488023972178638  1.0000
  H   H34       1.0  0.39361731037512726  0.1615996784635669  0.7148867623030598  1.0000
  H   H35       1.0  0.6063905641676398  0.6615986668863556  0.7851131689928508  1.0000
  H   H36       1.0  0.8936185015920158  0.33840099528148926  0.285111154208046  1.0000
  H   H37       1.0  0.0371939411514148  0.825191932659294  0.3826914677787556  1.0000
  H   H38       1.0  0.46280823767005325  0.174801575554099  0.8826960920429556  1.0000
  H   H39       1.0  0.5372059286232228  0.6747996811324841  0.6173032421117597  1.0000
  H   H40       1.0  0.9628072953375406  0.32519812469414683  0.11729916603998451  1.0000
  H   H41       1.0  0.06210330368771369  0.9721514317415938  0.47884912624244436  1.0000
  H   H42       1.0  0.4379036686222974  0.027839171141238198  0.978844245160488  1.0000
  H   H43       1.0  0.5621062874170873  0.5278360712557415  0.5211548602505545  1.0000
  H   H44       1.0  0.9378932725488413  0.4721596545838623  0.021147843940738698  1.0000
  C   C1        1.0  0.150084089716124  0.3456724398428648  0.5822165058140528  1.0000
  C   C2        1.0  0.34990569663225557  0.6543297024180106  0.08221479900923612  1.0000
  C   C3        1.0  0.6500817742585949  0.15432735907510414  0.41778699509370654  1.0000
  C   C4        1.0  0.8499142742904837  0.8456689345269978  0.9177859192693987  1.0000
  C   C5        1.0  0.1432152743969581  0.42618752691580397  0.648043100489737  1.0000
  C   C6        1.0  0.3567820696958321  0.5738157763733724  0.1480408347307289  1.0000
  C   C7        1.0  0.643216400106205  0.0738172125637107  0.3519611408441463  1.0000
  C   C8        1.0  0.8567868746469923  0.9261843297395985  0.8519584644532472  1.0000
  C   C9        1.0  0.17982671661891197  0.40457734919088023  0.7382412078307468  1.0000
  C   C10       1.0  0.320178630227872  0.5954251447400124  0.2382394048837284  1.0000
  C   C11       1.0  0.6798160234792547  0.09542762883774002  0.2617640613765175  1.0000
  C   C12       1.0  0.8201807267854304  0.9045704497154929  0.7617615808942517  1.0000
  C   C13       1.0  0.16293279342509237  0.4744615923395656  0.8055824986616713  1.0000
  C   C14       1.0  0.33706674148908883  0.5255442094693094  0.3055814695038279  1.0000
  C   C15       1.0  0.6629288671502492  0.0255489730955176  0.1944168149450718  1.0000
  C   C16       1.0  0.837072216962049  0.9744536316026355  0.6944166498220312  1.0000
  C   C17       1.0  0.12551671481009657  0.5684045654151008  0.7829088452137967  1.0000
  C   C18       1.0  0.37448230302534563  0.4315996574260765  0.28290825660671004  1.0000
  C   C19       1.0  0.6255205031961708  0.9316011554983489  0.2170932135040715  1.0000
  C   C20       1.0  0.8744810978431515  0.0683994672483337  0.7170918679496765  1.0000
  C   C21       1.0  0.09873517516532357  0.59502144158602  0.6901590911132871  1.0000
  C   C22       1.0  0.4012662967972602  0.404984997626542  0.19015877580872598  1.0000
  C   C23       1.0  0.5987401820678926  0.9049833926168063  0.3098425299507355  1.0000
  C   C24       1.0  0.9012574864660717  0.09501643813013769  0.8098424650343503  1.0000
  C   C25       1.0  0.1001296966293452  0.5220042332349522  0.6217117067968374  1.0000
  C   C26       1.0  0.39987319907442753  0.47799817834471975  0.12170710449402121  1.0000
  C   C27       1.0  0.6001294579739138  0.9779977613062628  0.3782946520869714  1.0000
  C   C28       1.0  0.8998653083158741  0.022001823955569908  0.8782921130099552  1.0000
  C   C29       1.0  0.06653722131794379  0.5486153928403539  0.5298781227591007  1.0000
  C   C30       1.0  0.43347104642203493  0.4513871048030965  0.029873053868847397  1.0000
  C   C31       1.0  0.5665382401464497  0.9513849584236169  0.47012921699572274  1.0000
  C   C32       1.0  0.9334629811522318  0.04861454081760291  0.9701265399545277  1.0000
  C   C33       1.0  0.0348055510986711  0.6424237773908529  0.5061220415409267  1.0000
  C   C34       1.0  0.4652170293076097  0.35757784614026633  0.006117465115302401  1.0000
  C   C35       1.0  0.5347999185627472  0.8575777914283618  0.4938815120334398  1.0000
  C   C36       1.0  0.965198817213597  0.142420445386314  0.9938811644760719  1.0000
  C   C37       1.0  0.03366384174109529  0.7141554845884457  0.5733044697045102  1.0000
  C   C38       1.0  0.4663411064040943  0.28584730913127027  0.07329876157854189  1.0000
  C   C39       1.0  0.5336604810523226  0.78584536460869  0.4266984155085325  1.0000
  C   C40       1.0  0.9663440599627788  0.21415027759314134  0.9266971433139445  1.0000
  C   C41       1.0  0.0644282573514516  0.6907641065709244  0.6630994964991075  1.0000
  C   C42       1.0  0.43556401330027217  0.30924072372299366  0.1630942096738579  1.0000
  C   C43       1.0  0.5644293741288067  0.8092405040447019  0.3368997187828811  1.0000
  C   C44       1.0  0.9355715822983581  0.19076022339371684  0.8369033293794034  1.0000
  C   C45       1.0  0.11897571894522939  0.638630012443521  0.8597949062270303  1.0000
  C   C46       1.0  0.381020039013471  0.36137188585652785  0.3597924679404017  1.0000
  C   C47       1.0  0.6189866687938448  0.8613742415077893  0.14021128303979677  1.0000
  C   C48       1.0  0.8810108000841339  0.1386265692085971  0.6402075978245136  1.0000
  C   C49       1.0  0.17727246386395729  0.0671002451842  0.2823590135444647  1.0000
  C   C50       1.0  0.3227236205298567  0.9329004129526413  0.7823553278429571  1.0000
  C   C51       1.0  0.6772683722451587  0.43289973089975575  0.7176428854914079  1.0000
  C   C52       1.0  0.8227287703439216  0.5670994712014803  0.21764020606065063  1.0000
  C   C53       1.0  0.167405386483793  0.9892263037759863  0.2241449757486151  1.0000
  C   C54       1.0  0.3326049931973499  0.010776094057462198  0.7241422939990301  1.0000
  C   C55       1.0  0.6673956037762352  0.5107747047495012  0.7758546702424951  1.0000
  C   C56       1.0  0.8326049842490449  0.4892256064496507  0.27585209976927416  1.0000
  C   C57       1.0  0.11644493958722527  0.9003296432237775  0.2594000120417732  1.0000
  C   C58       1.0  0.383563945139187  0.09966729750041027  0.7594021709694729  1.0000
  C   C59       1.0  0.6164406767096722  0.5996646235413792  0.7405987351943609  1.0000
  C   C60       1.0  0.8835628845687822  0.40033615946466466  0.2405938001535759  1.0000
  C   C61       1.0  0.07899835119281558  0.8929337747180242  0.3521664013605772  1.0000
  C   C62       1.0  0.4210080786769267  0.107060237563374  0.8521689476372742  1.0000
  C   C63       1.0  0.5789997118134735  0.6070559748991968  0.6478272538005142  1.0000
  C   C64       1.0  0.9210077827189591  0.3929406146652211  0.14782668655772113  1.0000
  C   C65       1.0  0.09289665523947829  0.9739744835526308  0.4062703911467338  1.0000
  C   C66       1.0  0.40710895913922224  0.026017048851862495  0.9062678117570755  1.0000
  C   C67       1.0  0.592905379903456  0.5260125079265094  0.5937278892705535  1.0000
  C   C68       1.0  0.907102929995247  0.47398086402518663  0.0937252330295664  1.0000
  N   N1        1.0  0.1406789717269632  0.0597478119452006  0.3719209469898601  1.0000
  N   N2        1.0  0.3593251423688668  0.9402491837450526  0.8719169773739637  1.0000
  N   N3        1.0  0.6406729744588375  0.4402455159782549  0.6280799240530683  1.0000
  N   N4        1.0  0.8593161383447877  0.5597495145071463  0.1280782272547825  1.0000
  O   O1        1.0  0.2807528767634793  0.2811394963721057  0.5933390087518831  1.0000
  O   O2        1.0  0.21922313242106378  0.7188563120009874  0.09333887616887179  1.0000
  O   O3        1.0  0.7807558383314372  0.21885616878208944  0.4066660308689051  1.0000
  O   O4        1.0  0.7192465952636126  0.7811407612056415  0.9066657323868554  1.0000
  O   O5        1.0  0.02342187052803269  0.34136877279251365  0.5176672347756295  1.0000
  O   O6        1.0  0.4765721310361215  0.6586357781240721  0.0176664507093562  1.0000
  O   O7        1.0  0.5234139847487497  0.15863162507377376  0.4823380844680543  1.0000
  O   O8        1.0  0.976576370281407  0.841372942685453  0.982335842382014  1.0000
  O   O9        1.0  0.025468994666312  0.6113289677146695  0.9299491290977997  1.0000
  O   O10       1.0  0.4745237887962119  0.3886684235866937  0.4299453393927948  1.0000
  O   O11       1.0  0.5254718739868237  0.8886682671670201  0.0700545084337918  1.0000
  O   O12       1.0  0.9745182206963888  0.11132992862742698  0.5700525277792892  1.0000
  O   O13       1.0  0.21185655534118544  0.7167536392903671  0.8490453601279314  1.0000
  O   O14       1.0  0.28813078812143533  0.2832496100605013  0.34904191801344814  1.0000
  O   O15       1.0  0.7118692465262981  0.7832533564949672  0.15095931479021368  1.0000
  O   O16       1.0  0.7881203746745553  0.2167468152977534  0.6509576263101025  1.0000
