data_image0
_chemical_formula_structural       Rb2U2H30C20O22
_chemical_formula_sum              "Rb2 U2 H30 C20 O22"
_cell_length_a       8.184533435428929
_cell_length_b       10.317122609425606
_cell_length_c       10.545218711081038
_cell_angle_alpha    68.46688116362259
_cell_angle_beta     71.10169950906682
_cell_angle_gamma    80.51901160515968

_space_group_name_H-M_alt    "P 1"
_space_group_IT_number       1

loop_
  _space_group_symop_operation_xyz
  'x, y, z'

loop_
  _atom_site_type_symbol
  _atom_site_label
  _atom_site_symmetry_multiplicity
  _atom_site_fract_x
  _atom_site_fract_y
  _atom_site_fract_z
  _atom_site_occupancy
  Rb  Rb1       1.0  0.34476181090163033  0.5263530616869118  0.2107758723639037  1.0000
  Rb  Rb2       1.0  0.6552370137884652  0.4736465158224805  0.7892236310437751  1.0000
  U   U1        1.0  0.817081064956632  0.350614218279894  0.3880923527574041  1.0000
  U   U2        1.0  0.1829191050115213  0.6493843071776197  0.611908140940031  1.0000
  H   H1        1.0  0.8866946523492486  0.1583483842193161  0.7107607210363015  1.0000
  H   H2        1.0  0.11331195515401052  0.8416511825297305  0.28923307379095325  1.0000
  H   H3        1.0  0.36557017735999864  0.7869552707015828  0.9271271676475334  1.0000
  H   H4        1.0  0.6344310453931783  0.21304742788020548  0.07287063584178814  1.0000
  H   H5        1.0  0.32022276245675135  0.7089314397911224  0.8440228605208658  1.0000
  H   H6        1.0  0.6797760540574984  0.2910681335946421  0.1559775946922812  1.0000
  H   H7        1.0  0.20824913799230418  0.284226687304681  0.6341659241093608  1.0000
  H   H8        1.0  0.79174970304949  0.7157728984519596  0.3658316756873958  1.0000
  H   H9        1.0  0.30722687352724887  0.17592902698023488  0.7693478650079798  1.0000
  H   H10       1.0  0.6927731111340661  0.8240726286346174  0.23065156255729147  1.0000
  H   H11       1.0  0.1670941739990681  0.0232464639746652  0.7141523887660739  1.0000
  H   H12       1.0  0.8329046879324196  0.9767520577780714  0.2858503254353763  1.0000
  H   H13       1.0  0.3912634075233754  0.9937415672922257  0.6568326438077535  1.0000
  H   H14       1.0  0.6087328710381924  0.0062569635454537  0.34317070417989026  1.0000
  H   H15       1.0  0.3895293585819742  0.14720210212669113  0.40253734229878557  1.0000
  H   H16       1.0  0.6104680881266659  0.8527985109400832  0.5974649780409892  1.0000
  H   H17       1.0  0.26807710899137766  0.9964658090355909  0.47296231905568215  1.0000
  H   H18       1.0  0.7319190705598544  0.003534820944523201  0.5270374627608092  1.0000
  H   H19       1.0  0.9938155806050089  0.7136873095406315  0.9307110168412934  1.0000
  H   H20       1.0  0.006186004585991604  0.2863091246028375  0.06928987071781019  1.0000
  H   H21       1.0  0.9358287023114542  0.799973661482383  0.05523075977906432  1.0000
  H   H22       1.0  0.06417152942564289  0.20002382058935103  0.9447700892957583  1.0000
  H   H23       1.0  0.6869765325613455  0.7252055165620988  0.9291052522989814  1.0000
  H   H24       1.0  0.3130233985068784  0.2747971865621679  0.0708928680834404  1.0000
  H   H25       1.0  0.6173134484569616  0.8051323354169712  0.061079790846626555  1.0000
  H   H26       1.0  0.38268777429621537  0.19487036316481723  0.9389180126426949  1.0000
  H   H27       1.0  0.875829509995107  0.9333956481507428  0.7684613361427282  1.0000
  H   H28       1.0  0.12417060637994837  0.06660392481617092  0.2315378503718506  1.0000
  H   H29       1.0  0.651124891158396  0.9676144095711694  0.8035680128086256  1.0000
  H   H30       1.0  0.3488776768728385  0.0323872369587406  0.19643078097044506  1.0000
  C   C1        1.0  0.4828693104201349  0.2617119022164048  0.5671284497720137  1.0000
  C   C2        1.0  0.5171295142699607  0.7382876752929873  0.4328710536356724  1.0000
  C   C3        1.0  0.3104050254200247  0.20380165082016796  0.6579100763210306  1.0000
  C   C4        1.0  0.6895937375011271  0.7961989700750037  0.34208907170926744  1.0000
  C   C5        1.0  0.2853102566893995  0.0705711184410518  0.6351284903020158  1.0000
  C   C6        1.0  0.7146884898800535  0.9294294942068643  0.36487256133919727  1.0000
  C   C7        1.0  0.2754005471267575  0.0965690655026563  0.4854677673204293  1.0000
  C   C8        1.0  0.7245956778417195  0.9034305128444303  0.5145342734843722  1.0000
  C   C9        1.0  0.1187179882841889  0.18492313707137245  0.45517648927200577  1.0000
  C   C10       1.0  0.881279482952003  0.8150774883662777  0.5448229756513853  1.0000
  C   C11       1.0  0.8608392895743079  0.5937206908885386  0.13949732690351632  1.0000
  C   C12       1.0  0.1391609666903406  0.40627680355406437  0.8605006667549233  1.0000
  C   C13       1.0  0.8866143347843122  0.7302891850257325  0.019143396692903925  1.0000
  C   C14       1.0  0.11338584335968702  0.2697093445554018  0.9808561451990697  1.0000
  C   C15       1.0  0.7260664054939595  0.7945570756108752  0.9707310727337769  1.0000
  C   C16       1.0  0.2739349943902027  0.2054424886899398  0.029268748693169755  1.0000
  C   C17       1.0  0.7566951771522238  0.9365820618531371  0.854138382334  1.0000
  C   C18       1.0  0.243306284500882  0.06341645906190511  0.14586179447032777  1.0000
  C   C19       1.0  0.7591505446537924  0.054972162417584486  0.9050219596089519  1.0000
  C   C20       1.0  0.2408573136551695  0.9450273791708669  0.09497627735250076  1.0000
  O   O1        1.0  0.8083761781060089  0.24025762035191883  0.289149687837302  1.0000
  O   O2        1.0  0.19162260570482909  0.7597419365393422  0.7108545745976826  1.0000
  O   O3        1.0  0.8287479889716067  0.4569549216156759  0.4883797236379195  1.0000
  O   O4        1.0  0.1712545545320765  0.543046712543358  0.5116219255575345  1.0000
  O   O5        1.0  0.4998913055132803  0.3645639155371754  0.45036162413476427  1.0000
  O   O6        1.0  0.5001075809457661  0.6354346185864372  0.5496382346503026  1.0000
  O   O7        1.0  0.6197081960964751  0.2037321413708142  0.6038028404460504  1.0000
  O   O8        1.0  0.3802893905017584  0.7962663931716419  0.39619828703757787  1.0000
  O   O9        1.0  0.13035754095182736  0.2865339639928095  0.3389790627871676  1.0000
  O   O10       1.0  0.8696411438486749  0.7134676920409007  0.6610216334766648  1.0000
  O   O11       1.0  0.967240088230703  0.1582160382212834  0.5445091947346797  1.0000
  O   O12       1.0  0.032758464856058774  0.8417877004603584  0.45549174257983077  1.0000
  O   O13       1.0  0.7092060051497526  0.5496295639575594  0.21225656592801553  1.0000
  O   O14       1.0  0.29079403310466023  0.4503710441478931  0.7877441688200975  1.0000
  O   O15       1.0  0.9917551698765691  0.5197526752123239  0.17463784315399516  1.0000
  O   O16       1.0  0.0082448765536896  0.48024793701675605  0.8253619397886566  1.0000
  O   O17       1.0  0.6893727312159327  0.053481806767635504  0.02814567614899486  1.0000
  O   O18       1.0  0.3106350898516368  0.9465187905774715  0.9718493500186938  1.0000
  O   O19       1.0  0.8374053014871021  0.16978185251260672  0.8069632547364947  1.0000
  O   O20       1.0  0.16259988261745661  0.8302198014268569  0.19303109803453808  1.0000
  O   O21       1.0  0.3937896589681955  0.6992705163248587  0.9046281645397869  1.0000
  O   O22       1.0  0.6062078658610871  0.30072906160338414  0.09537260756645347  1.0000
