data_image0
_chemical_formula_structural       K2H24C22O12
_chemical_formula_sum              "K2 H24 C22 O12"
_cell_length_a       5.806498372774272
_cell_length_b       8.395856763111697
_cell_length_c       13.748656747680903
_cell_angle_alpha    110.40422335027515
_cell_angle_beta     99.80103510673581
_cell_angle_gamma    94.73598985990778

_space_group_name_H-M_alt    "P 1"
_space_group_IT_number       1

loop_
  _space_group_symop_operation_xyz
  'x, y, z'

loop_
  _atom_site_type_symbol
  _atom_site_label
  _atom_site_symmetry_multiplicity
  _atom_site_fract_x
  _atom_site_fract_y
  _atom_site_fract_z
  _atom_site_occupancy
  K   K1        1.0  0.7785421664216939  0.37500397908937794  0.04643873598131879  1.0000
  K   K2        1.0  0.2214475087876124  0.6249941927498027  0.9535633775502107  1.0000
  H   H1        1.0  0.16310120492107671  0.7289252321609822  0.2002365667078863  1.0000
  H   H2        1.0  0.8368976515868809  0.27106518296994153  0.7997596067252388  1.0000
  H   H3        1.0  0.2766687446215172  0.5607605702092898  0.1842474732115349  1.0000
  H   H4        1.0  0.7233360789651258  0.439234082709838  0.8157543173215771  1.0000
  H   H5        1.0  0.7661789172205857  0.29403582321369737  0.4291397944198679  1.0000
  H   H6        1.0  0.23380620345782438  0.7059559701693703  0.570862937831329  1.0000
  H   H7        1.0  0.6494396416039906  0.10405913488669682  0.15092264490750307  1.0000
  H   H8        1.0  0.3505557130953179  0.895931239197111  0.8490739969172552  1.0000
  H   H9        1.0  0.9216348283346747  0.12469085646473844  0.1573556472242004  1.0000
  H   H10       1.0  0.07835264350016764  0.8753046181116417  0.842644329298956  1.0000
  H   H11       1.0  0.6778695431309886  0.6206149695804228  0.28901471128047274  1.0000
  H   H12       1.0  0.32214259582050897  0.3793922263969449  0.7109827605517438  1.0000
  H   H13       1.0  0.409321447561922  0.8329691313512272  0.43502936576566503  1.0000
  H   H14       1.0  0.5906901244206111  0.16703455432448783  0.5649732062878527  1.0000
  H   H15       1.0  0.6086730831477923  0.901519981433772  0.2714161250314291  1.0000
  H   H16       1.0  0.3913399350508868  0.09848203195679163  0.7285789488856551  1.0000
  H   H17       1.0  0.9436926034979791  0.1403926554993262  0.3304648826613814  1.0000
  H   H18       1.0  0.05631393487455946  0.8596122747535945  0.6695390250054487  1.0000
  H   H19       1.0  0.3404403164051644  0.10828946665262865  0.41387267811668954  1.0000
  H   H20       1.0  0.6595574722004828  0.8917153824636588  0.5861327689133732  1.0000
  H   H21       1.0  0.6928592678064974  0.7066443894808786  0.9283471389738625  1.0000
  H   H22       1.0  0.30713437878109323  0.2933461574097862  0.07165305250408242  1.0000
  H   H23       1.0  0.7508088820330698  0.8525768024387617  0.042821599555580306  1.0000
  H   H24       1.0  0.24917548816119964  0.14742107153701062  0.9571771643377289  1.0000
  C   C1        1.0  0.4393045460495912  0.3091364472247236  0.2708839804897494  1.0000
  C   C2        1.0  0.5606981093651555  0.6908660874592059  0.7291235501268077  1.0000
  C   C3        1.0  0.6479695178841993  0.38367935677818826  0.46039412957011194  1.0000
  C   C4        1.0  0.3520197286286334  0.6163162457275394  0.5396074546779843  1.0000
  C   C5        1.0  0.3113879117081596  0.5225526931430409  0.43019603273658197  1.0000
  C   C6        1.0  0.6885943026589844  0.47744269838151615  0.5698042779898671  1.0000
  C   C7        1.0  0.09430169004760817  0.5373629557173203  0.35978239528653694  1.0000
  C   C8        1.0  0.9057090363561006  0.46264638092795707  0.6402088407260395  1.0000
  C   C9        1.0  0.04658200930369114  0.7101710466211415  0.3647246887599636  1.0000
  C   C10       1.0  0.9534267200985483  0.28984694511058956  0.6352855491655377  1.0000
  C   C11       1.0  0.820194811895739  0.7298606192253344  0.3185696133675933  1.0000
  C   C12       1.0  0.17980238635249185  0.2701409301981599  0.6814227793178559  1.0000
  C   C13       1.0  0.23258762065407987  0.8491036237897446  0.4019883546443594  1.0000
  C   C14       1.0  0.7674144729316553  0.15089574008833043  0.5980083319324976  1.0000
  C   C15       1.0  0.7822735443136538  0.885100706566682  0.3081431756480342  1.0000
  C   C16       1.0  0.2177533305023474  0.11491089426015581  0.6918598474575434  1.0000
  C   C17       1.0  0.9704790351252727  0.02100189503661201  0.3425281851591961  1.0000
  C   C18       1.0  0.029511216562475885  0.9789998300665418  0.6574695649193458  1.0000
  C   C19       1.0  0.19444014288906428  0.0034046632010529022  0.3899739284471977  1.0000
  C   C20       1.0  0.8055738249619395  0.996613325657883  0.6100345017383974  1.0000
  C   C21       1.0  0.46237049976083006  0.4052792641255962  0.38906007187003416  1.0000
  C   C22       1.0  0.5376311718026087  0.5947279805596821  0.6109417522103014  1.0000
  O   O1        1.0  0.476971885651956  0.1553204089716047  0.2412940737994163  1.0000
  O   O2        1.0  0.523030245971647  0.8446791267557288  0.758705559850661  1.0000
  O   O3        1.0  0.39168313263154186  0.39285771863048785  0.20995665359637175  1.0000
  O   O4        1.0  0.6083470800274996  0.6071424462099769  0.7900443902987816  1.0000
  O   O5        1.0  0.9594518925360374  0.40529951362790223  0.2979804447162095  1.0000
  O   O6        1.0  0.04056194785301417  0.5946970594019592  0.7020078106759159  1.0000
  O   O7        1.0  0.1966105727728333  0.6283713884233605  0.14592413369459933  1.0000
  O   O8        1.0  0.8033876977472189  0.37161543048127044  0.8540756664232063  1.0000
  O   O9        1.0  0.771632058987585  0.0803173739667358  0.10589249545009241  1.0000
  O   O10       1.0  0.2283619592396776  0.9196754844834915  0.8941038047014516  1.0000
  O   O11       1.0  0.7323367666939975  0.7259524724897305  0.005236272022436645  1.0000
  O   O12       1.0  0.26763996634773696  0.27404150835395313  0.9947633714972852  1.0000
