data_image0
_chemical_formula_structural       Zn2H11C26Br2N2O8F3
_chemical_formula_sum              "Zn2 H11 C26 Br2 N2 O8 F3"
_cell_length_a       12.761940277031082
_cell_length_b       13.897582604161334
_cell_length_c       16.071088635426484
_cell_angle_alpha    89.96647241106042
_cell_angle_beta     87.33616154475283
_cell_angle_gamma    85.73282164928207

_space_group_name_H-M_alt    "P 1"
_space_group_IT_number       1

loop_
  _space_group_symop_operation_xyz
  'x, y, z'

loop_
  _atom_site_type_symbol
  _atom_site_label
  _atom_site_symmetry_multiplicity
  _atom_site_fract_x
  _atom_site_fract_y
  _atom_site_fract_z
  _atom_site_occupancy
  Zn  Zn1       1.0  0.6086787096660515  0.506268202515372  0.49571059375573867  1.0000
  Zn  Zn2       1.0  0.3928771407772516  0.4925327418744558  0.5047296920107769  1.0000
  H   H1        1.0  0.617918129589185  0.3809237896460119  0.06897248841109163  1.0000
  H   H2        1.0  0.3350154049689706  0.48132770975357897  0.07661782765622863  1.0000
  H   H3        1.0  0.5530552850269217  0.6487080116211531  0.9254452585129229  1.0000
  H   H4        1.0  0.671692692582127  0.49503880753340473  0.06817693693594148  1.0000
  H   H5        1.0  0.4086272929894434  0.6400578017258738  0.0696238615147067  1.0000
  H   H6        1.0  0.6201755340591931  0.9748134083623372  0.49374722050043135  1.0000
  H   H7        1.0  0.3798911003274482  0.024232339946721  0.5057608405058363  1.0000
  H   H8        1.0  0.003901931063218482  0.5777903930416529  0.43244847566175093  1.0000
  H   H9        1.0  0.33989909595702983  0.4796586409494878  0.9306437519016627  1.0000
  H   H10       1.0  0.4214120473279622  0.37130220204688413  0.930103376500995  1.0000
  H   H11       1.0  0.41815546441269186  0.37397590136365016  0.0763582116093886  1.0000
  C   C1        1.0  0.54279710975851  0.31310711087893844  0.49821027642160953  1.0000
  C   C2        1.0  0.4534017606540032  0.9783300250801973  0.5019986102216195  1.0000
  C   C3        1.0  0.5466880416261759  0.020750331117334  0.49738787119289196  1.0000
  C   C4        1.0  0.5004047035928494  0.500017933014938  0.662050588633683  1.0000
  C   C5        1.0  0.5517480807623656  0.121207856845011  0.4972468474255793  1.0000
  C   C6        1.0  0.4485349278120481  0.8778303726482335  0.5019987687624481  1.0000
  C   C7        1.0  0.5529231817531937  0.2089598697058648  0.4972457906335421  1.0000
  C   C8        1.0  0.9679017368203231  0.5297662916901232  0.4771774201051572  1.0000
  C   C9        1.0  0.029841754624584396  0.4720841659682478  0.5251564468909038  1.0000
  C   C10       1.0  0.14152373663115006  0.47071677845356413  0.5199516080012927  1.0000
  C   C11       1.0  0.8576269026195291  0.5288595485368361  0.48308500082040956  1.0000
  C   C12       1.0  0.6071797068931772  0.4554050556175397  0.0464070660893512  1.0000
  C   C13       1.0  0.45895938695208116  0.6859072157888377  0.5009681190961147  1.0000
  C   C14       1.0  0.49465674146823363  0.4987655886208557  0.33834904696330886  1.0000
  C   C15       1.0  0.6079565694747301  0.4526524272066866  0.9510321348629776  1.0000
  C   C16       1.0  0.41236605116927194  0.4451350752198238  0.9545978972276433  1.0000
  C   C17       1.0  0.4097900595338261  0.44717975686945977  0.0506322451064776  1.0000
  C   C18       1.0  0.4955265992850357  0.5000308703202947  0.24817704064432183  1.0000
  C   C19       1.0  0.5045521543731867  0.5012477003522804  0.9176170841240463  1.0000
  C   C20       1.0  0.5013035474637348  0.5032924404372636  0.08217182898424372  1.0000
  C   C21       1.0  0.48546866926296417  0.6069689700722735  0.04745893143987701  1.0000
  C   C22       1.0  0.4903296504012432  0.6063276049078894  0.9516430388910139  1.0000
  C   C23       1.0  0.4986639948210012  0.50304495151601  0.1726075818281387  1.0000
  C   C24       1.0  0.505451041479752  0.5011392805473703  0.8273493763854705  1.0000
  C   C25       1.0  0.5019635304324055  0.5004616899349728  0.7520517226477567  1.0000
  C   C26       1.0  0.4478739445159833  0.7900256518404235  0.5017413883762887  1.0000
  Br  Br1       1.0  0.7327761792421512  0.5124288489186668  0.9018148955320984  1.0000
  Br  Br2       1.0  0.5867491117266824  0.6931944790949274  0.09007431471309249  1.0000
  N   N1        1.0  0.7666580838397792  0.5281484159101739  0.4870974769775245  1.0000
  N   N2        1.0  0.23243089666274838  0.47082575711453256  0.5143468578590744  1.0000
  O   O1        1.0  0.6265021343355173  0.357748306368542  0.4962579816782339  1.0000
  O   O2        1.0  0.4481926021485023  0.3506010582851147  0.5009517784993207  1.0000
  O   O3        1.0  0.5887563157855524  0.5052266094510571  0.6227322429619664  1.0000
  O   O4        1.0  0.41108259453385904  0.4944165818975179  0.6308407878853972  1.0000
  O   O5        1.0  0.5536101381240427  0.6489841334440598  0.49585769780424027  1.0000
  O   O6        1.0  0.37550258692004224  0.6406615118411451  0.5053183457380187  1.0000
  O   O7        1.0  0.5838144529982259  0.5007128820835974  0.37043753034318894  1.0000
  O   O8        1.0  0.40524440209786405  0.49593443202795134  0.3766787127503407  1.0000
  F   F1        1.0  0.9909523983508208  0.41154442795368607  0.5812461591453585  1.0000
  F   F2        1.0  0.6174032520218092  0.3570050510017709  0.9238214427717966  1.0000
  F   F3        1.0  0.39438829384171464  0.6494672753129079  0.9244595142105114  1.0000
