data_image0
_chemical_formula_structural       Zn4H40C62N8O18
_chemical_formula_sum              "Zn4 H40 C62 N8 O18"
_cell_length_a       4.7684280260097855
_cell_length_b       11.703927911535468
_cell_length_c       26.423860170338358
_cell_angle_alpha    96.52650195188752
_cell_angle_beta     89.9999250873663
_cell_angle_gamma    90.00022792611342

_space_group_name_H-M_alt    "P 1"
_space_group_IT_number       1

loop_
  _space_group_symop_operation_xyz
  'x, y, z'

loop_
  _atom_site_type_symbol
  _atom_site_label
  _atom_site_symmetry_multiplicity
  _atom_site_fract_x
  _atom_site_fract_y
  _atom_site_fract_z
  _atom_site_occupancy
  Zn  Zn1       1.0  0.28978576568582065  0.09848322706834269  0.550039628315439  1.0000
  Zn  Zn2       1.0  0.7897787421224151  0.9015128301501464  0.44996038589195575  1.0000
  Zn  Zn3       1.0  0.27366293997874175  0.8228588325514606  0.9709568556584148  1.0000
  Zn  Zn4       1.0  0.7736708202832644  0.17714235377454912  0.029044184465483607  1.0000
  H   H1        1.0  0.8093607858062127  0.2642439302824258  0.42474778419725123  1.0000
  H   H2        1.0  0.30936757205031984  0.735758193824779  0.5752502685521322  1.0000
  H   H3        1.0  0.9347736740480812  0.2965702343908418  0.33566641011098863  1.0000
  H   H4        1.0  0.43479206532610687  0.7034329367528541  0.6643331814385223  1.0000
  H   H5        1.0  0.3442341628514853  0.0331661885281278  0.27944520076916046  1.0000
  H   H6        1.0  0.8442383534503648  0.9668282319184628  0.7205550945790975  1.0000
  H   H7        1.0  0.7878818913207296  0.9555149799571296  0.23845849809164585  1.0000
  H   H8        1.0  0.2878847191987077  0.04448709146053181  0.7615422060579109  1.0000
  H   H9        1.0  0.6313414327277299  0.8176722987718039  0.16450151284053055  1.0000
  H   H10       1.0  0.13133667318865608  0.18233124571993642  0.8354993038718279  1.0000
  H   H11       1.0  0.45864435374588197  0.23481488518640253  0.16346759238150815  1.0000
  H   H12       1.0  0.9586457087517029  0.7651848755970578  0.8365329525831273  1.0000
  H   H13       1.0  0.35479484970962716  0.23076526268212666  0.6602731306403342  1.0000
  H   H14       1.0  0.8547999315425086  0.7692360569726091  0.3397271406318795  1.0000
  H   H15       1.0  0.8030124714902697  0.2889033204664457  0.5409217745049021  1.0000
  H   H16       1.0  0.30299680999942064  0.7110893337972543  0.4590757899437536  1.0000
  H   H17       1.0  0.7543240798359462  0.4718143110128494  0.61790832223371  1.0000
  H   H18       1.0  0.25431978112864323  0.5281782691587722  0.3820888712474827  1.0000
  H   H19       1.0  0.1292271269612968  0.5363249505077051  0.6933747314841129  1.0000
  H   H20       1.0  0.6292231705703415  0.4636760375741105  0.3066221690255305  1.0000
  H   H21       1.0  0.32995512368410823  0.42374822152201835  0.7140674420780116  1.0000
  H   H22       1.0  0.8299608118894994  0.5762513416786988  0.28593236567491703  1.0000
  H   H23       1.0  0.9016289546882132  0.2442039312596194  0.7304647323020463  1.0000
  H   H24       1.0  0.40163401189415276  0.7558000475827955  0.2695349087247649  1.0000
  H   H25       1.0  0.5849980433542114  0.22561511647958812  0.8026576759877174  1.0000
  H   H26       1.0  0.0849975270034449  0.7743849149932984  0.19734296980016106  1.0000
  H   H27       1.0  0.5224906787471753  0.595192824005693  0.8308499951618773  1.0000
  H   H28       1.0  0.022493043536542197  0.4048096915231554  0.16915041517751211  1.0000
  H   H29       1.0  0.850137791298593  0.6135980256107415  0.7605269249835519  1.0000
  H   H30       1.0  0.35013945392015694  0.38640500934990024  0.23947305763881135  1.0000
  H   H31       1.0  0.11480601019137282  0.39837557937290313  0.8536603564181181  1.0000
  H   H32       1.0  0.6148087886551323  0.6016245044885268  0.14633952825714402  1.0000
  H   H33       1.0  0.3671024726590629  0.3128387541849235  0.8807992948681974  1.0000
  H   H34       1.0  0.8671083873766605  0.6871608649151854  0.11920088559168113  1.0000
  H   H35       1.0  0.058952011426391886  0.6090302061745235  0.8927595717465311  1.0000
  H   H36       1.0  0.5589530169853844  0.3909654816187497  0.10724123388683181  1.0000
  H   H37       1.0  0.698575009068989  0.6302681218544208  0.003687644594357693  1.0000
  H   H38       1.0  0.19858557125333925  0.36973466064107907  0.9963142524261318  1.0000
  H   H39       1.0  0.7234654526553752  0.4138384783213099  0.9450604006429659  1.0000
  H   H40       1.0  0.22346624692382014  0.5861617661603232  0.05494098088167481  1.0000
  C   C1        1.0  0.440322187707352  0.11666139305094701  0.45570557626058433  1.0000
  C   C2        1.0  0.9403142860262146  0.8833409295270586  0.5442935916673477  1.0000
  C   C3        1.0  0.5032174078919168  0.1324827926973882  0.40138515568247624  1.0000
  C   C4        1.0  0.0032001456321565994  0.8675214096981563  0.5986157248297703  1.0000
  C   C5        1.0  0.704416230160838  0.21577430534547662  0.3924533391874761  1.0000
  C   C6        1.0  0.2044127657850439  0.784231074362502  0.6075475554616008  1.0000
  C   C7        1.0  0.7765283139631478  0.23315802630283144  0.3429757277672112  1.0000
  C   C8        1.0  0.27653060350526454  0.7668474563911973  0.6570266692419084  1.0000
  C   C9        1.0  0.6493919089377157  0.16744413506121703  0.3012932646103793  1.0000
  C   C10       1.0  0.14939453269312247  0.832560287138243  0.6987091070924196  1.0000
  C   C11       1.0  0.4505984923005498  0.08457851759672512  0.31058203424703384  1.0000
  C   C12       1.0  0.9505961191021439  0.9154186371086016  0.6894202700402164  1.0000
  C   C13       1.0  0.3765905988063166  0.06576635522469589  0.35998690251834387  1.0000
  C   C14       1.0  0.8765803880147158  0.9342332546409367  0.6400166812902841  1.0000
  C   C15       1.0  0.1609201726975016  0.9743334229421878  0.3667276572560142  1.0000
  C   C16       1.0  0.6609157936816742  0.025660708385998997  0.6332726657361931  1.0000
  C   C17       1.0  0.7162318572754315  0.19094063705620806  0.24849492335565773  1.0000
  C   C18       1.0  0.21623176192415627  0.8090579056107073  0.7515022089078301  1.0000
  C   C19       1.0  0.6314174789483289  0.10439336434149742  0.20541743923052286  1.0000
  C   C20       1.0  0.131415814356636  0.8956033192193759  0.7945803734839745  1.0000
  C   C21       1.0  0.6808280140257066  0.9862590040353397  0.20605717092274034  1.0000
  C   C22       1.0  0.18082820319246906  0.0137403132175962  0.7939441725534098  1.0000
  C   C23       1.0  0.59582074120123  0.9095360329544634  0.16484036983220565  1.0000
  C   C24       1.0  0.09581298736084418  0.09046487287735519  0.835160697111043  1.0000
  C   C25       1.0  0.45956443798439034  0.947347185932486  0.12290020211290911  1.0000
  C   C26       1.0  0.959556416549965  0.05265515624385131  0.877100476148158  1.0000
  C   C27       1.0  0.40783657619458313  0.06546651631027342  0.12255942391485773  1.0000
  C   C28       1.0  0.9078288004861079  0.9345340243181187  0.877441173190306  1.0000
  C   C29       1.0  0.49715974186145223  0.1429526315560139  0.16340507842895144  1.0000
  C   C30       1.0  0.9971619960697848  0.8570480526426538  0.8365951268970452  1.0000
  C   C31       1.0  0.24799183182281584  0.11239723060685242  0.08044036929688052  1.0000
  C   C32       1.0  0.7479853810227082  0.8876022033167884  0.9195594508168272  1.0000
  C   C33       1.0  0.3842269875663504  0.8615335017387836  0.07804183834774392  1.0000
  C   C34       1.0  0.8842278621219464  0.1384652843820362  0.9219582950520293  1.0000
  C   C35       1.0  0.1996811254906277  0.27274854279092864  0.6382382446462175  1.0000
  C   C36       1.0  0.6996814383492874  0.7272490949792358  0.36176149379579686  1.0000
  C   C37       1.0  0.9086195433895626  0.3045739627406121  0.577345686159106  1.0000
  C   C38       1.0  0.4086039987644837  0.6954205780463242  0.4226519513205675  1.0000
  C   C39       1.0  0.8832550945705009  0.39517724862297854  0.6148816897637915  1.0000
  C   C40       1.0  0.3832515239595792  0.604817252170136  0.3851159515398806  1.0000
  C   C41       1.0  0.1203893631617987  0.4460435850794866  0.7008637867546882  1.0000
  C   C42       1.0  0.6203968321594572  0.5539573756363724  0.2991350066303157  1.0000
  C   C43       1.0  0.9051320311080386  0.4309951246482768  0.7414167996216181  1.0000
  C   C44       1.0  0.4051395345047552  0.5690097277659093  0.25858175042881026  1.0000
  C   C45       1.0  0.8234714187895945  0.32179257395080907  0.7528618427495675  1.0000
  C   C46       1.0  0.3234779794767633  0.6782104297063896  0.24713663065883656  1.0000
  C   C47       1.0  0.6404087911519483  0.31110029311179943  0.7932391142704989  1.0000
  C   C48       1.0  0.1404073677085123  0.6889015591535215  0.2067597205744535  1.0000
  C   C49       1.0  0.5335416571096231  0.4087873991354058  0.8225140291726023  1.0000
  C   C50       1.0  0.03354368848460609  0.5912151391967414  0.17748562288294786  1.0000
  C   C51       1.0  0.6098063625411639  0.5174947320574647  0.8100552471877835  1.0000
  C   C52       1.0  0.10980723682351369  0.4825087919114992  0.18994368122807972  1.0000
  C   C53       1.0  0.7937791432630303  0.5283385158305265  0.7699075816093244  1.0000
  C   C54       1.0  0.29378171050385044  0.4716644356200419  0.23009165289430916  1.0000
  C   C55       1.0  0.3345764900971346  0.39557789347389166  0.8660369553610539  1.0000
  C   C56       1.0  0.8345856792018507  0.6044242462180237  0.13396449836398724  1.0000
  C   C57       1.0  0.2371593988897658  0.5876206788844344  0.9153234005212527  1.0000
  C   C58       1.0  0.7371712672412157  0.41237787798633724  0.08467637674642252  1.0000
  C   C59       1.0  0.5712357711792818  0.5936323158315419  0.9720581837389947  1.0000
  C   C60       1.0  0.07125178201768989  0.4063694112281625  0.02794293138797601  1.0000
  C   C61       1.0  0.5877166812588257  0.48798033605730495  0.943773864752693  1.0000
  C   C62       1.0  0.08773351688497401  0.5120197024042525  0.05622640231521811  1.0000
  N   N1        1.0  0.10615130630929308  0.22903905736818334  0.5924871578671616  1.0000
  N   N2        1.0  0.6061433191705418  0.770956712919798  0.4075125057232329  1.0000
  N   N3        1.0  0.07035173377803257  0.37390974792629816  0.6528266597585317  1.0000
  N   N4        1.0  0.5703532613130874  0.6260885566067246  0.3471716294292976  1.0000
  N   N5        1.0  0.37400696045965987  0.4857783729874114  0.9082085387394303  1.0000
  N   N6        1.0  0.8740197734223613  0.5142229823482226  0.09179097301765893  1.0000
  N   N7        1.0  0.35204859938907856  0.6547719431555307  0.9540030475931477  1.0000
  N   N8        1.0  0.8520642914183582  0.3452276548975562  0.045996756827385424  1.0000
  O   O1        1.0  0.2838033459472554  0.18703494349824723  0.4825418734609742  1.0000
  O   O2        1.0  0.7837718858088251  0.8129662426656666  0.5174614349889526  1.0000
  O   O3        1.0  0.5678186685352742  0.03820200422998  0.4769306118875464  1.0000
  O   O4        1.0  0.06782595866744151  0.9617962721267336  0.5230710824601488  1.0000
  O   O5        1.0  0.0934323248836435  0.969561345373997  0.41383147215999133  1.0000
  O   O6        1.0  0.5934388278563104  0.030438694031829503  0.5861699289729005  1.0000
  O   O7        1.0  0.06955027864540139  0.912747761911412  0.32860985549626787  1.0000
  O   O8        1.0  0.5695378313602574  0.08724536532434261  0.6713904367967489  1.0000
  O   O9        1.0  0.8285817308729405  0.28268735793743355  0.240374325226597  1.0000
  O   O10       1.0  0.3285806767317466  0.7173164895706281  0.7596275966682314  1.0000
  O   O11       1.0  0.9834416874391393  0.1004446056114361  0.08143882493715184  1.0000
  O   O12       1.0  0.48343075289233883  0.8995577742203552  0.9185618497235029  1.0000
  O   O13       1.0  0.3716514356052159  0.1709689886552539  0.04920502108258521  1.0000
  O   O14       1.0  0.87164208224992  0.8290349375224437  0.9507953810832536  1.0000
  O   O15       1.0  0.37787006354307806  0.7564149358293759  0.08257154718917552  1.0000
  O   O16       1.0  0.8778636126942911  0.24358383757260074  0.9174289654784575  1.0000
  O   O17       1.0  0.33710072828787213  0.9083571163721517  0.03672143279969481  1.0000
  O   O18       1.0  0.8371008375992233  0.0916398835192425  0.9632774838242429  1.0000
