data_image0
_chemical_formula_structural       Mg6H48C84O18
_chemical_formula_sum              "Mg6 H48 C84 O18"
_cell_length_a       6.76740771475335
_cell_length_b       32.04467807610968
_cell_length_c       32.04107509532641
_cell_angle_alpha    119.50801112598815
_cell_angle_beta     94.03171684137399
_cell_angle_gamma    94.03273880036093

_space_group_name_H-M_alt    "P 1"
_space_group_IT_number       1

loop_
  _space_group_symop_operation_xyz
  'x, y, z'

loop_
  _atom_site_type_symbol
  _atom_site_label
  _atom_site_symmetry_multiplicity
  _atom_site_fract_x
  _atom_site_fract_y
  _atom_site_fract_z
  _atom_site_occupancy
  Mg  Mg1       1.0  0.00496180903600419  0.6774383286204327  0.30691398044842805  1.0000
  Mg  Mg2       1.0  0.698046790054036  0.6930455999356725  0.3704934129667663  1.0000
  Mg  Mg3       1.0  0.32754303479145364  0.6294764434371063  0.3225497949550657  1.0000
  Mg  Mg4       1.0  0.6662849489890306  0.32285612911625355  0.6933237606782541  1.0000
  Mg  Mg5       1.0  0.9729555835555102  0.30661733611367475  0.6294904646241974  1.0000
  Mg  Mg6       1.0  0.34349223586560373  0.3704502774488319  0.6770879420313135  1.0000
  H   H1        1.0  0.18910385709727956  0.17459288121725083  0.5413302930498886  1.0000
  H   H2        1.0  0.6480434417534439  0.45870026863804736  0.6332513364555012  1.0000
  H   H3        1.0  0.014261935718280896  0.36672928751431044  0.8253750679845168  1.0000
  H   H4        1.0  0.21459227754573357  0.1187136749387889  0.4518307251575209  1.0000
  H   H5        1.0  0.7626071450683654  0.5481792688281857  0.6668802344558742  1.0000
  H   H6        1.0  0.09554755122363189  0.3331258769377001  0.8813846391420411  1.0000
  H   H7        1.0  0.12755634089634066  0.0533263205645724  0.4269822921089883  1.0000
  H   H8        1.0  0.7005194945330331  0.5729850708020197  0.6262926395453121  1.0000
  H   H9        1.0  0.07430182303248505  0.3737022678950269  0.9467892851896025  1.0000
  H   H10       1.0  0.5523600899657806  0.939835466582977  0.45235028979116265  1.0000
  H   H11       1.0  0.10061338963393497  0.5476179266930502  0.48746711396472614  1.0000
  H   H12       1.0  0.6125074405535499  0.5125128904727845  0.06017088522379773  1.0000
  H   H13       1.0  0.5424882723594279  0.0142458958044926  0.4465340146601804  1.0000
  H   H14       1.0  0.09645364587102988  0.5534564403583745  0.5677179977011376  1.0000
  H   H15       1.0  0.5280875681786341  0.4322524488928822  0.9857604034597428  1.0000
  H   H16       1.0  0.5693311641909701  0.9476019131131113  0.5680083705952867  1.0000
  H   H17       1.0  0.0015258758614891366  0.4319482194446494  0.3795324404685019  1.0000
  H   H18       1.0  0.6216112481834699  0.6204838098900965  0.052413818619605576  1.0000
  H   H19       1.0  0.4931957906429929  0.8818813451933496  0.5438022278303407  1.0000
  H   H20       1.0  0.9490837138062104  0.4561067897456753  0.337985708055605  1.0000
  H   H21       1.0  0.6106700703967434  0.6619771895228439  0.11813056272357862  1.0000
  H   H22       1.0  0.48580203665989047  0.8261197776330816  0.45720413297707546  1.0000
  H   H23       1.0  0.028606660268977187  0.5427630657753043  0.3688390482837677  1.0000
  H   H24       1.0  0.6594994854756207  0.6311196131152031  0.1738365784059043  1.0000
  H   H25       1.0  0.770766911020928  0.8185141613525745  0.4054375185032626  1.0000
  H   H26       1.0  0.36540063555473523  0.5945632589533077  0.4131011577265511  1.0000
  H   H27       1.0  0.9522538919239095  0.5869046662190843  0.1815322395795748  1.0000
  H   H28       1.0  0.9601392659914365  0.8970282816602477  0.466526191857099  1.0000
  H   H29       1.0  0.4937648160543233  0.5334491349810834  0.43048958702124196  1.0000
  H   H30       1.0  0.06289410838408574  0.5695071535932216  0.10299735839559078  1.0000
  H   H31       1.0  0.08680302839761111  0.9520404698993445  0.5625547930616576  1.0000
  H   H32       1.0  0.5246126165500797  0.4375959471048674  0.3895386365581217  1.0000
  H   H33       1.0  0.13465657056444516  0.6105103061786114  0.04798447513489644  1.0000
  H   H34       1.0  0.8597733927467033  0.011686808005983101  0.60840894212199  1.0000
  H   H35       1.0  0.2514962214513973  0.3918317036561306  0.4033569641327546  1.0000
  H   H36       1.0  0.8478083840102286  0.5966718462982216  0.9883899267288925  1.0000
  H   H37       1.0  0.8508654025815757  0.08661754222703172  0.602897416664284  1.0000
  H   H38       1.0  0.24818161588652995  0.39727177584108375  0.48376765418665  1.0000
  H   H39       1.0  0.7641200446022153  0.5162599828728532  0.9134461789462662  1.0000
  H   H40       1.0  0.06880257459445718  0.10150011002536981  0.5515723439280649  1.0000
  H   H41       1.0  0.5175457509656239  0.4484829529953061  0.5499563839231314  1.0000
  H   H42       1.0  0.9673260288842511  0.4500719606068203  0.8984990360415281  1.0000
  H   H43       1.0  0.709572333662976  0.10283626486062056  0.5346264600091146  1.0000
  H   H44       1.0  0.1756624780511089  0.46545388277543515  0.5683445167417672  1.0000
  H   H45       1.0  0.6064570707478507  0.43170267751688846  0.8971586122576909  1.0000
  H   H46       1.0  0.8990208241067137  0.18132981289767974  0.5965666064043589  1.0000
  H   H47       1.0  0.3028089622812259  0.40343452895713483  0.5848324905348647  1.0000
  H   H48       1.0  0.7175256172322618  0.4151875327734588  0.8186664598295366  1.0000
  C   C1        1.0  0.6533923504655518  0.22261119840575821  0.605012408809138  1.0000
  C   C2        1.0  0.048494175378934246  0.3949560417839351  0.6175860559726871  1.0000
  C   C3        1.0  0.43067093620906144  0.38237149124704944  0.7773677547476155  1.0000
  C   C4        1.0  0.4473033300905128  0.21965578393363222  0.589070734422542  1.0000
  C   C5        1.0  0.8583862169358838  0.41090995160573845  0.6305731946915216  1.0000
  C   C6        1.0  0.22755024523159761  0.3693801693520769  0.7803049348075746  1.0000
  C   C7        1.0  0.3454267341445315  0.17521910719457168  0.5526957313410961  1.0000
  C   C8        1.0  0.7930409143447293  0.44732124017186  0.6225316316806726  1.0000
  C   C9        1.0  0.16999419928457374  0.37745438734243936  0.8247531351076703  1.0000
  C   C10       1.0  0.43550259371441763  0.1329733584719648  0.5320679081058657  1.0000
  C   C11       1.0  0.9038072261520185  0.4679770494957865  0.6009554867081804  1.0000
  C   C12       1.0  0.30219695432620597  0.3990652509375536  0.86701819391795  1.0000
  C   C13       1.0  0.3226053036283433  0.08742819501198082  0.4926406607163755  1.0000
  C   C14       1.0  0.8303521415890953  0.5073913763363082  0.5948219547576841  1.0000
  C   C15       1.0  0.23494217780516638  0.4051966228835796  0.9125841653490526  1.0000
  C   C16       1.0  0.21569376853191352  0.08642924434058591  0.4551281804330713  1.0000
  C   C17       1.0  0.7606162717282384  0.5448711394884072  0.6312955376548501  1.0000
  C   C18       1.0  0.12907439318836106  0.3687150126840848  0.9136427917778249  1.0000
  C   C19       1.0  0.3275305202347099  0.042948755283355  0.496381334895176  1.0000
  C   C20       1.0  0.8316207417484163  0.5036555853849337  0.5465957843539755  1.0000
  C   C21       1.0  0.2845015918301286  0.4534192497764878  0.957061488016521  1.0000
  C   C22       1.0  0.20436297919389546  0.035381617526638806  0.5271479780972967  1.0000
  C   C23       1.0  0.6776246755974924  0.4729300132997382  0.5082729002980245  1.0000
  C   C24       1.0  0.16904866189037193  0.4917624500519296  0.9646257303099972  1.0000
  C   C25       1.0  0.20909975729823324  0.9921879173688525  0.5302843348225467  1.0000
  C   C26       1.0  0.6792698902152308  0.46979641997670296  0.46193506084464536  1.0000
  C   C27       1.0  0.216967711016288  0.5380943789628249  0.007822645008282406  1.0000
  C   C28       1.0  0.33838242411165703  0.9577694854885906  0.5028993373638713  1.0000
  C   C29       1.0  0.836025725445019  0.4971178441667804  0.4548797591799812  1.0000
  C   C30       1.0  0.3806851212121599  0.5451233443177373  0.04220510087751705  1.0000
  C   C31       1.0  0.4539737396660114  0.966214187543116  0.4732579201119903  1.0000
  C   C32       1.0  0.9812965490405856  0.5267324253030382  0.49295329142427147  1.0000
  C   C33       1.0  0.4877859340726899  0.5070323966099367  0.033776717114285856  1.0000
  C   C34       1.0  0.4487164851964636  0.008446673633066802  0.4699936440413381  1.0000
  C   C35       1.0  0.9792441695470728  0.5300123029822644  0.5384563248504861  1.0000
  C   C36       1.0  0.44021761115537567  0.46153202364675394  0.9915629420158183  1.0000
  C   C37       1.0  0.35436390460395717  0.9130449382954495  0.5059111044670672  1.0000
  C   C38       1.0  0.8487616337863456  0.49407578911070266  0.40711480733509836  1.0000
  C   C39       1.0  0.4412210776005665  0.5928624781663389  0.08693288184027637  1.0000
  C   C40       1.0  0.4790978101322664  0.9141952609613072  0.5411117025962611  1.0000
  C   C41       1.0  0.9380627701833005  0.45883968834035477  0.37302257897331975  1.0000
  C   C42       1.0  0.5645749725139877  0.6269604382044632  0.08580312389176459  1.0000
  C   C43       1.0  0.23788870178220373  0.8674398976082641  0.4677344220231915  1.0000
  C   C44       1.0  0.7702402277706568  0.5322421375959651  0.39967712667610306  1.0000
  C   C45       1.0  0.37027408287164587  0.6002798723633306  0.13253637166524615  1.0000
  C   C46       1.0  0.3281887428292051  0.825179325363223  0.4466704153144931  1.0000
  C   C47       1.0  0.8815229980020048  0.553289514026808  0.37844703449987793  1.0000
  C   C48       1.0  0.5028612287026062  0.621499522683166  0.17478776646444763  1.0000
  C   C49       1.0  0.22526267076435857  0.780546896684534  0.41096813992042774  1.0000
  C   C50       1.0  0.8142568598730193  0.5889946198278938  0.36953222328541113  1.0000
  C   C51       1.0  0.44463432756596444  0.6304258857829342  0.21943237058589207  1.0000
  C   C52       1.0  0.01825834909396204  0.7774477448767172  0.395717154210672  1.0000
  C   C53       1.0  0.622464537612906  0.6042543635900373  0.38170899132966707  1.0000
  C   C54       1.0  0.24076198305040453  0.6182643140218573  0.2225502759449753  1.0000
  C   C55       1.0  0.9284483923624903  0.8206856898030782  0.4169883327126841  1.0000
  C   C56       1.0  0.511492959936767  0.5829956820841321  0.40369298412542076  1.0000
  C   C57       1.0  0.1077026986950216  0.5962900508778687  0.1793252785462228  1.0000
  C   C58       1.0  0.03529837415772617  0.8644851379206814  0.45131953774174616  1.0000
  C   C59       1.0  0.58408420372686  0.5486515968749615  0.41314382299459135  1.0000
  C   C60       1.0  0.1706921016763516  0.5868217908064609  0.13551542031241576  1.0000
  C   C61       1.0  0.34067526970691375  0.7390203074049  0.39095511330830857  1.0000
  C   C62       1.0  0.9496864124776039  0.6090142715750417  0.3480368324055618  1.0000
  C   C63       1.0  0.6016736018807051  0.6519062854281401  0.2609378008840224  1.0000
  C   C64       1.0  0.08246992418069242  0.9847808400504405  0.560196628492875  1.0000
  C   C65       1.0  0.5225692535502019  0.43994291180963774  0.4246316929539233  1.0000
  C   C66       1.0  0.09757927608293927  0.5754048984224412  0.015256942794536675  1.0000
  C   C67       1.0  0.9563483398911143  0.01807227015740411  0.5857477480136526  1.0000
  C   C68       1.0  0.3707855643776411  0.4144376610137996  0.43238225275784  1.0000
  C   C69       1.0  0.9380843442940048  0.5676497725051562  0.9819929559884528  1.0000
  C   C70       1.0  0.9515773976241916  0.0605342814619405  0.5827220962943471  1.0000
  C   C71       1.0  0.36907226786661324  0.4174307199013185  0.47785868427780537  1.0000
  C   C72       1.0  0.8909411642801928  0.5221720990405531  0.9395121293676496  1.0000
  C   C73       1.0  0.0729835698505141  0.06888039553348341  0.5541124793372347  1.0000
  C   C74       1.0  0.5191642176742661  0.44597958347042527  0.5148026880045294  1.0000
  C   C75       1.0  0.00410175272826763  0.4852316537189553  0.9311320688294772  1.0000
  C   C76       1.0  0.6359796937056073  0.1355936807497784  0.5494969105359786  1.0000
  C   C77       1.0  0.0869588706943105  0.45055302820104975  0.5861821058961995  1.0000
  C   C78       1.0  0.5001175971427044  0.413844367354507  0.8643935083404486  1.0000
  C   C79       1.0  0.7423237411441972  0.17924747477521663  0.5842842994477166  1.0000
  C   C80       1.0  0.15838221422605864  0.41572707411885557  0.5950075897122318  1.0000
  C   C81       1.0  0.5628946104834397  0.4049873069364553  0.8207403890109931  1.0000
  C   C82       1.0  0.3311541543687112  0.260987686619913  0.6091581231034625  1.0000
  C   C83       1.0  0.7220684572694509  0.39080650419971624  0.6517976621077182  1.0000
  C   C84       1.0  0.07017205724299908  0.3481201256856536  0.7389434970730733  1.0000
  O   O1        1.0  0.5211538682146538  0.7430963228622005  0.40795636725250967  1.0000
  O   O2        1.0  0.11320104956174501  0.5920193868081115  0.3351338681633536  1.0000
  O   O3        1.0  0.7780797976276543  0.664790011901033  0.25682172739499987  1.0000
  O   O4        1.0  0.25589472174232236  0.6983065072987672  0.35503426639723296  1.0000
  O   O5        1.0  0.9008958120972396  0.6449499892764196  0.3432554757202482  1.0000
  O   O6        1.0  0.5576467766157547  0.656681131726458  0.3016536831739812  1.0000
  O   O7        1.0  0.9078174520241046  0.7361343301497527  0.3624791326577608  1.0000
  O   O8        1.0  0.5453102604274919  0.637513073184934  0.37365861358480873  1.0000
  O   O9        1.0  0.17168994814477403  0.6263202288037207  0.2638705112661699  1.0000
  O   O10       1.0  0.15040572164856772  0.25670216612589775  0.5922047431373656  1.0000
  O   O11       1.0  0.5582546668275796  0.40775597320159573  0.6644712347625088  1.0000
  O   O12       1.0  0.8937224483131913  0.33540716363496875  0.743197290068288  1.0000
  O   O13       1.0  0.41520530587145277  0.30169283228051563  0.6452160324807109  1.0000
  O   O14       1.0  0.7700353457889832  0.3547306413166497  0.6564273776382024  1.0000
  O   O15       1.0  0.11360643556027125  0.3435139817396404  0.6982540281196634  1.0000
  O   O16       1.0  0.7638311003345278  0.2638728604184664  0.6383041532454996  1.0000
  O   O17       1.0  0.1255886473666479  0.3616272528172716  0.625514256911238  1.0000
  O   O18       1.0  0.49999416270797786  0.37442105136675247  0.7361066783620487  1.0000
