data_image0
_chemical_formula_structural       Cd2H16C16I4N8O4
_chemical_formula_sum              "Cd2 H16 C16 I4 N8 O4"
_cell_length_a       4.173281133875894
_cell_length_b       7.798804860060186
_cell_length_c       20.438592133142254
_cell_angle_alpha    89.99958273856232
_cell_angle_beta     90.49179941241295
_cell_angle_gamma    89.99988731925644

_space_group_name_H-M_alt    "P 1"
_space_group_IT_number       1

loop_
  _space_group_symop_operation_xyz
  'x, y, z'

loop_
  _atom_site_type_symbol
  _atom_site_label
  _atom_site_symmetry_multiplicity
  _atom_site_fract_x
  _atom_site_fract_y
  _atom_site_fract_z
  _atom_site_occupancy
  Cd  Cd1       1.0  0.49999978965990977  0.4999999250625038  0.49999889969379313  1.0000
  Cd  Cd2       1.0  0.4999943492271087  0.9999990614110386  0.9999987708086523  1.0000
  H   H1        1.0  0.31315868250899115  0.8820004391478731  0.557898236127585  1.0000
  H   H2        1.0  0.686861005071087  0.3820123886761522  0.942110684485371  1.0000
  H   H3        1.0  0.6868594675152836  0.11800069314114128  0.442106998853177  1.0000
  H   H4        1.0  0.31315051422547663  0.6179797679457124  0.057887665669525704  1.0000
  H   H5        1.0  0.7964366155277248  0.4876668899220959  0.6552571077206508  1.0000
  H   H6        1.0  0.20356069084022008  0.9876924235689728  0.8447606788157959  1.0000
  H   H7        1.0  0.20352882351146212  0.5123303956780844  0.3447478561268085  1.0000
  H   H8        1.0  0.7964098584650046  0.012313837794636098  0.15524039660104452  1.0000
  H   H9        1.0  0.4940819824995231  0.09260802502421228  0.6453910172268493  1.0000
  H   H10       1.0  0.505955202364632  0.5926225302901498  0.8546120090571848  1.0000
  H   H11       1.0  0.5059341695211046  0.9073956718054247  0.3546093140928477  1.0000
  H   H12       1.0  0.4940656619758741  0.4073734730394989  0.1453893251895977  1.0000
  H   H13       1.0  0.8431012830182566  0.9999511099531374  0.727780405098905  1.0000
  H   H14       1.0  0.156911466394817  0.4999581190982809  0.7722242119998698  1.0000
  H   H15       1.0  0.1568978983494347  5.25868724921e-05  0.27222228561563366  1.0000
  H   H16       1.0  0.8430806464949256  0.50005070673857  0.22777697433365768  1.0000
  C   C1        1.0  0.46012321462985994  0.8426413330862983  0.5995286640761324  1.0000
  C   C2        1.0  0.5399041214719134  0.3426530230332929  0.9004750309985499  1.0000
  C   C3        1.0  0.5398739687334313  0.1573674927754496  0.40046912297349735  1.0000
  C   C4        1.0  0.4601100723431557  0.6573429803592107  0.09951990754218801  1.0000
  C   C5        1.0  0.7261601910414157  0.6224812233127679  0.6532536834142918  1.0000
  C   C6        1.0  0.2738358870604003  0.1224905370193667  0.8467534460345548  1.0000
  C   C7        1.0  0.27382489317071185  0.3775147800710386  0.3467455094318552  1.0000
  C   C8        1.0  0.7261493165396473  0.8774964906429688  0.1532442794252233  1.0000
  C   C9        1.0  0.5583536163078407  0.9573994321040685  0.6465106091847944  1.0000
  C   C10       1.0  0.44166654471805333  0.4573954734302816  0.8534917267590746  1.0000
  C   C11       1.0  0.4416625755071379  0.0426068292253348  0.35348923299779506  1.0000
  C   C12       1.0  0.5583238089472361  0.5425864252744714  0.1465016211579453  1.0000
  C   C13       1.0  0.8473393799447636  0.7367071389035116  0.7034135055071716  1.0000
  C   C14       1.0  0.15268777905712477  0.23672270337289086  0.7965934418315188  1.0000
  C   C15       1.0  0.15265752485805  0.26328373545985767  0.2965877055022617  1.0000
  C   C16       1.0  0.8473143553929248  0.7632912514919781  0.2034024133263443  1.0000
  I   I1        1.0  0.9820664130384673  0.733448490230259  0.4487601891363441  1.0000
  I   I2        1.0  0.0179258145237569  0.2334391459586129  0.051245293181601405  1.0000
  I   I3        1.0  0.017928095806695413  0.26655520661310567  0.5512410095293774  1.0000
  I   I4        1.0  0.982075882185029  0.766558139638576  0.9487559424672299  1.0000
  N   N1        1.0  0.5500850771938134  0.6750834860336851  0.6033093795156931  1.0000
  N   N2        1.0  0.44992754298488086  0.1750979845603595  0.8967001242215391  1.0000
  N   N3        1.0  0.44991166842410746  0.32492277528565694  0.3966937880037735  1.0000
  N   N4        1.0  0.5500695607908241  0.8249018655585941  0.10329864110808981  1.0000
  N   N5        1.0  0.7481986272822995  0.9046330277528867  0.6964919797277673  1.0000
  N   N6        1.0  0.2518378983906544  0.40464058121296625  0.8035159810700067  1.0000
  N   N7        1.0  0.2517983173126268  0.09536810459676559  0.3035087421330261  1.0000
  N   N8        1.0  0.7481922712005585  0.5953528575814389  0.19648882641153162  1.0000
  O   O1        1.0  0.0345884855221996  0.6944972243072413  0.7492319604997705  1.0000
  O   O2        1.0  0.9654412133955289  0.19450173250034203  0.750773658277474  1.0000
  O   O3        1.0  0.9654107356420882  0.3055013435316454  0.2507702410891781  1.0000
  O   O4        1.0  0.034558525103214804  0.8055032466327391  0.2492221845693408  1.0000
