data_image0
_chemical_formula_structural       Al4H64C92Cl8O32
_chemical_formula_sum              "Al4 H64 C92 Cl8 O32"
_cell_length_a       6.61442169307401
_cell_length_b       22.31872413609042
_cell_length_c       26.98791433604588
_cell_angle_alpha    102.27305592820186
_cell_angle_beta     89.99969521842314
_cell_angle_gamma    90.00043698575229

_space_group_name_H-M_alt    "P 1"
_space_group_IT_number       1

loop_
  _space_group_symop_operation_xyz
  'x, y, z'

loop_
  _atom_site_type_symbol
  _atom_site_label
  _atom_site_symmetry_multiplicity
  _atom_site_fract_x
  _atom_site_fract_y
  _atom_site_fract_z
  _atom_site_occupancy
  Al  Al1       1.0  0.19896256377377602  0.7482893848569389  0.24909213520066226  1.0000
  Al  Al2       1.0  0.8140418619900841  0.2522174686083431  0.7507915731353518  1.0000
  Al  Al3       1.0  0.6989639788975877  0.7517058452858479  0.25090840986754154  1.0000
  Al  Al4       1.0  0.31402531357601043  0.24778601848058188  0.7492099711313214  1.0000
  H   H1        1.0  0.09759555398631649  0.6187164634196376  0.10199686392329  1.0000
  H   H2        1.0  0.91601662567777  0.38154660045438493  0.8987035133685026  1.0000
  H   H3        1.0  0.5976088065610342  0.88128842191724  0.3980019840934119  1.0000
  H   H4        1.0  0.41600942377252176  0.11845500004152847  0.6012967390053774  1.0000
  H   H5        1.0  0.2542577131069165  0.8831434078447199  0.1666533522346754  1.0000
  H   H6        1.0  0.7397201948362095  0.12725631372060056  0.8387188828245298  1.0000
  H   H7        1.0  0.7542287596235865  0.6168437277730375  0.33333760337484347  1.0000
  H   H8        1.0  0.23973686088741178  0.3727409169837301  0.6612815981834785  1.0000
  H   H9        1.0  0.2533897273197566  0.9512468355130749  0.10423947020365178  1.0000
  H   H10       1.0  0.7241574387913232  0.061146320283043565  0.9016803976636962  1.0000
  H   H11       1.0  0.7533626558103917  0.5487455912757324  0.3957583313035966  1.0000
  H   H12       1.0  0.22416764354344557  0.4388504569967465  0.598321996622303  1.0000
  H   H13       1.0  0.6581852317847847  0.8209396076601647  0.11863152187365958  1.0000
  H   H14       1.0  0.3660989476665079  0.16538764057623467  0.8757165515433555  1.0000
  H   H15       1.0  0.15816653005575176  0.6790531341443394  0.38136300916978166  1.0000
  H   H16       1.0  0.8661179226738156  0.33462005258918026  0.6242834259822486  1.0000
  H   H17       1.0  0.6683007709846579  0.9947746182895968  0.04318882463118709  1.0000
  H   H18       1.0  0.32269110685102476  0.0011340867213433146  0.954172141826184  1.0000
  H   H19       1.0  0.1682749811083042  0.505220484007168  0.45681327835768554  1.0000
  H   H20       1.0  0.8226837043353894  0.49887359480835153  0.5458263829368162  1.0000
  H   H21       1.0  0.7056473098704785  0.0608595643540823  0.9816271610985222  1.0000
  H   H22       1.0  0.2864406630018265  0.935673278397935  0.016128700975329494  1.0000
  H   H23       1.0  0.20563749723425667  0.4391387378630822  0.5183779186259228  1.0000
  H   H24       1.0  0.7864202964289079  0.5643324811584235  0.48386836706362846  1.0000
  H   H25       1.0  0.3316315962018733  0.6746891766407329  0.9857724238372254  1.0000
  H   H26       1.0  0.31265809552657936  0.6518399335775839  0.9175245382596554  1.0000
  H   H27       1.0  0.5531266474488845  0.6727767708854698  0.9468857414683141  1.0000
  H   H28       1.0  0.6855347704691325  0.34886444799703037  0.0806462837837572  1.0000
  H   H29       1.0  0.6672794183685581  0.3275649675898079  0.012295712329503798  1.0000
  H   H30       1.0  0.4444615134223966  0.33027543057588815  0.050769717019484496  1.0000
  H   H31       1.0  0.8315460717537704  0.8253060522889085  0.5142244544994908  1.0000
  H   H32       1.0  0.8125661409437227  0.8481489783781198  0.5824723334869759  1.0000
  H   H33       1.0  0.053022731124301004  0.8272080632211993  0.5531114794599077  1.0000
  H   H34       1.0  0.18560853842924982  0.15113297368284856  0.41934714949626073  1.0000
  H   H35       1.0  0.16736032140687482  0.17243962284364756  0.4876996787454288  1.0000
  H   H36       1.0  0.9445396159060521  0.1697370950484184  0.44922266941297545  1.0000
  H   H37       1.0  0.6120827702694809  0.4935306347232638  0.8197385957476157  1.0000
  H   H38       1.0  0.6689994590619719  0.5391309251871306  0.8816515863657484  1.0000
  H   H39       1.0  0.6552999332249031  0.574191504196861  0.8274637438313447  1.0000
  H   H40       1.0  0.33933035798428784  0.4629712348508903  0.11759383662280236  1.0000
  H   H41       1.0  0.397781563127566  0.5079312669047766  0.1796541278263035  1.0000
  H   H42       1.0  0.35089061435612484  0.4274123491013241  0.17152113340298306  1.0000
  H   H43       1.0  0.11206095990938539  0.006478469517787697  0.6802621310809228  1.0000
  H   H44       1.0  0.1689857583562215  0.960875073982976  0.6183486113610213  1.0000
  H   H45       1.0  0.15528606346777707  0.9258171155862127  0.6725398956715976  1.0000
  H   H46       1.0  0.8393666711508558  0.0370210994005049  0.38241373994155475  1.0000
  H   H47       1.0  0.8977927439505251  0.9920566191505454  0.3203529102988155  1.0000
  H   H48       1.0  0.8508817502709219  0.07257358190118879  0.3284822269078446  1.0000
  H   H49       1.0  0.4043631166082163  0.8337343791265255  0.0677885211591231  1.0000
  H   H50       1.0  0.5915068854835397  0.7869039483091808  0.029371808759016498  1.0000
  H   H51       1.0  0.41774947165763615  0.8320899688510366  0.0013097904366432996  1.0000
  H   H52       1.0  0.25116039809766727  0.13610241673978143  0.018328823839013398  1.0000
  H   H53       1.0  0.3638851600208283  0.19423508592816313  0.9899985917193276  1.0000
  H   H54       1.0  0.5212370201274155  0.1419407607254968  0.014775109290319199  1.0000
  H   H55       1.0  0.9043491495675015  0.6662645395090292  0.43220341885524494  1.0000
  H   H56       1.0  0.0914968618793424  0.7130919733529238  0.470621698478638  1.0000
  H   H57       1.0  0.9177225035931259  0.6679111236355196  0.49868176336598663  1.0000
  H   H58       1.0  0.7511326983253922  0.36389633767309687  0.4816747474611914  1.0000
  H   H59       1.0  0.8638762942598318  0.3057689226305271  0.5100081857465638  1.0000
  H   H60       1.0  0.021218445659378905  0.35806048417475  0.48521895797244224  1.0000
  H   H61       1.0  0.45603859134222097  0.7062547694242907  0.18867673412782435  1.0000
  H   H62       1.0  0.556992980139526  0.2899941160804289  0.8129500817383785  1.0000
  H   H63       1.0  0.9560356967183308  0.7937455959930656  0.31132233485305244  1.0000
  H   H64       1.0  0.05699145955657771  0.21000798982306176  0.6870518225340091  1.0000
  C   C1        1.0  0.44947605997528944  0.6902684568173638  0.3153923691120326  1.0000
  C   C2        1.0  0.5628193094115445  0.3107614548810034  0.6853950347695559  1.0000
  C   C3        1.0  0.9494829469169375  0.809728755629912  0.184606692414512  1.0000
  C   C4        1.0  0.06280787154020119  0.18924406198777172  0.814606122006303  1.0000
  C   C5        1.0  0.44544307916861203  0.8506297702134589  0.3061375474635141  1.0000
  C   C6        1.0  0.5679453593191822  0.14984459367446581  0.6932192293828976  1.0000
  C   C7        1.0  0.9454396358022593  0.6493655488623418  0.19386832615040103  1.0000
  C   C8        1.0  0.0679548285750471  0.35016038956281637  0.8067815385136896  1.0000
  C   C9        1.0  0.08869942736868812  0.4110327752150055  0.8425120128534329  1.0000
  C   C10       1.0  0.9248749509353117  0.5886669806138584  0.15788997996929058  1.0000
  C   C11       1.0  0.5887055228458207  0.08897474977258915  0.6574879815675985  1.0000
  C   C12       1.0  0.42489154678431623  0.9113323341968425  0.3421087492414187  1.0000
  C   C13       1.0  0.26542041984146886  0.5083901162552136  0.8672532370970172  1.0000
  C   C14       1.0  0.7442715496338933  0.4920972694778669  0.1322293369744116  1.0000
  C   C15       1.0  0.7654055414604952  0.9916115778118239  0.6327467998451722  1.0000
  C   C16       1.0  0.24429547913885588  0.007903571603598858  0.3677700896807109  1.0000
  C   C17       1.0  0.20766593130968397  0.4581060086601951  0.8299111674458927  1.0000
  C   C18       1.0  0.8042318114247919  0.5416078533019045  0.16998004901405037  1.0000
  C   C19       1.0  0.7076570218021844  0.04189600230919407  0.6700890062154341  1.0000
  C   C20       1.0  0.30424526235798066  0.9583915884239146  0.3300184746156418  1.0000
  C   C21       1.0  0.0067464414581194995  0.4187156263367909  0.8905065912501086  1.0000
  C   C22       1.0  0.006217413208517499  0.581501629249672  0.10985495039820137  1.0000
  C   C23       1.0  0.5067454637809091  0.0812885581838714  0.6094969106901685  1.0000
  C   C24       1.0  0.5062196463498977  0.9184980541545328  0.3901436217769215  1.0000
  C   C25       1.0  0.048328708567659404  0.4708831069489248  0.9289804035447627  1.0000
  C   C26       1.0  0.9629809393886574  0.5299111437144147  0.07089688730071227  1.0000
  C   C27       1.0  0.5483239060655763  0.029121555428403646  0.5710192546167078  1.0000
  C   C28       1.0  0.4630053737257355  0.9700911696436094  0.4290991526138938  1.0000
  C   C29       1.0  0.1960353702603328  0.5134479032202746  0.9183110321399609  1.0000
  C   C30       1.0  0.8135341462013769  0.48758647360654084  0.08122861388877568  1.0000
  C   C31       1.0  0.6960105067270916  0.9865517954796342  0.5816906080892463  1.0000
  C   C32       1.0  0.31354688158823757  0.012413341143925996  0.4187714656833562  1.0000
  C   C33       1.0  0.9600665239871731  0.47969519364059454  0.9791827595399595  1.0000
  C   C34       1.0  0.05080922878843099  0.5214716553462252  0.020643503504601295  1.0000
  C   C35       1.0  0.46006397764524815  0.02030150543527036  0.5208136168139175  1.0000
  C   C36       1.0  0.550822325403999  0.9785287008733831  0.47935197900032017  1.0000
  C   C37       1.0  0.2280844820905941  0.5536801184224415  0.009543937896609098  1.0000
  C   C38       1.0  0.7813323461963575  0.4480008170401317  0.9899813603810513  1.0000
  C   C39       1.0  0.72807693252021  0.9463185910772225  0.4904577201942359  1.0000
  C   C40       1.0  0.28133228626343504  0.05200156745281247  0.5100160591493432  1.0000
  C   C41       1.0  0.2867631107659959  0.5546022832288171  0.960426593230579  1.0000
  C   C42       1.0  0.7211312884242743  0.4471563320901523  0.03898627107165  1.0000
  C   C43       1.0  0.7867453423656413  0.9453991215289718  0.5395756838057437  1.0000
  C   C44       1.0  0.22114144376660508  0.05284847882744258  0.4610113164027822  1.0000
  C   C45       1.0  0.12466229919730408  0.8845558074742852  0.14203590636068236  1.0000
  C   C46       1.0  0.8728170026580526  0.12090734167708199  0.8608272887681562  1.0000
  C   C47       1.0  0.624639005188392  0.6154341091546411  0.35796017228138055  1.0000
  C   C48       1.0  0.3728386841085367  0.3790897399937946  0.6391767881122801  1.0000
  C   C49       1.0  0.12390559651370128  0.9217001406457754  0.10666340706257668  1.0000
  C   C50       1.0  0.8651859774979582  0.08422648496624414  0.8963836600752797  1.0000
  C   C51       1.0  0.6238566466213554  0.5782868687517677  0.3933300063337767  1.0000
  C   C52       1.0  0.3651879500408484  0.4157738175867323  0.6036208236052119  1.0000
  C   C53       1.0  0.9614998549091852  0.9223294165242915  0.0732164769756949  1.0000
  C   C54       1.0  0.03450835483824479  0.07617203252507909  0.9259945908491073  1.0000
  C   C55       1.0  0.46147032146391354  0.5776724243089859  0.4267848642328857  1.0000
  C   C56       1.0  0.5345001196595192  0.4238320149691359  0.574008113306256  1.0000
  C   C57       1.0  0.7933999797910118  0.8839123818837535  0.0768594414118908  1.0000
  C   C58       1.0  0.2142962624778733  0.10726147479685713  0.9180484622998007  1.0000
  C   C59       1.0  0.29335032678312695  0.6160796925647745  0.4231329993860484  1.0000
  C   C60       1.0  0.7142916448206833  0.3927490732133377  0.5819517474427439  1.0000
  C   C61       1.0  0.7883360845223278  0.849156095225403  0.11421880055557658  1.0000
  C   C62       1.0  0.22498725694512697  0.1424133845763435  0.8812581094731511  1.0000
  C   C63       1.0  0.2883226368698714  0.6508370563260114  0.385774410582421  1.0000
  C   C64       1.0  0.7250114412618983  0.3575953889427834  0.618742075498538  1.0000
  C   C65       1.0  0.9542505838993307  0.8489356441733944  0.14636222951192926  1.0000
  C   C66       1.0  0.05425456494389639  0.14968401387574196  0.8525324966926674  1.0000
  C   C67       1.0  0.4542224821818905  0.6510517978172742  0.3536299566519573  1.0000
  C   C68       1.0  0.5542766391556454  0.3503188650386447  0.6474671434620234  1.0000
  C   C69       1.0  0.812284789354898  0.9959304754845558  0.023791570874479397  1.0000
  C   C70       1.0  0.17979411321568506  0.0007158540161497417  0.9740599480610111  1.0000
  C   C71       1.0  0.3122602045063019  0.5040610491862052  0.4762110646109789  1.0000
  C   C72       1.0  0.6797839817114523  0.4992951723414122  0.525940692240617  1.0000
  C   C73       1.0  0.8339604628903458  0.03345630734999354  0.9890709071466544  1.0000
  C   C74       1.0  0.15858409195263323  0.9636133659883868  0.009114224539842999  1.0000
  C   C75       1.0  0.3339605369107518  0.4665465127212085  0.5109385575701991  1.0000
  C   C76       1.0  0.658564413898908  0.5363906176247893  0.49088225937991564  1.0000
  C   C77       1.0  0.017904465214080303  0.03697787684232167  0.9635468847986244  1.0000
  C   C78       1.0  0.9752115720312985  0.9605435672393057  0.034915207769031995  1.0000
  C   C79       1.0  0.5179113870822291  0.4630203523830615  0.5364524038157369  1.0000
  C   C80       1.0  0.475177479064925  0.5394532204157798  0.4650819212871013  1.0000
  C   C81       1.0  0.40760189663457425  0.6507690259719607  0.950799170578044  1.0000
  C   C82       1.0  0.5921134181914595  0.35133984419815784  0.047406790260460185  1.0000
  C   C83       1.0  0.907514980232648  0.8492204432733171  0.5491990832006336  1.0000
  C   C84       1.0  0.09217757666294801  0.14866531276639708  0.4525879539010089  1.0000
  C   C85       1.0  0.5930747052146046  0.5385118717024184  0.8453380225422149  1.0000
  C   C86       1.0  0.4150691473800022  0.4630010947830242  0.15384101492167448  1.0000
  C   C87       1.0  0.09306352593245748  0.9614947171268678  0.6546634229153341  1.0000
  C   C88       1.0  0.9150878349464405  0.03698982222483238  0.3461637950117193  1.0000
  C   C89       1.0  0.5068015880193713  0.8303415294855726  0.035207164396624094  1.0000
  C   C90       1.0  0.37852070816354905  0.14680012170374104  0.9953436037395559  1.0000
  C   C91       1.0  0.006779940479297898  0.6696571840594528  0.4647857214342962  1.0000
  C   C92       1.0  0.878505587272258  0.3532030381029755  0.5046578466229404  1.0000
  Cl  Cl1       1.0  0.7341829573265884  0.5447344614571036  0.23200500459364545  1.0000
  Cl  Cl2       1.0  0.2778674701599613  0.45400309005695755  0.7677821632618061  1.0000
  Cl  Cl3       1.0  0.23419267704345256  0.9552629345814196  0.26799133609854653  1.0000
  Cl  Cl4       1.0  0.7778335905385846  0.04600042355950506  0.732219811551168  1.0000
  Cl  Cl5       1.0  0.3973148146703521  0.588541895561782  0.056179607903999285  1.0000
  Cl  Cl6       1.0  0.6124784771582554  0.4140028416748363  0.9430348512740846  1.0000
  Cl  Cl7       1.0  0.8972994691634923  0.9114616681804294  0.4438256211261374  1.0000
  Cl  Cl8       1.0  0.1124619967960001  0.08599736020128286  0.5569643127146121  1.0000
  O   O1        1.0  0.6205178939235052  0.8285904690918424  0.29471363306585363  1.0000
  O   O2        1.0  0.3923731353202129  0.17119309373166652  0.7049685390821309  1.0000
  O   O3        1.0  0.12052720863943019  0.6714003896775012  0.20529343851504928  1.0000
  O   O4        1.0  0.8923880109962851  0.3288077121855082  0.7950431035286769  1.0000
  O   O5        1.0  0.27662223666261093  0.7044330812955122  0.3003757745415853  1.0000
  O   O6        1.0  0.7366361914656138  0.2975436669768639  0.7005052952195638  1.0000
  O   O7        1.0  0.7766224954035155  0.7955790392021742  0.1996289152633607  1.0000
  O   O8        1.0  0.23662379967925767  0.20247230700933727  0.7994949115566428  1.0000
  O   O9        1.0  0.2786225173699677  0.8246549539451845  0.29171637064162326  1.0000
  O   O10       1.0  0.7343864586425609  0.17639479544271094  0.7070913471526836  1.0000
  O   O11       1.0  0.7786376829729987  0.6753550146413119  0.20827429327848526  1.0000
  O   O12       1.0  0.23438183210339494  0.3236069047830341  0.7928947751259301  1.0000
  O   O13       1.0  0.11987268255635539  0.7925973071821344  0.19864856942656664  1.0000
  O   O14       1.0  0.8937954454392029  0.2078367093294275  0.8009666371797124  1.0000
  O   O15       1.0  0.6198752544221833  0.7073813804213102  0.3013402610047534  1.0000
  O   O16       1.0  0.3938155342154984  0.29214973509746756  0.6990305365288305  1.0000
  O   O17       1.0  0.4502559732919095  0.7384793807960218  0.21903068904047265  1.0000
  O   O18       1.0  0.5628784532768735  0.2606468698858037  0.7808884431385293  1.0000
  O   O19       1.0  0.9502451185557774  0.7615201710466052  0.28096876255902703  1.0000
  O   O20       1.0  0.0628787465465876  0.23935470379777254  0.7191130711903568  1.0000
  O   O21       1.0  0.4531696820846776  0.5884179380890442  0.9532137772325552  1.0000
  O   O22       1.0  0.5521394714293419  0.41433924633811603  0.04599916811353209  1.0000
  O   O23       1.0  0.9531297694395563  0.9115724932754571  0.5467897181796956  1.0000
  O   O24       1.0  0.0521656948404967  0.08566961390854994  0.45399641035171345  1.0000
  O   O25       1.0  0.3814826404681639  0.5534765923753537  0.8543236911662431  1.0000
  O   O26       1.0  0.6260156428058962  0.4472031752269245  0.1447789490168603  1.0000
  O   O27       1.0  0.8814694342442805  0.9465266906936023  0.6456780818229503  1.0000
  O   O28       1.0  0.12603033051765067  0.05279486693669359  0.35521570875469166  1.0000
  O   O29       1.0  0.6428261890094049  0.8814001664756856  0.04154579375376949  1.0000
  O   O30       1.0  0.38641235190778633  0.10456414507448383  0.9471453610582541  1.0000
  O   O31       1.0  0.14279575103935832  0.6185962794082298  0.4584529446082896  1.0000
  O   O32       1.0  0.8864112430290305  0.3954439403317095  0.5528542108520256  1.0000
