data_image0
_chemical_formula_structural       Zn2H48C36N2O8
_chemical_formula_sum              "Zn2 H48 C36 N2 O8"
_cell_length_a       9.513510377277498
_cell_length_b       10.826690002426892
_cell_length_c       16.071336784242042
_cell_angle_alpha    90.55516569252954
_cell_angle_beta     89.95793801793049
_cell_angle_gamma    89.56796461058192

_space_group_name_H-M_alt    "P 1"
_space_group_IT_number       1

loop_
  _space_group_symop_operation_xyz
  'x, y, z'

loop_
  _atom_site_type_symbol
  _atom_site_label
  _atom_site_symmetry_multiplicity
  _atom_site_fract_x
  _atom_site_fract_y
  _atom_site_fract_z
  _atom_site_occupancy
  Zn  Zn1       1.0  0.3531018873916593  0.4997108756583302  0.5024019719286699  1.0000
  Zn  Zn2       1.0  0.6456278869918464  0.5008549917412992  0.5012470546667488  1.0000
  H   H1        1.0  0.46566557652932516  0.6906359476896569  0.07423516885765481  1.0000
  H   H2        1.0  0.12447681678227697  0.6870780301880401  0.5413284578112183  1.0000
  H   H3        1.0  0.8752524799902094  0.36640883477281255  0.5943287071617006  1.0000
  H   H4        1.0  0.12489591446608017  0.3610465085494567  0.5925580892403987  1.0000
  H   H5        1.0  0.8765190478043507  0.45446521774682935  0.37662924970923944  1.0000
  H   H6        1.0  0.1260529494544896  0.45767116889335585  0.3760494205934179  1.0000
  H   H7        1.0  0.8736583287454207  0.6146734919619661  0.3972497102436563  1.0000
  H   H8        1.0  0.1232437894943246  0.6171378404338839  0.40004411477804785  1.0000
  H   H9        1.0  0.8735833908473295  0.3100924362547275  0.4906989194407387  1.0000
  H   H10       1.0  0.122978261721542  0.3091908973009794  0.48796387040724193  1.0000
  H   H11       1.0  0.4671459971612038  0.687668045604525  0.9286078007363798  1.0000
  H   H12       1.0  0.7047024420376358  0.5862844196247537  0.074419764174003  1.0000
  H   H13       1.0  0.7066831388266549  0.5815259211037117  0.9286708867852695  1.0000
  H   H14       1.0  0.7178471914221162  0.418791666196583  0.9297161015016684  1.0000
  H   H15       1.0  0.3128106482531692  0.5982693397472331  0.9283969400088381  1.0000
  H   H16       1.0  0.718049053155596  0.42366766768144976  0.07551581735441461  1.0000
  H   H17       1.0  0.3115797341494683  0.6008222497410713  0.0741103744718288  1.0000
  H   H18       1.0  0.3297230054222523  0.3641601713371898  0.9291183500010407  1.0000
  H   H19       1.0  0.4958099727751204  0.2907203471515701  0.9293070138404786  1.0000
  H   H20       1.0  0.32950978584774054  0.366858708611467  0.074823163253086  1.0000
  H   H21       1.0  0.49599154131362166  0.2938483870096249  0.0749776862825797  1.0000
  H   H22       1.0  0.27640204784564293  0.9106451972563435  0.5341588442331188  1.0000
  H   H23       1.0  0.2752467145398824  0.12363384669237831  0.504632231279821  1.0000
  H   H24       1.0  0.697436641553267  0.8749697951612063  0.4403269923678722  1.0000
  H   H25       1.0  0.3051724331790808  0.8889254370641951  0.4267077342517496  1.0000
  H   H26       1.0  0.5547099468084937  0.9000465378045776  0.3720200384756538  1.0000
  H   H27       1.0  0.35023490471795776  0.09881878390712727  0.4058689831180544  1.0000
  H   H28       1.0  0.6071263904129578  0.11113094035174241  0.3827507214465983  1.0000
  H   H29       1.0  0.268826003139921  0.21842287874427774  0.7865628093732226  1.0000
  H   H30       1.0  0.20146909897828644  0.06716025628212209  0.7723249124168846  1.0000
  H   H31       1.0  0.3059508724541046  0.1023413768310064  0.8609484939206171  1.0000
  H   H32       1.0  0.4510079526654849  0.9855742063971251  0.7564448618816968  1.0000
  H   H33       1.0  0.5144846672853872  0.13745410012243303  0.7695620519789517  1.0000
  H   H34       1.0  0.7221172281631849  0.0865893594698051  0.4661785365862769  1.0000
  H   H35       1.0  0.38339583427173807  0.20564113880676868  0.6438144074869927  1.0000
  H   H36       1.0  0.31385359886922254  0.056495401816327714  0.6310248809142822  1.0000
  H   H37       1.0  0.9308665715902578  0.18857169807301233  0.6981069630466622  1.0000
  H   H38       1.0  0.8005926636913187  0.2138959549790371  0.7754609704607347  1.0000
  H   H39       1.0  0.9221519571052142  0.0890107366842869  0.7849171323904685  1.0000
  H   H40       1.0  0.6883873308464316  0.010495749668500302  0.7368384280270206  1.0000
  H   H41       1.0  0.8169769940793684  0.9851808462283177  0.6602323760029378  1.0000
  H   H42       1.0  0.7396201916111166  0.15578224693862813  0.5777191504834319  1.0000
  H   H43       1.0  0.6397652525786626  0.2218032670679619  0.657582568902292  1.0000
  H   H44       1.0  0.48683818037977733  0.8844832484667579  0.6363677173608906  1.0000
  H   H45       1.0  0.6560094132157558  0.8973831890151445  0.5934625496999857  1.0000
  H   H46       1.0  0.8725094006738343  0.5828586043966055  0.6223378327149192  1.0000
  H   H47       1.0  0.12284125220721619  0.5792375915596963  0.6234939482290187  1.0000
  H   H48       1.0  0.8742399397569611  0.6893111344418018  0.5394620446198104  1.0000
  C   C1        1.0  0.4944709232220105  0.7387960277366689  0.5024818568277709  1.0000
  C   C2        1.0  0.6163442065247792  0.0652844427075649  0.4432234014803598  1.0000
  C   C3        1.0  0.546754187630647  0.9284530773701929  0.5861971233107185  1.0000
  C   C4        1.0  0.4941390741858525  0.879467081379282  0.5012785129668273  1.0000
  C   C5        1.0  0.5042547248756221  0.12017700667887253  0.5027598718029225  1.0000
  C   C6        1.0  0.5005717064771389  0.4956977937587511  0.6645984806967392  1.0000
  C   C7        1.0  0.533351644131315  0.0719490660212614  0.5944364592126732  1.0000
  C   C8        1.0  0.91732360739298  0.6008028179295267  0.5606884598732338  1.0000
  C   C9        1.0  0.08009586394030069  0.5990607230512025  0.5616220327278115  1.0000
  C   C10       1.0  0.9181103829112016  0.38106616879545646  0.5318100407483825  1.0000
  C   C11       1.0  0.08046849804459548  0.3794919290159697  0.530877438371199  1.0000
  C   C12       1.0  0.4369333370416512  0.3729214155234571  0.0501042663815525  1.0000
  C   C13       1.0  0.9185684858280895  0.5265280084401168  0.4178639137484126  1.0000
  C   C14       1.0  0.08088171195853279  0.5273708828995751  0.41834872854450816  1.0000
  C   C15       1.0  0.5063050195430775  0.2612428078626082  0.500588207223153  1.0000
  C   C16       1.0  0.49755114454110566  0.4988781550261193  0.3392896350984174  1.0000
  C   C17       1.0  0.4201052958277102  0.6032087516253315  0.9533876912466539  1.0000
  C   C18       1.0  0.6574552465707412  0.49832320088552245  0.9538792609524833  1.0000
  C   C19       1.0  0.6568807504831113  0.5011595247893793  0.0501602672071755  1.0000
  C   C20       1.0  0.4192955850195616  0.6051060873699896  0.049637276788494916  1.0000
  C   C21       1.0  0.4992141551122201  0.4972731216849057  0.24927641494733177  1.0000
  C   C22       1.0  0.5051525176413348  0.4902541671458281  0.9203508690843165  1.0000
  C   C23       1.0  0.43708535311378677  0.3709662372834046  0.9538199640358798  1.0000
  C   C24       1.0  0.5042982628396899  0.4936012111479755  0.0833554710389421  1.0000
  C   C25       1.0  0.40776961096049286  0.1069713226791507  0.651960139688029  1.0000
  C   C26       1.0  0.4256141372474146  0.08358839748042612  0.7452062976063945  1.0000
  C   C27       1.0  0.293234819776515  0.11962435358597655  0.7940290088790007  1.0000
  C   C28       1.0  0.6693479777131728  0.132072040416638  0.6293941473387648  1.0000
  C   C29       1.0  0.7565559988559372  0.058434520996542  0.6925560676126566  1.0000
  C   C30       1.0  0.8581363612433109  0.14162406113346288  0.7404871155467491  1.0000
  C   C31       1.0  0.5022240721084756  0.4956226656090479  0.1736367838114532  1.0000
  C   C32       1.0  0.5042176146851673  0.489074071904227  0.8300814151525487  1.0000
  C   C33       1.0  0.5022739814676099  0.49056627803102515  0.7544617256625514  1.0000
  C   C34       1.0  0.3481080193809518  0.9333152101735038  0.4828198106418284  1.0000
  C   C35       1.0  0.596830247415177  0.9243579006917242  0.4337740443203373  1.0000
  C   C36       1.0  0.35983271263863503  0.07403023169821668  0.47194992862526425  1.0000
  N   N1        1.0  0.8645363139403199  0.5030081400164762  0.5031452235598408  1.0000
  N   N2        1.0  0.13403490468243012  0.5014249810969957  0.5036311459907239  1.0000
  O   O1        1.0  0.3804569026497261  0.6834857547571219  0.4847174668799782  1.0000
  O   O2        1.0  0.6099222241523136  0.6856938390326094  0.5212727539551312  1.0000
  O   O3        1.0  0.38432258985723416  0.5252537454759576  0.6306443478630754  1.0000
  O   O4        1.0  0.6160414462473511  0.4701445444637499  0.6276055320216898  1.0000
  O   O5        1.0  0.3929670715753133  0.3176384006705391  0.520614925233197  1.0000
  O   O6        1.0  0.6196698251239994  0.3143502340018713  0.4795315420969431  1.0000
  O   O7        1.0  0.3831000252255308  0.468766552184846  0.374557788041578  1.0000
  O   O8        1.0  0.6113119734661437  0.5304063232982656  0.3751746469786142  1.0000
