data_image0
_chemical_formula_structural       Ag2P2H50C56N2O4F6
_chemical_formula_sum              "Ag2 P2 H50 C56 N2 O4 F6"
_cell_length_a       9.769596611953807
_cell_length_b       10.617514895629355
_cell_length_c       13.539642499621513
_cell_angle_alpha    68.67718477003815
_cell_angle_beta     74.26856465322996
_cell_angle_gamma    81.7194034824697

_space_group_name_H-M_alt    "P 1"
_space_group_IT_number       1

loop_
  _space_group_symop_operation_xyz
  'x, y, z'

loop_
  _atom_site_type_symbol
  _atom_site_label
  _atom_site_symmetry_multiplicity
  _atom_site_fract_x
  _atom_site_fract_y
  _atom_site_fract_z
  _atom_site_occupancy
  Ag  Ag1       1.0  0.25255544109665357  0.4492031581200493  0.15469168840069608  1.0000
  Ag  Ag2       1.0  0.7474453279513612  0.550796104571468  0.845307944263993  1.0000
  P   P1        1.0  0.14785322264759063  0.2656392811006967  0.3025036267468977  1.0000
  P   P2        1.0  0.852146427906689  0.7343609913454403  0.6974966763905143  1.0000
  H   H1        1.0  0.33546648757189246  0.7334250170309106  0.9800806492714925  1.0000
  H   H2        1.0  0.664531146793955  0.2665732351414931  0.01991766744036031  1.0000
  H   H3        1.0  0.24229856795275848  0.9703259108259064  0.910382368810488  1.0000
  H   H4        1.0  0.7577043274089448  0.029673349044195208  0.08961906470340615  1.0000
  H   H5        1.0  0.8432847957227594  0.8447608359478879  0.14416343496248618  1.0000
  H   H6        1.0  0.1567189423395874  0.1552424662990646  0.8558403787105746  1.0000
  H   H7        1.0  0.9539496458925641  0.6151395712660702  0.2035444406978826  1.0000
  H   H8        1.0  0.0460509578990056  0.38486272526726145  0.7964558398586163  1.0000
  H   H9        1.0  0.15048889965870424  0.5641879862419614  0.4433056542812821  1.0000
  H   H10       1.0  0.8495096324018476  0.43581329595878776  0.5566953193288596  1.0000
  H   H11       1.0  0.055267553799360804  0.5011728066749583  0.3778718750336408  1.0000
  H   H12       1.0  0.9447320418979857  0.49882847972150296  0.6221274123100783  1.0000
  H   H13       1.0  0.23757543462517122  0.5355812404556558  0.31938782196710486  1.0000
  H   H14       1.0  0.7624232074235097  0.4644180170481106  0.6806137051212672  1.0000
  H   H15       1.0  0.2558026452088384  0.41862049342517343  0.57872973506025  1.0000
  H   H16       1.0  0.744198233827305  0.5813767445693614  0.4212704510826625  1.0000
  H   H17       1.0  0.338627074064938  0.1901371419029658  0.6854173680317501  1.0000
  H   H18       1.0  0.6613716782461337  0.8098600941074783  0.3145832344256973  1.0000
  H   H19       1.0  0.3273857240183702  0.9910486404924442  0.6299328044118723  1.0000
  H   H20       1.0  0.6726108464364273  0.008949604280580602  0.37006867667556514  1.0000
  H   H21       1.0  0.2397165479474239  0.02595926412069361  0.46702497896259837  1.0000
  H   H22       1.0  0.760281030875845  0.974039993992868  0.5329760172284563  1.0000
  H   H23       1.0  0.9962486493976004  0.25259237591371436  0.12210672833204216  1.0000
  H   H24       1.0  0.0037499379312748954  0.7474078971422102  0.8778930439080525  1.0000
  H   H25       1.0  0.03175212855670401  0.41635342514096874  0.10864613038887677  1.0000
  H   H26       1.0  0.9682476322599669  0.5836448258118523  0.8913532481176105  1.0000
  H   H27       1.0  0.8682696569248309  0.3886471089393666  0.08688395946575155  1.0000
  H   H28       1.0  0.13172893012978193  0.6113531609128986  0.9131172908834984  1.0000
  H   H29       1.0  0.6665918500337966  0.3571768011951591  0.22441909595428908  1.0000
  H   H30       1.0  0.3334077453893016  0.6428244819976358  0.7755816694985852  1.0000
  H   H31       1.0  0.5376749992073828  0.3101672090465185  0.41843820940596277  1.0000
  H   H32       1.0  0.4623246513469041  0.6898330633996181  0.581562093731449  1.0000
  H   H33       1.0  0.6759868658091364  0.24049896349661992  0.562629489265177  1.0000
  H   H34       1.0  0.32401379311362183  0.7595023222900537  0.4373703289758523  1.0000
  H   H35       1.0  0.9381826136698024  0.22000469340235904  0.5105977090564406  1.0000
  H   H36       1.0  0.061817990396022524  0.7799976063346321  0.4894010933908958  1.0000
  H   H37       1.0  0.5627320519299844  0.102691141238644  0.20216548803081472  1.0000
  H   H38       1.0  0.43726743364211274  0.8973121682529737  0.7978339848892517  1.0000
  H   H39       1.0  0.45946910396224183  0.16505864710435958  0.3060418148084452  1.0000
  H   H40       1.0  0.5405293735156391  0.8349436522503879  0.6939566648988417  1.0000
  H   H41       1.0  0.45132187807237767  0.2530247051675971  0.16960323842128833  1.0000
  H   H42       1.0  0.5486765994055034  0.7469775941871504  0.8303952412859913  1.0000
  H   H43       1.0  0.4817735580415032  0.9159463053995367  0.1919450168734684  1.0000
  H   H44       1.0  0.5182271012926449  0.08405498519263692  0.8080525842038282  1.0000
  H   H45       1.0  0.29393944410917067  0.767640579116325  0.21718774863037985  1.0000
  H   H46       1.0  0.7060624976038596  0.2323566518610818  0.782815924628167  1.0000
  H   H47       1.0  0.03744323635169171  0.8332646550315486  0.28665715965293964  1.0000
  H   H48       1.0  0.9625587054984736  0.1667325775476911  0.7133457745510298  1.0000
  H   H49       1.0  0.9773312972767131  0.047538015889052994  0.32475785802184715  1.0000
  H   H50       1.0  0.02266947190843641  0.9524612484042976  0.6752410355882573  1.0000
  C   C1        1.0  0.43568050296175903  0.4243984142638552  0.9096055661330167  1.0000
  C   C2        1.0  0.564313720928844  0.575603879520891  0.09039448525789602  1.0000
  C   C3        1.0  0.3681909618785681  0.2899697209351757  0.9292431880341352  1.0000
  C   C4        1.0  0.631809917294703  0.7100275186611923  0.07075625905419969  1.0000
  C   C5        1.0  0.2270149895203417  0.7635965649987781  0.014253628380657784  1.0000
  C   C6        1.0  0.7729858343846061  0.2364016837424145  0.9857470200777172  1.0000
  C   C7        1.0  0.17284493358805972  0.8957663753319949  0.9751667553624869  1.0000
  C   C8        1.0  0.8271578516483871  0.1042349076332627  0.024834863727754435  1.0000
  C   C9        1.0  0.031626252343819806  0.9306083600138136  0.01982095110308534  1.0000
  C   C10       1.0  0.9683776508378446  0.0693919067894839  0.9801829537327433  1.0000
  C   C11       1.0  0.9529596835452877  0.8268920800198034  0.10444027218358086  1.0000
  C   C12       1.0  0.04704304669709102  0.1731102152939386  0.8955610701675453  1.0000
  C   C13       1.0  0.014818197284739695  0.6971023178933393  0.13871085778855982  1.0000
  C   C14       1.0  0.9851825710776295  0.3028969367890113  0.8612924701490242  1.0000
  C   C15       1.0  0.19942240433649522  0.2420136222112675  0.4288251105925268  1.0000
  C   C16       1.0  0.8005751746239086  0.7579856375041275  0.5711751465439433  1.0000
  C   C17       1.0  0.20270018513792823  0.3546186763497091  0.4606971174318772  1.0000
  C   C18       1.0  0.7972984570478872  0.645380582755898  0.5393036706019173  1.0000
  C   C19       1.0  0.15853550760207472  0.4961517817124914  0.39724549763613476  1.0000
  C   C20       1.0  0.8414641978091382  0.5038474767833206  0.602755821294977  1.0000
  C   C21       1.0  0.2517587607983955  0.33209467583071023  0.5542945998754261  1.0000
  C   C22       1.0  0.7482399365186085  0.6679035725282318  0.44570572584289875  1.0000
  C   C23       1.0  0.29762707461943444  0.2031815942471837  0.6148167764537716  1.0000
  C   C24       1.0  0.7023715675663739  0.7968176648584233  0.38518401158002274  1.0000
  C   C25       1.0  0.2928382152428028  0.09262634391124891  0.5835495165238596  1.0000
  C   C26       1.0  0.7071594737057296  0.9073708911071566  0.41645129409084786  1.0000
  C   C27       1.0  0.24339958226671146  0.112512678900039  0.49124659293362766  1.0000
  C   C28       1.0  0.7565979965565646  0.8874865792135223  0.5087544032574269  1.0000
  C   C29       1.0  0.9529078474669177  0.27866604819557483  0.33779604518146295  1.0000
  C   C30       1.0  0.0470918032244896  0.7213342258523954  0.6622035189013642  1.0000
  C   C31       1.0  0.8754444399747288  0.3177886253848499  0.2555630783670607  1.0000
  C   C32       1.0  0.12455627394209763  0.6822116480533255  0.7444370166130837  1.0000
  C   C33       1.0  0.9458129009014372  0.34549921430762964  0.13714086618704616  1.0000
  C   C34       1.0  0.05418574142149881  0.6545000463998107  0.8628591827921637  1.0000
  C   C35       1.0  0.726241600964542  0.3277644248197476  0.2874494667767136  1.0000
  C   C36       1.0  0.27375597772159926  0.6722348316919807  0.7125522684689185  1.0000
  C   C37       1.0  0.6537200338514212  0.30106063145278483  0.3964606198912362  1.0000
  C   C38       1.0  0.3462828067904767  0.6989396439694816  0.6035390587743875  1.0000
  C   C39       1.0  0.7305296473602142  0.2627854584633695  0.47688720008674307  1.0000
  C   C40       1.0  0.2694678764689939  0.7372148119986833  0.5231135193651892  1.0000
  C   C41       1.0  0.878945250744934  0.2516305846133804  0.4473138196740506  1.0000
  C   C42       1.0  0.12105753490290279  0.7483707031573773  0.5526855822524509  1.0000
  C   C43       1.0  0.1950851663694877  0.10365812290620371  0.2807988780372311  1.0000
  C   C44       1.0  0.8049145391788669  0.8963411371914418  0.7192017018392957  1.0000
  C   C45       1.0  0.33998894007527986  0.06615013348469741  0.2440409300230257  1.0000
  C   C46       1.0  0.6600107103418794  0.9338501373596064  0.7559601121689636  1.0000
  C   C47       1.0  0.4593926016705439  0.15055131417155113  0.2296839806369988  1.0000
  C   C48       1.0  0.5406069391698693  0.849450986175235  0.7703142909130206  1.0000
  C   C49       1.0  0.37094855019051215  0.945141027799451  0.22153093987083142  1.0000
  C   C50       1.0  0.6290532270888463  0.05485924663076958  0.7784689469520528  1.0000
  C   C51       1.0  0.2644969265900841  0.8612828177678371  0.23535613259887345  1.0000
  C   C52       1.0  0.7355049604031478  0.13871542876172782  0.7646457858113961  1.0000
  C   C53       1.0  0.12236629962039558  0.8982000883801362  0.27315851393944246  1.0000
  C   C54       1.0  0.8776355325158961  0.10179917209976  0.7268423886771415  1.0000
  C   C55       1.0  0.0883637520735405  0.019088706654265805  0.2949939997455147  1.0000
  C   C56       1.0  0.9116380801998788  0.9809105554274641  0.7050061638164845  1.0000
  N   N1        1.0  0.14972200849793893  0.6649350976179421  0.0946552907337263  1.0000
  N   N2        1.0  0.8502797689185472  0.3350651784141121  0.9053438570345803  1.0000
  O   O1        1.0  0.3668145652802083  0.4996895682459694  0.9612296835289271  1.0000
  O   O2        1.0  0.6331842429848251  0.5003066666288236  0.038766022285571446  1.0000
  O   O3        1.0  0.5532935482096805  0.43995472988163464  0.8404597796472825  1.0000
  O   O4        1.0  0.4467059933163782  0.5600475784743253  0.1595347966298419  1.0000
  F   F1        1.0  0.23733135392773622  0.2726391296659543  0.9988390420198527  1.0000
  F   F2        1.0  0.7626705886080744  0.7273581109224596  0.0011601969112218604  1.0000
  F   F3        1.0  0.452419435279964  0.17880006786719346  0.9703374005126688  1.0000
  F   F4        1.0  0.5475824519875232  0.8211981818660377  0.029663039788445596  1.0000
  F   F5        1.0  0.35304949406435077  0.28561226455969546  0.8322000044266744  1.0000
  F   F6        1.0  0.646950321746381  0.7143849740446272  0.1677996508189281  1.0000
