data_image0
_chemical_formula_structural       Zn4H60C92N8O20
_chemical_formula_sum              "Zn4 H60 C92 N8 O20"
_cell_length_a       14.316708794119691
_cell_length_b       14.316699233056923
_cell_length_c       16.26342708668414
_cell_angle_alpha    101.86763978032039
_cell_angle_beta     101.86763902489227
_cell_angle_gamma    117.13505511015958

_space_group_name_H-M_alt    "P 1"
_space_group_IT_number       1

loop_
  _space_group_symop_operation_xyz
  'x, y, z'

loop_
  _atom_site_type_symbol
  _atom_site_label
  _atom_site_symmetry_multiplicity
  _atom_site_fract_x
  _atom_site_fract_y
  _atom_site_fract_z
  _atom_site_occupancy
  Zn  Zn1       1.0  0.4045463826055667  0.4352378690067554  0.6383323963301919  1.0000
  Zn  Zn2       1.0  0.5647613567531663  0.5954541699053094  0.8616678785313495  1.0000
  Zn  Zn3       1.0  0.5954536833595725  0.5647610718731642  0.3616673268320483  1.0000
  Zn  Zn4       1.0  0.43523787435657374  0.4045450510268793  0.13833235912926511  1.0000
  H   H1        1.0  0.6901108607979723  0.38134598111123796  0.6204917754395112  1.0000
  H   H2        1.0  0.7919340302585454  0.27839614734857315  0.6127987418056335  1.0000
  H   H3        1.0  0.5302297585691135  0.010037158176210379  0.6589208454950538  1.0000
  H   H4        1.0  0.4292201632708128  0.11275704634439876  0.6646301219879618  1.0000
  H   H5        1.0  0.7785667074298457  0.07388629398114674  0.7906322680406531  1.0000
  H   H6        1.0  0.6977897865240693  0.894988489332711  0.8255312078594629  1.0000
  H   H7        1.0  0.5083250259773493  0.7082276913784966  0.5462159391985182  1.0000
  H   H8        1.0  0.5886883966548736  0.8860919394372784  0.5118884633492726  1.0000
  H   H9        1.0  0.38418690856512683  0.5085786584069325  0.4817224732536687  1.0000
  H   H10       1.0  0.28657396320471656  0.421467134448953  0.3165742084996452  1.0000
  H   H11       1.0  0.10609775850704038  0.10500127692571228  0.3537448328403983  1.0000
  H   H12       1.0  0.2133554961807249  0.2051531207339394  0.5190898775733928  1.0000
  H   H13       1.0  0.1592594137452465  0.260344297474532  0.1868076398423142  1.0000
  H   H14       1.0  0.0775520418330586  0.9208746589695948  0.0973314393737326  1.0000
  H   H15       1.0  0.9900629891203039  0.1660171489881108  0.06843787536688963  1.0000
  H   H16       1.0  0.6186542818477675  0.30989063380967957  0.879508261269187  1.0000
  H   H17       1.0  0.721604335637771  0.20806811346142226  0.887201463383974  1.0000
  H   H18       1.0  0.9899623752953133  0.4697720250525136  0.8410785082402227  1.0000
  H   H19       1.0  0.8872434593521845  0.5707813762773882  0.8353693523147713  1.0000
  H   H20       1.0  0.9261135784150057  0.22143288675145106  0.7093686056370956  1.0000
  H   H21       1.0  0.1050109977177343  0.3022100433336377  0.6744683595207376  1.0000
  H   H22       1.0  0.2917721963775506  0.49167582884137323  0.9537832710965689  1.0000
  H   H23       1.0  0.1139086572538943  0.41131377922673107  0.9881117237536401  1.0000
  H   H24       1.0  0.4914210857457988  0.6158126396472241  0.018277495808590123  1.0000
  H   H25       1.0  0.5785326905932777  0.7134256348749446  0.18342578364392645  1.0000
  H   H26       1.0  0.894998127130144  0.8939015956853352  0.14625566134559886  1.0000
  H   H27       1.0  0.7948468392355394  0.7866445427857726  0.9809098244688315  1.0000
  H   H28       1.0  0.7396559680516076  0.8407413654968251  0.3131926475530733  1.0000
  H   H29       1.0  0.0791234046867189  0.9224469876786259  0.402668707242519  1.0000
  H   H30       1.0  0.8339825363428872  0.009936836700447267  0.43156280017502985  1.0000
  H   H31       1.0  0.3098917122838429  0.6186542622518304  0.3795074072242812  1.0000
  H   H32       1.0  0.20806687056199993  0.7216025134790769  0.3872004668582321  1.0000
  H   H33       1.0  0.46977198063343206  0.9899640795784138  0.3410795959626398  1.0000
  H   H34       1.0  0.570781577317092  0.887245619521963  0.33536996322593643  1.0000
  H   H35       1.0  0.22143252367989416  0.926112926951042  0.20936796961996856  1.0000
  H   H36       1.0  0.3022102802282376  0.10501116569754741  0.1744686446533592  1.0000
  H   H37       1.0  0.49167587581933253  0.2917716837884327  0.45378401376087407  1.0000
  H   H38       1.0  0.41131334097334366  0.1139078700166607  0.4881117194072716  1.0000
  H   H39       1.0  0.6158139938297467  0.49142143072139516  0.5182769941113534  1.0000
  H   H40       1.0  0.7134261041457818  0.5785332345427034  0.6834251584188066  1.0000
  H   H41       1.0  0.8939014733898603  0.8949986581568153  0.6462555341707912  1.0000
  H   H42       1.0  0.7866445719569413  0.7948479624080632  0.480909618695627  1.0000
  H   H43       1.0  0.8407406536052591  0.7396560715171246  0.8131917270761377  1.0000
  H   H44       1.0  0.9224471890877053  0.07912456177365355  0.9026681833419374  1.0000
  H   H45       1.0  0.0099362425876279  0.8339827859054694  0.9315618766993552  1.0000
  H   H46       1.0  0.38134494926197254  0.6901085871225092  0.12049197639142764  1.0000
  H   H47       1.0  0.278396567733239  0.7919326900061848  0.1127987482765676  1.0000
  H   H48       1.0  0.0100368571997862  0.5302286239914124  0.1589213731765966  1.0000
  H   H49       1.0  0.1127549371224035  0.4292188382905876  0.1646296843599586  1.0000
  H   H50       1.0  0.0738856526947345  0.7785663341807307  0.29063163202351927  1.0000
  H   H51       1.0  0.8949882332030369  0.6977891774096036  0.3255312631949323  1.0000
  H   H52       1.0  0.708227035330381  0.508324106052214  0.04621648096967589  1.0000
  H   H53       1.0  0.8860914094984124  0.5886858758035273  0.011888128759174785  1.0000
  H   H54       1.0  0.5085781461511019  0.38418729543530356  0.9817228712025993  1.0000
  H   H55       1.0  0.4214665397293018  0.2865728719068983  0.8165743246661136  1.0000
  H   H56       1.0  0.10500110457778787  0.10609833920825197  0.8537440907206459  1.0000
  H   H57       1.0  0.2051515566408568  0.2133549578208047  0.019089697800268396  1.0000
  H   H58       1.0  0.2603449347212035  0.15925872400938348  0.6868080497018383  1.0000
  H   H59       1.0  0.9208749915676152  0.07755251330582516  0.5973320449164703  1.0000
  H   H60       1.0  0.1660166955540134  0.9900630983820806  0.5684375668361668  1.0000
  C   C1        1.0  0.5527777463365949  0.25313754654523274  0.6427768267925843  1.0000
  C   C2        1.0  0.6553424940437793  0.2996678611961485  0.6282637808157361  1.0000
  C   C3        1.0  0.712139342379544  0.24288605542481895  0.6238283264030643  1.0000
  C   C4        1.0  0.6668969274749017  0.13854099174837123  0.6349565463287448  1.0000
  C   C5        1.0  0.5649451596531705  0.09093104326268524  0.6499895863136516  1.0000
  C   C6        1.0  0.5089382860963737  0.1485635093737442  0.6535124116254352  1.0000
  C   C7        1.0  0.4879291667055128  0.3098509593317543  0.6440325548627257  1.0000
  C   C8        1.0  0.6867599464883867  0.9875901121590472  0.6498230129606029  1.0000
  C   C9        1.0  0.7197212263760092  0.9928503113328019  0.7382948770600137  1.0000
  C   C10       1.0  0.6744753043119688  0.8940658876729657  0.7571343691281386  1.0000
  C   C11       1.0  0.5973631850698737  0.7913875524165306  0.6882725920375776  1.0000
  C   C12       1.0  0.5674954837941755  0.7882084887666495  0.5995766948536883  1.0000
  C   C13       1.0  0.6124909315309068  0.8865172321631576  0.5800210751128319  1.0000
  C   C14       1.0  0.5491357323794402  0.6859584864429421  0.7096709085064035  1.0000
  C   C15       1.0  0.3207868090330024  0.41988885586738434  0.45103273275987027  1.0000
  C   C16       1.0  0.2651611794917272  0.3709538739400243  0.3591562317625332  1.0000
  C   C17       1.0  0.18733647200372866  0.25561261253789525  0.3223506096922293  1.0000
  C   C18       1.0  0.1659802784586049  0.1946914623165128  0.3806846388435972  1.0000
  C   C19       1.0  0.2245940484718858  0.2497123537782358  0.4716708072335932  1.0000
  C   C20       1.0  0.137972428953681  0.20284130573109138  0.22492769264751192  1.0000
  C   C21       1.0  0.0404500990889289  0.05026218047505889  0.09382699138375733  1.0000
  C   C22       1.0  0.04341541814513761  0.9549496792614389  0.05411721911138292  1.0000
  C   C23       1.0  0.9951813452007842  0.09387239739544384  0.038277362232555845  1.0000
  C   C24       1.0  0.7468628700606459  0.4472232246054516  0.8572237573463397  1.0000
  C   C25       1.0  0.7003328104511866  0.34465987814614607  0.8717364911852671  1.0000
  C   C26       1.0  0.7571139892076103  0.2878626759890607  0.8761723892454397  1.0000
  C   C27       1.0  0.8614593006642792  0.33310460872423414  0.8650435152777548  1.0000
  C   C28       1.0  0.909068611385834  0.4350559535517035  0.8500108952704294  1.0000
  C   C29       1.0  0.8514365442904078  0.4910636317725191  0.8464870517493424  1.0000
  C   C30       1.0  0.6901495682168106  0.5120741174072023  0.8559678463167516  1.0000
  C   C31       1.0  0.012410090435864198  0.31324243063190227  0.8501771390614506  1.0000
  C   C32       1.0  0.007148648190664601  0.2802789501685794  0.7617046534369791  1.0000
  C   C33       1.0  0.1059334678216786  0.3255249563654843  0.7428652511684745  1.0000
  C   C34       1.0  0.20861178329238333  0.4026374940029029  0.8117264869034031  1.0000
  C   C35       1.0  0.21179181267042677  0.43250620680317553  0.9004227403594243  1.0000
  C   C36       1.0  0.1134819289993061  0.38751062606265657  0.9199781268073366  1.0000
  C   C37       1.0  0.3140404592739543  0.4508645698916141  0.790328649715768  1.0000
  C   C38       1.0  0.5801111844972979  0.6792128163449503  0.0489679201196509  1.0000
  C   C39       1.0  0.6290463297164095  0.7348387564234072  0.14084389160129973  1.0000
  C   C40       1.0  0.7443871492866947  0.812663517577704  0.17764944550011566  1.0000
  C   C41       1.0  0.8053071517139045  0.8340187839039359  0.11931442821891382  1.0000
  C   C42       1.0  0.750286450883408  0.7754046825879541  0.02832946432804567  1.0000
  C   C43       1.0  0.7971581824252  0.8620275716835764  0.2750723152183525  1.0000
  C   C44       1.0  0.9497380793338976  0.9595505481265577  0.4061738909728519  1.0000
  C   C45       1.0  0.04505013089492141  0.9565840930956141  0.44588332690769755  1.0000
  C   C46       1.0  0.9061276805091509  0.004819085450236517  0.46172349800303186  1.0000
  C   C47       1.0  0.4472239936531182  0.7468644053597228  0.35722374401569107  1.0000
  C   C48       1.0  0.34466008001417237  0.7003330965062061  0.37173614614358286  1.0000
  C   C49       1.0  0.2878623960358411  0.7571144681794594  0.3761719857040546  1.0000
  C   C50       1.0  0.3331039751089405  0.8614590975688967  0.365043535981222  1.0000
  C   C51       1.0  0.43505574371783956  0.9090697602049217  0.35001062534689  1.0000
  C   C52       1.0  0.491064289724875  0.8514388768182285  0.34648838897997797  1.0000
  C   C53       1.0  0.512074243971135  0.690151146807942  0.35596773124431286  1.0000
  C   C54       1.0  0.31324011947675245  0.012408828720872064  0.3501767102016373  1.0000
  C   C55       1.0  0.28027967718396946  0.007150492323752543  0.2617059495454797  1.0000
  C   C56       1.0  0.32552559827187366  0.10593420164430258  0.2428657131818284  1.0000
  C   C57       1.0  0.402637716726808  0.20861182275039883  0.3117273609218074  1.0000
  C   C58       1.0  0.4325054180024992  0.21179088640028  0.4004232581057039  1.0000
  C   C59       1.0  0.3875099694786073  0.11348142885343293  0.4199787484959785  1.0000
  C   C60       1.0  0.45086433456183533  0.3140411687762565  0.2903295589513561  1.0000
  C   C61       1.0  0.6792140935508398  0.5801112334498837  0.5489673495500966  1.0000
  C   C62       1.0  0.7348397236903067  0.629046929338642  0.6408433649530636  1.0000
  C   C63       1.0  0.8126635953467698  0.7443877564537612  0.6776487572262155  1.0000
  C   C64       1.0  0.8340189522731976  0.8053077582377952  0.619314368927121  1.0000
  C   C65       1.0  0.7754051826378474  0.7502868671539462  0.5283294304270214  1.0000
  C   C66       1.0  0.8620276385857865  0.7971590634495057  0.7750722892158847  1.0000
  C   C67       1.0  0.9595508050692415  0.9497393371428868  0.9061733496273661  1.0000
  C   C68       1.0  0.9565854860130332  0.04505183835650685  0.9458831218997332  1.0000
  C   C69       1.0  0.004819557572034201  0.9061276921107647  0.9617233350223557  1.0000
  C   C70       1.0  0.25313636104909426  0.5527759963267371  0.14277648031427503  1.0000
  C   C71       1.0  0.2996664214457141  0.6553400569363815  0.12826387582592247  1.0000
  C   C72       1.0  0.2428852428782591  0.7121372592824075  0.12382859271070157  1.0000
  C   C73       1.0  0.1385416028956996  0.6668961949323133  0.1349573113277387  1.0000
  C   C74       1.0  0.09093062070004272  0.5649439817197646  0.1499900866857118  1.0000
  C   C75       1.0  0.14856185256212479  0.5089365831733302  0.15351321481527688  1.0000
  C   C76       1.0  0.30984882784854756  0.4879253833883084  0.14403229089729314  1.0000
  C   C77       1.0  0.9875899771036104  0.6867579385487019  0.14982284280194597  1.0000
  C   C78       1.0  0.9928497468985639  0.719719836287659  0.23829473948153895  1.0000
  C   C79       1.0  0.89406492726755  0.674473830090747  0.2571341417500435  1.0000
  C   C80       1.0  0.7913874482265797  0.5973624407017439  0.1882726502178897  1.0000
  C   C81       1.0  0.7882082546800788  0.5674941621884813  0.09957662655902774  1.0000
  C   C82       1.0  0.8865173027086187  0.6124893088309236  0.0800216252589082  1.0000
  C   C83       1.0  0.6859579364134661  0.5491349305260229  0.20967025760838  1.0000
  C   C84       1.0  0.4198888816568172  0.32078612472390233  0.9510324179875412  1.0000
  C   C85       1.0  0.3709537356505379  0.2651594704951136  0.8591563171553105  1.0000
  C   C86       1.0  0.2556137519117954  0.18733514362782705  0.8223509930536467  1.0000
  C   C87       1.0  0.1946920792068596  0.1659804368393125  0.8806851944967562  1.0000
  C   C88       1.0  0.24971278003736336  0.2245945381552872  0.9716701583876173  1.0000
  C   C89       1.0  0.2028427193714819  0.13797180348334592  0.7249276377410395  1.0000
  C   C90       1.0  0.0502619893706751  0.040450535582266404  0.5938274501310161  1.0000
  C   C91       1.0  0.9549491021670847  0.04341655651513329  0.5541183993439703  1.0000
  C   C92       1.0  0.09387322226366021  0.9951810040559721  0.5382771992518869  1.0000
  N   N1        1.0  0.3017954019189588  0.3605920377948806  0.5066599443829318  1.0000
  N   N2        1.0  0.0817119971700961  0.09575301890565409  0.1872081453570047  1.0000
  N   N3        1.0  0.6394077951240718  0.6982039657085648  0.9933396095354042  1.0000
  N   N4        1.0  0.9042481102773507  0.9182893868842399  0.3127924124963428  1.0000
  N   N5        1.0  0.6982046654315397  0.6394083311967762  0.49333942253551305  1.0000
  N   N6        1.0  0.9182889069880745  0.904248498712299  0.8127921956541115  1.0000
  N   N7        1.0  0.3605914357966995  0.30179525503467625  0.006660013180265889  1.0000
  N   N8        1.0  0.0957527923064916  0.08171070243302837  0.687207669813624  1.0000
  O   O1        1.0  0.7280596565551465  0.08702584307195596  0.630745120788113  1.0000
  O   O2        1.0  0.5343283553823426  0.4111663519081147  0.642824695362016  1.0000
  O   O3        1.0  0.3890350491317561  0.25900479840413476  0.6442848590080246  1.0000
  O   O4        1.0  0.4759554866152413  0.5956297450393533  0.6452416392654783  1.0000
  O   O5        1.0  0.5862944240735927  0.6956530554972743  0.7911767608764109  1.0000
  O   O6        1.0  0.9129742470127268  0.2719426082899543  0.8692556570994512  1.0000
  O   O7        1.0  0.5888338310898789  0.4656733088963989  0.8571747325212016  1.0000
  O   O8        1.0  0.7409953583737945  0.6109678874215945  0.855717254201501  1.0000
  O   O9        1.0  0.4043699748838208  0.5240444350680846  0.8547586059895664  1.0000
  O   O10       1.0  0.304346298245882  0.41370489653234427  0.7088226950660896  1.0000
  O   O11       1.0  0.2719404095989688  0.912973097996904  0.3692552173190792  1.0000
  O   O12       1.0  0.4656742179197336  0.5888346050384713  0.3571727718175027  1.0000
  O   O13       1.0  0.6109691997066377  0.7409991710790252  0.3557183753771156  1.0000
  O   O14       1.0  0.5240437446834676  0.4043694760817757  0.3547592133400812  1.0000
  O   O15       1.0  0.4137048070361473  0.3043461654349144  0.20882347678420393  1.0000
  O   O16       1.0  0.08702582150287701  0.7280584752299218  0.13074506905946487  1.0000
  O   O17       1.0  0.41116456418832564  0.5343254777487727  0.14282527534226114  1.0000
  O   O18       1.0  0.25900303709337186  0.38903089941252483  0.1442833686069136  1.0000
  O   O19       1.0  0.5956292560369505  0.47595478567516375  0.14524101672610365  1.0000
  O   O20       1.0  0.6956529338712727  0.586295752133701  0.29117595646084043  1.0000
