data_image0
_chemical_formula_structural       Al2H6C12O12F2
_chemical_formula_sum              "Al2 H6 C12 O12 F2"
_cell_length_a       6.686871799630656
_cell_length_b       8.800914690603339
_cell_length_c       11.199184546504643
_cell_angle_alpha    98.12054159649465
_cell_angle_beta     72.12039558136506
_cell_angle_gamma    75.58899525252984

_space_group_name_H-M_alt    "P 1"
_space_group_IT_number       1

loop_
  _space_group_symop_operation_xyz
  'x, y, z'

loop_
  _atom_site_type_symbol
  _atom_site_label
  _atom_site_symmetry_multiplicity
  _atom_site_fract_x
  _atom_site_fract_y
  _atom_site_fract_z
  _atom_site_occupancy
  Al  Al1       1.0  0.999990865836018  0.5000056540871541  0.5000053951308914  1.0000
  Al  Al2       1.0  0.5000094592983185  0.49999581687973926  0.500003942825991  1.0000
  H   H1        1.0  0.8692835516433206  0.3819620127682127  0.3427082061703929  1.0000
  H   H2        1.0  0.13073214621237358  0.6180339395910865  0.6572968137657895  1.0000
  H   H3        1.0  0.891923132483434  0.45158778557112805  0.8657629331795108  1.0000
  H   H4        1.0  0.10807081127849459  0.5484116197372871  0.13424172231001566  1.0000
  H   H5        1.0  0.27945157093468226  0.8686495151355729  0.5187403837057759  1.0000
  H   H6        1.0  0.7205708750686382  0.13134119811101644  0.4812443688289819  1.0000
  C   C1        1.0  0.3452588658240358  0.2119735925752479  0.4897858042882318  1.0000
  C   C2        1.0  0.3723321150409832  0.4916943980015134  0.2717627717845019  1.0000
  C   C3        1.0  0.6547787923801138  0.7880225319763099  0.5102034860906173  1.0000
  C   C4        1.0  0.627661710652049  0.5082930289646584  0.7282325596971404  1.0000
  C   C5        1.0  0.4422331653527463  0.494094497003239  0.13206602146728844  1.0000
  C   C6        1.0  0.557749680526335  0.5059133373245218  0.8679481269272459  1.0000
  C   C7        1.0  0.6621666104719564  0.4673752246849788  0.05273492471570054  1.0000
  C   C8        1.0  0.3378047087096192  0.5326257592954063  0.9472811457848563  1.0000
  C   C9        1.0  0.7196606895121885  0.4732547571769601  0.9241036713904549  1.0000
  C   C10       1.0  0.2803308381794736  0.5267344919408217  0.07591279716000088  1.0000
  C   C11       1.0  0.3970565762960375  0.042513550695559815  0.5006624683427177  1.0000
  C   C12       1.0  0.6029689405042261  0.9574773770227126  0.49931543624398245  1.0000
  O   O1        1.0  0.15393007506429512  0.2814086590158027  0.49131028772833224  1.0000
  O   O2        1.0  0.5097819260678943  0.4989198371945065  0.32774501069827994  1.0000
  O   O3        1.0  0.4988914585671651  0.7220715733277885  0.5215089763559959  1.0000
  O   O4        1.0  0.8214477889187887  0.5162400939702679  0.6755974937276862  1.0000
  O   O5        1.0  0.84607580927198  0.718600605901699  0.5086969513666517  1.0000
  O   O6        1.0  0.4901814515010089  0.5010772931174473  0.6722607348426948  1.0000
  O   O7        1.0  0.501127656778962  0.27791549471835003  0.47848346585855245  1.0000
  O   O8        1.0  0.17854881855586055  0.4837605634442427  0.3244076056310803  1.0000
  O   O9        1.0  0.8072292905493156  0.42417401755769657  0.43560733415168335  1.0000
  O   O10       1.0  0.19277386425088844  0.5758218548530107  0.5643973074637216  1.0000
  O   O11       1.0  0.22660642487624466  0.9824612772775508  0.5125416944251171  1.0000
  O   O12       1.0  0.7734085605746087  0.017540699608872518  0.4874474743465811  1.0000
  F   F1        1.0  0.8294148667212227  0.4307525992671585  0.09918373215536037  1.0000
  F   F2        1.0  0.17059082285759072  0.5692243884068304  0.9008045980132451  1.0000
