data_image0
_chemical_formula_structural       Na2H34C42O12
_chemical_formula_sum              "Na2 H34 C42 O12"
_cell_length_a       6.806837698489411
_cell_length_b       11.903494957885698
_cell_length_c       13.228962277135812
_cell_angle_alpha    109.6843042688135
_cell_angle_beta     99.80379851870786
_cell_angle_gamma    104.93519332439627

_space_group_name_H-M_alt    "P 1"
_space_group_IT_number       1

loop_
  _space_group_symop_operation_xyz
  'x, y, z'

loop_
  _atom_site_type_symbol
  _atom_site_label
  _atom_site_symmetry_multiplicity
  _atom_site_fract_x
  _atom_site_fract_y
  _atom_site_fract_z
  _atom_site_occupancy
  Na  Na1       1.0  7.46431285140039e-06  5.3417184417975666e-06  0.9999995867667408  1.0000
  Na  Na2       1.0  0.5000054430438682  0.9999965095225888  0.9999970426773218  1.0000
  H   H1        1.0  0.1655453844058812  0.0762476141119279  0.24923272474236313  1.0000
  H   H2        1.0  0.8344385866307816  0.9237407495476615  0.7507645461087121  1.0000
  H   H3        1.0  0.6112308911141183  0.25142706187019565  0.19881744149234493  1.0000
  H   H4        1.0  0.3887876319794542  0.7485803922614165  0.8011850268429512  1.0000
  H   H5        1.0  0.6486905592450612  0.2128544764233951  0.3716497708620921  1.0000
  H   H6        1.0  0.3513044067988673  0.7871320795522366  0.6283418984400484  1.0000
  H   H7        1.0  0.29633397617622137  0.31478874529586415  0.3585107868890915  1.0000
  H   H8        1.0  0.7036637460680807  0.685194922363685  0.6414885648795732  1.0000
  H   H9        1.0  0.14814553547918047  0.4840384498767988  0.6664600294082136  1.0000
  H   H10       1.0  0.8518388670783139  0.5159584989568771  0.33353083485526  1.0000
  H   H11       1.0  0.412336909597542  0.46367974214041396  0.5596614419885881  1.0000
  H   H12       1.0  0.5876496390789114  0.5363105352801083  0.4403351364123652  1.0000
  H   H13       1.0  0.5261113733049286  0.5359022547752019  0.2557685288830598  1.0000
  H   H14       1.0  0.4739038121637903  0.46411271568631907  0.7442419824773694  1.0000
  H   H15       1.0  0.5016184879103278  0.009315222166236497  0.42594946434542896  1.0000
  H   H16       1.0  0.49836666016485526  0.9906778894786045  0.5740478535908622  1.0000
  H   H17       1.0  0.7667216621046792  0.35664395451681224  0.5732705272321823  1.0000
  H   H18       1.0  0.2332618301013482  0.6433434823309125  0.4267233928984099  1.0000
  H   H19       1.0  0.9622453866899435  0.23828932418678755  0.016469120440021395  1.0000
  H   H20       1.0  0.037775557613649424  0.7617171765415873  0.9835355441121153  1.0000
  H   H21       1.0  0.5376777094403734  0.8252364088972113  0.09247118717831872  1.0000
  H   H22       1.0  0.46232756528486624  0.17476340046362535  0.9075307634334139  1.0000
  H   H23       1.0  0.7710665437370918  0.3921878021122111  0.03865769916155408  1.0000
  H   H24       1.0  0.2289397462410819  0.6078110861792397  0.9613410382161975  1.0000
  H   H25       1.0  0.8142059441064617  0.7510341918311312  0.164489673080098  1.0000
  H   H26       1.0  0.18579740082888208  0.24896750318427502  0.8355126788975156  1.0000
  H   H27       1.0  0.9569831735244279  0.6183696081599377  0.16831370137187915  1.0000
  H   H28       1.0  0.04301608709805294  0.38163016191259663  0.8316899587071163  1.0000
  H   H29       1.0  0.33744361425029  0.6910995791439161  0.2740679422774264  1.0000
  H   H30       1.0  0.6625589779336848  0.3089087495113318  0.7259348581512911  1.0000
  H   H31       1.0  0.7711640358944575  0.9266512187997684  0.499995279297188  1.0000
  H   H32       1.0  0.22882020299957156  0.07334565932073639  0.5000053757571621  1.0000
  H   H33       1.0  0.9304380408488838  0.7992118248670719  0.36963331649908326  1.0000
  H   H34       1.0  0.06954646473220547  0.2007802892527478  0.6303704415075871  1.0000
  C   C1        1.0  0.5008901655324821  0.9215495438291726  0.2549361267421731  1.0000
  C   C2        1.0  0.49911272575123183  0.07845123525333259  0.7450613682394405  1.0000
  C   C3        1.0  0.9651196082555202  0.2540509650592141  0.3525319506208007  1.0000
  C   C4        1.0  0.0348766157197175  0.7459431734289977  0.6474613959261575  1.0000
  C   C5        1.0  0.8162961129346795  0.26679137116320817  0.4132067167735656  1.0000
  C   C6        1.0  0.1837004837994057  0.7332008487305897  0.5867898566097978  1.0000
  C   C7        1.0  0.8922101046253275  0.16821821968426318  0.23124723176247391  1.0000
  C   C8        1.0  0.10778216628783341  0.831776850146305  0.7687460404944134  1.0000
  C   C9        1.0  0.2559965810619643  0.376745998851291  0.1362650800368428  1.0000
  C   C10       1.0  0.7440229805856616  0.6232661434313583  0.8637457198990219  1.0000
  C   C11       1.0  0.1810424960296899  0.3236865911881494  0.4061599776447338  1.0000
  C   C12       1.0  0.8189536272295683  0.6763075037842723  0.5938393940042914  1.0000
  C   C13       1.0  0.33989945448414  0.9697015424329788  0.20997277244311624  1.0000
  C   C14       1.0  0.6600969060976921  0.03029825423093509  0.7900253406985487  1.0000
  C   C15       1.0  0.36736739923130546  0.2826954368869891  0.12626618327603006  1.0000
  C   C16       1.0  0.6326516961751877  0.7173157840232774  0.8737405128015967  1.0000
  C   C17       1.0  0.09692050646750512  0.4181487068296902  0.5789380993843523  1.0000
  C   C18       1.0  0.9030661986387328  0.5818444377550023  0.4210555903496457  1.0000
  C   C19       1.0  0.24562972086019383  0.4065664105689064  0.5186086407934738  1.0000
  C   C20       1.0  0.7543622120144206  0.5934229140543579  0.4813919150728553  1.0000
  C   C21       1.0  0.36072977881621426  0.5047047279456862  0.20865966776845107  1.0000
  C   C22       1.0  0.6392783719410035  0.4953083224064299  0.7913496173070699  1.0000
  C   C23       1.0  0.5688730867170833  0.9505214470506329  0.36987349845548323  1.0000
  C   C24       1.0  0.4311197187405114  0.049477373240165386  0.630126260957006  1.0000
  C   C25       1.0  0.882627405581964  0.34731078112022823  0.5262621535695473  1.0000
  C   C26       1.0  0.11735874515665752  0.6526814040157588  0.47373270427052455  1.0000
  C   C27       1.0  0.043791626375735866  0.3369731898470575  0.0739872996874382  1.0000
  C   C28       1.0  0.9562244251498269  0.6630351959298934  0.9260159849820584  1.0000
  C   C29       1.0  0.5889534896935016  0.8480572800162985  0.18166241799459462  1.0000
  C   C30       1.0  0.41104989301033606  0.15194443131753835  0.8183376745697402  1.0000
  C   C31       1.0  0.9362510755041811  0.4235739704566155  0.08672255444768946  1.0000
  C   C32       1.0  0.06375783523809275  0.576429649804666  0.9132793800528135  1.0000
  C   C33       1.0  0.7446977188775107  0.8057178116499697  0.22286344520137644  1.0000
  C   C34       1.0  0.25530468634188  0.19428483707167732  0.7771376011836608  1.0000
  C   C35       1.0  0.041095241290250245  0.5506887638994441  0.15927026560889596  1.0000
  C   C36       1.0  0.9589136999868303  0.44931766913126836  0.8407363116022495  1.0000
  C   C37       1.0  0.2540052005008561  0.5915353079681082  0.2192167962198113  1.0000
  C   C38       1.0  0.7459999315544221  0.40847491812964887  0.7807875711720628  1.0000
  C   C39       1.0  0.7209435451477688  0.905457233501764  0.4108010162753786  1.0000
  C   C40       1.0  0.2790478722980438  0.09454442645283477  0.5891987295346865  1.0000
  C   C41       1.0  0.8102523618871016  0.8334744790233796  0.3372108392955795  1.0000
  C   C42       1.0  0.18974396092624352  0.16652530132211749  0.662789533259364  1.0000
  O   O1        1.0  0.011300048943248018  0.11130408263328923  0.18781828129849742  1.0000
  O   O2        1.0  0.9886861269743645  0.88868811338164  0.8121750702660507  1.0000
  O   O3        1.0  0.2738385062533338  0.9432027503785816  0.10791178148805608  1.0000
  O   O4        1.0  0.7261720927707742  0.05680375910776548  0.892085142418722  1.0000
  O   O5        1.0  0.2749769682577821  0.043027603622654495  0.2869426164965674  1.0000
  O   O6        1.0  0.7250051233469746  0.9569626674494028  0.7130520431693628  1.0000
  O   O7        1.0  0.30494877005934745  0.1774745221511864  0.0460459752285374  1.0000
  O   O8        1.0  0.6950648404330123  0.822537608040534  0.9539627684857948  1.0000
  O   O9        1.0  0.5387173559773544  0.32115949528991183  0.2106824253580584  1.0000
  O   O10       1.0  0.4613114776754016  0.6788556138854245  0.7893172731767636  1.0000
  O   O11       1.0  0.710502833711473  0.15349978202225859  0.1728051106903123  1.0000
  O   O12       1.0  0.28949163484895724  0.8465019166146559  0.8271911444039617  1.0000
