data_image0
_chemical_formula_structural       Hg4H18C14N2Cl8O2
_chemical_formula_sum              "Hg4 H18 C14 N2 Cl8 O2"
_cell_length_a       7.466399983283361
_cell_length_b       9.569290667307229
_cell_length_c       9.6514505462698
_cell_angle_alpha    76.93572563316235
_cell_angle_beta     78.80743764222751
_cell_angle_gamma    87.29890420667874

_space_group_name_H-M_alt    "P 1"
_space_group_IT_number       1

loop_
  _space_group_symop_operation_xyz
  'x, y, z'

loop_
  _atom_site_type_symbol
  _atom_site_label
  _atom_site_symmetry_multiplicity
  _atom_site_fract_x
  _atom_site_fract_y
  _atom_site_fract_z
  _atom_site_occupancy
  Hg  Hg1       1.0  0.7549473113362595  0.9006427596768631  0.5782847861435484  1.0000
  Hg  Hg2       1.0  0.2450398286330611  0.099364197394479  0.42171394626745945  1.0000
  Hg  Hg3       1.0  0.27177888563094393  0.9814204841836871  0.9456749867704484  1.0000
  Hg  Hg4       1.0  0.7282163975517548  0.018575691531118797  0.05432399422932118  1.0000
  H   H1        1.0  0.9891986553511812  0.7512751826089854  0.8262928953074321  1.0000
  H   H2        1.0  0.0108089541781453  0.24872951589001968  0.17370329951673102  1.0000
  H   H3        1.0  0.7864491811231815  0.7856671371202852  0.3068839336596837  1.0000
  H   H4        1.0  0.21352427756583842  0.21433233285151942  0.6931123664254526  1.0000
  H   H5        1.0  0.8013300889361263  0.5516872533860351  0.2321730589597449  1.0000
  H   H6        1.0  0.19866793823167228  0.44831325161073476  0.7678307234685561  1.0000
  H   H7        1.0  0.7504656789748836  0.32383668619165473  0.42713367369661615  1.0000
  H   H8        1.0  0.2495514453272492  0.6761605128869237  0.5728700918709959  1.0000
  H   H9        1.0  0.6728461752559056  0.34392864069381096  0.6855639270797409  1.0000
  H   H10       1.0  0.3271750665368884  0.6560739260972853  0.3144410849485693  1.0000
  H   H11       1.0  0.5643179392453915  0.4971526120356984  0.854179265045765  1.0000
  H   H12       1.0  0.4356896471788049  0.5028478223342248  0.14582103157523105  1.0000
  H   H13       1.0  0.5691352657381757  0.6873008334644767  0.7972779074725835  1.0000
  H   H14       1.0  0.43087095603327447  0.31270071682762796  0.2027264788220079  1.0000
  H   H15       1.0  0.783366830415801  0.6054088139879213  0.9615957874416519  1.0000
  H   H16       1.0  0.21664486291955848  0.39459373427720107  0.03840236797721269  1.0000
  H   H17       1.0  0.8926673851857173  0.48617486744132066  0.85259866255992  1.0000
  H   H18       1.0  0.10733883809875522  0.5138255566403701  0.14739976805257976  1.0000
  C   C1        1.0  0.7613509118330057  0.6847919524679754  0.38635749787154333  1.0000
  C   C2        1.0  0.23862386983171996  0.31520006333736456  0.6136475878061416  1.0000
  C   C3        1.0  0.7703086726916767  0.5539350517446238  0.34653164484554805  1.0000
  C   C4        1.0  0.22968117909113056  0.44606759045186817  0.6534666474458957  1.0000
  C   C5        1.0  0.7405509454491649  0.428572868363851  0.45466183948711597  1.0000
  C   C6        1.0  0.2594525148451936  0.5714222696158089  0.5453454846065708  1.0000
  C   C7        1.0  0.6986765324169539  0.43963448772750996  0.5986948182901839  1.0000
  C   C8        1.0  0.3013269885536333  0.560373513961622  0.4013084743463863  1.0000
  C   C9        1.0  0.6887068314816817  0.5739485825166213  0.6339445387580936  1.0000
  C   C10       1.0  0.31129256854490006  0.426051852530847  0.3660518015036373  1.0000
  C   C11       1.0  0.6481014218421493  0.5886416199728334  0.7881351021481391  1.0000
  C   C12       1.0  0.35190207041016913  0.411359936488637  0.21186865485448428  1.0000
  C   C13       1.0  0.8217965050470467  0.5900840711942694  0.8500372216936536  1.0000
  C   C14       1.0  0.1782138162957665  0.40991631242987847  0.14995853301095247  1.0000
  N   N1        1.0  0.7220668535690038  0.6938063102287941  0.5264745798535413  1.0000
  N   N2        1.0  0.27791891376099903  0.3061973738217176  0.47351786464445655  1.0000
  Cl  Cl1       1.0  0.8647066290893334  0.0877609068307663  0.6604147155751574  1.0000
  Cl  Cl2       1.0  0.1352913941919951  0.9122385165319855  0.33958828237941663  1.0000
  Cl  Cl3       1.0  0.3612298857267433  0.9298733505225416  0.6797796054237678  1.0000
  Cl  Cl4       1.0  0.6387667837008095  0.0701270996095786  0.32021713978765826  1.0000
  Cl  Cl5       1.0  0.44941827754459507  0.1916019985058171  0.934563156210963  1.0000
  Cl  Cl6       1.0  0.5505770056381039  0.8083941772089887  0.06543582478879982  1.0000
  Cl  Cl7       1.0  0.039305168230093605  0.7971332321531291  0.03246905698646431  1.0000
  Cl  Cl8       1.0  0.960688771245202  0.20286834144350507  0.9675319803734082  1.0000
  O   O1        1.0  0.9390420816513297  0.703645420191009  0.7618703024454374  1.0000
  O   O2        1.0  0.06096959894473739  0.2963538920873603  0.23812653379394522  1.0000
