data_image0
_chemical_formula_structural       Cu2H12C12N8
_chemical_formula_sum              "Cu2 H12 C12 N8"
_cell_length_a       7.7589710166497206
_cell_length_b       7.878732594773391
_cell_length_c       7.852874874453208
_cell_angle_alpha    120.10854613445498
_cell_angle_beta     119.60551573346885
_cell_angle_gamma    90.00001068668344

_space_group_name_H-M_alt    "P 1"
_space_group_IT_number       1

loop_
  _space_group_symop_operation_xyz
  'x, y, z'

loop_
  _atom_site_type_symbol
  _atom_site_label
  _atom_site_symmetry_multiplicity
  _atom_site_fract_x
  _atom_site_fract_y
  _atom_site_fract_z
  _atom_site_occupancy
  Cu  Cu1       1.0  0.7500006997024685  0.499998864639842  1.1932358319647776e-06  1.0000
  Cu  Cu2       1.0  0.24999988564884756  0.5000023028490544  6.432663822678317e-07  1.0000
  H   H1        1.0  0.5832389745820805  0.03573803767293528  0.7241161560975015  1.0000
  H   H2        1.0  0.8591226609482306  0.9642619177254511  0.27588230516444373  1.0000
  H   H3        1.0  0.9167634368193375  0.31161631697293746  0.27587962447989856  1.0000
  H   H4        1.0  0.6408797528279848  0.6883789029335005  0.7241168386211213  1.0000
  H   H5        1.0  0.41675335889842546  0.9642528990341286  0.27587628471246706  1.0000
  H   H6        1.0  0.14087338726252344  0.035749226192486085  0.7241245942734976  1.0000
  H   H7        1.0  0.08324573429256778  0.6883762289072802  0.7241243875484853  1.0000
  H   H8        1.0  0.35912460311953953  0.3116259781564706  0.2758769792033604  1.0000
  H   H9        1.0  0.7654490286361765  0.7684238232081667  0.5308967387412621  1.0000
  H   H10       1.0  0.23455676807290626  0.23157645046979514  0.4691043940063153  1.0000
  H   H11       1.0  0.7345541006464629  0.23752576745523862  0.4691109416974227  1.0000
  H   H12       1.0  0.2654393217628481  0.762472948615965  0.5308884652024233  1.0000
  C   C1        1.0  0.7302959323183914  0.06992597606627976  0.744838246042569  1.0000
  C   C2        1.0  0.9854574633066875  0.9300722454679896  0.25516074428553265  1.0000
  C   C3        1.0  0.7697051677717396  0.32508584442894756  0.2551686843732737  1.0000
  C   C4        1.0  0.5145403460279923  0.6749111543672652  0.7448358449454772  1.0000
  C   C5        1.0  0.26971894041999883  0.9300883013188679  0.2551755892112552  1.0000
  C   C6        1.0  0.014538737456383894  0.06991245046761917  0.7448228252398579  1.0000
  C   C7        1.0  0.230279858289819  0.6749143760095887  0.7448222814554838  1.0000
  C   C8        1.0  0.4854634887420347  0.32508767533252575  0.2551852566950856  1.0000
  C   C9        1.0  0.8255057337037857  0.9367480924545287  0.6509978020100886  1.0000
  C   C10       1.0  0.17450547132002475  0.06325060232055787  0.3489975414828947  1.0000
  C   C11       1.0  0.6744949391408073  0.28574643008465017  0.3489894573941328  1.0000
  C   C12       1.0  0.325499563878246  0.7142600385787216  0.6510118044321017  1.0000
  N   N1        1.0  0.8537733323791841  0.2697058049275327  0.8816749445183162  1.0000
  N   N2        1.0  0.9720998276339544  0.7302923231246579  0.1183206602795506  1.0000
  N   N3        1.0  0.6462217251001335  0.3880264035836021  0.11831831064664297  1.0000
  N   N4        1.0  0.5278980815217622  0.6119706467114624  0.8816815882049197  1.0000
  N   N5        1.0  0.1462037764749482  0.7302928893916628  0.11832030746078456  1.0000
  N   N6        1.0  0.02787876899738957  0.2697063883833336  0.881677873489771  1.0000
  N   N7        1.0  0.35379393285648325  0.6119723092929232  0.8816804892626705  1.0000
  N   N8        1.0  0.4721185526144396  0.38802653609065607  0.11832074394216341  1.0000
