data_image0
_chemical_formula_structural       Ni3H48C72N30
_chemical_formula_sum              "Ni3 H48 C72 N30"
_cell_length_a       9.527765188854808
_cell_length_b       16.27632164216293
_cell_length_c       16.277760656968923
_cell_angle_alpha    116.31341339343342
_cell_angle_beta     101.24018237495507
_cell_angle_gamma    101.22805215619364

_space_group_name_H-M_alt    "P 1"
_space_group_IT_number       1

loop_
  _space_group_symop_operation_xyz
  'x, y, z'

loop_
  _atom_site_type_symbol
  _atom_site_label
  _atom_site_symmetry_multiplicity
  _atom_site_fract_x
  _atom_site_fract_y
  _atom_site_fract_z
  _atom_site_occupancy
  Ni  Ni1       1.0  0.49999890437309347  8.272894549998878e-08  0.5000000157279274  1.0000
  Ni  Ni2       1.0  2.1509842441250986e-06  0.5000021128731619  0.5000009452493828  1.0000
  Ni  Ni3       1.0  0.4999989040315215  0.5000000253941225  0.9999985243788458  1.0000
  H   H1        1.0  0.5071194986918357  0.13941876417762705  0.4095625504409668  1.0000
  H   H2        1.0  0.663965314759743  0.18651793030751665  0.3197158245786725  1.0000
  H   H3        1.0  0.8617575057538716  0.10733144977390202  0.27818752105483924  1.0000
  H   H4        1.0  0.8951013517219195  0.9846262112530086  0.32895520890519964  1.0000
  H   H5        1.0  0.8593228233671795  0.6460636408084002  0.6110052972469475  1.0000
  H   H6        1.0  0.7529806774433752  0.7694388231490736  0.5961815647309053  1.0000
  H   H7        1.0  0.9639605681715224  0.7444615712043688  0.3784962829806846  1.0000
  H   H8        1.0  0.051994390616236785  0.6164443400003492  0.39628844292531074  1.0000
  H   H9        1.0  0.0975021404140933  0.5905308732836547  0.7298928731689005  1.0000
  H   H10       1.0  0.3441172462256007  0.6803669787620311  0.8668620276674021  1.0000
  H   H11       1.0  0.5833556704836128  0.7218100234887291  0.8291582346768039  1.0000
  H   H12       1.0  0.5658728325338557  0.6709850584599408  0.6556687460941787  1.0000
  H   H13       1.0  0.2479019219657772  0.3887881696976265  0.03486435609733719  1.0000
  H   H14       1.0  0.1565651890459138  0.4035790311588416  0.17312235702855366  1.0000
  H   H15       1.0  0.5848909692894184  0.6214164843665986  0.3658437903965536  1.0000
  H   H16       1.0  0.6549679693639588  0.6036227785257468  0.22000362064078158  1.0000
  H   H17       1.0  0.3681524995227575  0.2700755114594032  0.8606150236760898  1.0000
  H   H18       1.0  0.4780002980433835  0.13308982343838244  0.813571951058492  1.0000
  H   H19       1.0  0.7548818546930747  0.17081569243154604  0.8927619437271589  1.0000
  H   H20       1.0  0.9107118819063658  0.3443155847479886  0.015391857318249422  1.0000
  H   H21       1.0  0.2132176982721533  0.9651266191890289  0.3538570233061122  1.0000
  H   H22       1.0  0.9836071718992442  0.82700292089811  0.2304282095733896  1.0000
  H   H23       1.0  0.21889709537396138  0.6340222008529752  0.255543749671567  1.0000
  H   H24       1.0  0.4349494450974591  0.7797762943856201  0.3835146843169356  1.0000
  H   H25       1.0  0.4928804391222317  0.860579726452443  0.5904380081762782  1.0000
  H   H26       1.0  0.33603355306239285  0.8134805605164105  0.6802846111839642  1.0000
  H   H27       1.0  0.13823958493065194  0.8926677647014929  0.7218124165394927  1.0000
  H   H28       1.0  0.10489895037933653  0.015373002518721503  0.6710444830287372  1.0000
  H   H29       1.0  0.14067497878591692  0.3539348498430571  0.38899317298841407  1.0000
  H   H30       1.0  0.2470156933125267  0.23055894431035284  0.40381642088470937  1.0000
  H   H31       1.0  0.0360404567402739  0.2555390893391163  0.6215041324835227  1.0000
  H   H32       1.0  0.948006997141789  0.38355704380690264  0.603711720079815  1.0000
  H   H33       1.0  0.9025010401464043  0.409471957101495  0.2701081362211043  1.0000
  H   H34       1.0  0.6558866600273561  0.31963729815065994  0.133138476804433  1.0000
  H   H35       1.0  0.41664715155353343  0.27819208326633327  0.1708411844996149  1.0000
  H   H36       1.0  0.4341285438822027  0.3290141547516115  0.34432922602169214  1.0000
  H   H37       1.0  0.7521005343432137  0.611213214037875  0.9651365439866241  1.0000
  H   H38       1.0  0.8434358344249234  0.5964216295067502  0.8268786726598807  1.0000
  H   H39       1.0  0.41511112417334334  0.37858417610513595  0.634157362146489  1.0000
  H   H40       1.0  0.3450327083664604  0.3963793289833434  0.7799973954990947  1.0000
  H   H41       1.0  0.6318449540080026  0.7299244262797591  0.13938466145915385  1.0000
  H   H42       1.0  0.5219978669559422  0.8669093904768416  0.18642626671777401  1.0000
  H   H43       1.0  0.24511774458537156  0.829184244431481  0.10723553022041438  1.0000
  H   H44       1.0  0.08928557738823167  0.6556843525027461  0.9846053709201001  1.0000
  H   H45       1.0  0.7867815251914152  0.03487259550919931  0.6461462311185571  1.0000
  H   H46       1.0  0.016390271544793215  0.17299701769581333  0.7695757751314218  1.0000
  H   H47       1.0  0.7811039153139419  0.3659762893390237  0.7444557033518393  1.0000
  H   H48       1.0  0.5650508555628305  0.22022291950821685  0.6164856218412211  1.0000
  C   C1        1.0  0.5937944744630314  0.10687492510748345  0.3889302753798489  1.0000
  C   C2        1.0  0.680997182779805  0.13227432215882834  0.3390065692689035  1.0000
  C   C3        1.0  0.790456343136448  0.08793557428712262  0.3159180404811934  1.0000
  C   C4        1.0  0.8097034574590722  0.020056539501837303  0.343323235338609  1.0000
  C   C5        1.0  0.7184517206295311  0.9984809005155955  0.3935257386510005  1.0000
  C   C6        1.0  0.73131468573888  0.9321514514993369  0.4294048513359954  1.0000
  C   C7        1.0  0.7864385760602275  0.8360294083678214  0.47294299693587055  1.0000
  C   C8        1.0  0.8792113190331677  0.6694213887674894  0.5599088689441772  1.0000
  C   C9        1.0  0.8219119793090853  0.7385860111611535  0.5523759271139284  1.0000
  C   C10       1.0  0.8501656041296216  0.7668514760146866  0.4856287235920861  1.0000
  C   C11       1.0  0.938176795700265  0.7239083090496624  0.43037743496244485  1.0000
  C   C12       1.0  0.988165793945967  0.6534660979499879  0.44090287554163154  1.0000
  C   C13       1.0  0.20475049448675978  0.6111412758666078  0.717978804936486  1.0000
  C   C14       1.0  0.34186210158043906  0.6610550353369148  0.7933148904303593  1.0000
  C   C15       1.0  0.47432905012114895  0.6840651482974708  0.7720333434150818  1.0000
  C   C16       1.0  0.4661499337812957  0.6566271781663534  0.6767395527417295  1.0000
  C   C17       1.0  0.32471155878929653  0.6065016076382153  0.6049630125011591  1.0000
  C   C18       1.0  0.3017135308263336  0.5706038153547299  0.5027267411456722  1.0000
  C   C19       1.0  0.3131817118812279  0.526954198768081  0.3629816694309015  1.0000
  C   C20       1.0  0.3188802637183556  0.4399088330739149  0.10932555540031078  1.0000
  C   C21       1.0  0.26919253194041914  0.4474299268471214  0.18604671157854827  1.0000
  C   C22       1.0  0.3641416262476795  0.5142111279423816  0.2810791612287105  1.0000
  C   C23       1.0  0.50728004456883  0.5694989503484891  0.29338365667519645  1.0000
  C   C24       1.0  0.5466437225355492  0.5589539087486628  0.2123996363875662  1.0000
  C   C25       1.0  0.48734091460365647  0.2820181509698402  0.8931518691902981  1.0000
  C   C26       1.0  0.5492247338330499  0.20668062756332262  0.8677509958446521  1.0000
  C   C27       1.0  0.702947673032547  0.22797269563950104  0.912104735695465  1.0000
  C   C28       1.0  0.7899418436119632  0.32329284364805483  0.9799624382820866  1.0000
  C   C29       1.0  0.7201748028041309  0.3950756571589055  0.0015676331314651124  1.0000
  C   C30       1.0  0.799163618089537  0.49730476958198017  0.06791925155901171  1.0000
  C   C31       1.0  0.9501656351157806  0.6370457692771082  0.16398811382620687  1.0000
  C   C32       1.0  0.20966537502098256  0.8906347445179962  0.33051045220989295  1.0000
  C   C33       1.0  0.08322127248891324  0.8139691476177405  0.2613278591634798  1.0000
  C   C34       1.0  0.0830207245578762  0.7188959594294603  0.23309350089475342  1.0000
  C   C35       1.0  0.21379463529399348  0.706504990916777  0.2760923536441097  1.0000
  C   C36       1.0  0.3342297927902039  0.7874429369243576  0.3464943112128653  1.0000
  C   C37       1.0  0.4062065490078056  0.8931257355581083  0.6110707543085852  1.0000
  C   C38       1.0  0.31900168936521583  0.8677241682987716  0.6609920238210593  1.0000
  C   C39       1.0  0.20954181898096635  0.9120636398723151  0.6840814057435268  1.0000
  C   C40       1.0  0.19029577609121875  0.9799426743416364  0.6566757195164925  1.0000
  C   C41       1.0  0.28155001286891956  0.0015190364481583  0.6064744379026834  1.0000
  C   C42       1.0  0.26868489643375426  0.0678463152564248  0.5705928886192169  1.0000
  C   C43       1.0  0.21356172604102852  0.1639698054039088  0.5270566949980662  1.0000
  C   C44       1.0  0.1207872059304691  0.3305785486557157  0.4400903248214547  1.0000
  C   C45       1.0  0.1780861842492811  0.26141320287617736  0.4476229048865648  1.0000
  C   C46       1.0  0.14983362942067666  0.23314773782878728  0.5143702312630156  1.0000
  C   C47       1.0  0.06182315777864742  0.276092351809787  0.5696234718713811  1.0000
  C   C48       1.0  0.011835230965829249  0.3465345625934973  0.5590975399225827  1.0000
  C   C49       1.0  0.7952490990278421  0.3888586614848465  0.28202112590798123  1.0000
  C   C50       1.0  0.6581385804728583  0.3389470718058547  0.20668428303685007  1.0000
  C   C51       1.0  0.525671269085919  0.31593623558152484  0.22796608251121606  1.0000
  C   C52       1.0  0.5338521640043511  0.3433734819390608  0.32325975712864613  1.0000
  C   C53       1.0  0.6752894675634594  0.39349905278315594  0.3950367887388282  1.0000
  C   C54       1.0  0.698289288328894  0.4293982916445459  0.49727390647920094  1.0000
  C   C55       1.0  0.686819658770986  0.47304501493190554  0.6370187595818708  1.0000
  C   C56       1.0  0.6811200511658343  0.5600925511714011  0.8906757131986469  1.0000
  C   C57       1.0  0.7308081301251477  0.5525700104325894  0.8139539563447471  1.0000
  C   C58       1.0  0.6358618843883832  0.48578808536989027  0.718921513493278  1.0000
  C   C59       1.0  0.4927220474529719  0.4305017102453591  0.7066181100920731  1.0000
  C   C60       1.0  0.45335766378151726  0.441047475180696  0.7876011408417796  1.0000
  C   C61       1.0  0.5126583189466347  0.7179810628736336  0.10684708566480346  1.0000
  C   C62       1.0  0.4507755682681989  0.7933185862084075  0.13224869608928466  1.0000
  C   C63       1.0  0.2970508548130156  0.7720272415394834  0.08789322962172023  1.0000
  C   C64       1.0  0.21005811418983464  0.6767078168450668  0.020036625879072276  1.0000
  C   C65       1.0  0.27982729786342736  0.6049250027022951  0.9984304482904635  1.0000
  C   C66       1.0  0.2008366897755565  0.5026944437013158  0.9320779834780312  1.0000
  C   C67       1.0  0.0498343070211575  0.36295272098663395  0.836010602118364  1.0000
  C   C68       1.0  0.790334209847856  0.10936519356611293  0.6694931639799153  1.0000
  C   C69       1.0  0.9167768795417715  0.18603006739645175  0.7386758866308086  1.0000
  C   C70       1.0  0.9169767104261126  0.28110180832455  0.7669070644723633  1.0000
  C   C71       1.0  0.7862045939334195  0.29349422329301694  0.7239084438836656  1.0000
  C   C72       1.0  0.665768727850562  0.21255700086517493  0.6535067252254408  1.0000
  N   N1        1.0  0.6800107271238149  0.8640832506073368  0.5137458240709949  1.0000
  N   N2        1.0  0.645220752681773  0.9250133880254552  0.4847768960964629  1.0000
  N   N3        1.0  0.8216102071361746  0.8766529927619475  0.41940354883983133  1.0000
  N   N4        1.0  0.6115863033907232  0.0413904242402481  0.4154448947805633  1.0000
  N   N5        1.0  0.9589560443820134  0.6254540262814177  0.504065291683766  1.0000
  N   N6        1.0  0.16609764371327887  0.486026349822403  0.3502747752400097  1.0000
  N   N7        1.0  0.1603571099357524  0.5150597195677592  0.44021050487066304  1.0000
  N   N8        1.0  0.4018655814982566  0.5806316169454108  0.4571740211253044  1.0000
  N   N9        1.0  0.1959951171982084  0.5846119260872557  0.6259680141047994  1.0000
  N   N10       1.0  0.4543455680243298  0.4957811860580393  0.12120193577207065  1.0000
  N   N11       1.0  0.8157133259987148  0.6497370290125845  0.13587426345143436  1.0000
  N   N12       1.0  0.7201324805884823  0.5597918929236344  0.07498824560729388  1.0000
  N   N13       1.0  0.9448353122207463  0.5428732485580953  0.12343362975230586  1.0000
  N   N14       1.0  0.5704583532202676  0.3740464815008053  0.9586393564350217  1.0000
  N   N15       1.0  0.33322412644766086  0.8786852629311215  0.37449574218143067  1.0000
  N   N16       1.0  0.3199885049855169  0.13591596335825074  0.48625374500833374  1.0000
  N   N17       1.0  0.3547788408328286  0.07498654932600603  0.5152230347480042  1.0000
  N   N18       1.0  0.17839259491323392  0.12334694413006284  0.5805973647926876  1.0000
  N   N19       1.0  0.38841185728572475  0.9586087900412964  0.5845551656683767  1.0000
  N   N20       1.0  0.04104498197074239  0.37454663413995354  0.4959345095562213  1.0000
  N   N21       1.0  0.8339033811985173  0.513974310721082  0.6497256402242044  1.0000
  N   N22       1.0  0.8396439291999371  0.4849431113272048  0.5597908730343519  1.0000
  N   N23       1.0  0.5981379291378062  0.4193675963668613  0.5428266535966841  1.0000
  N   N24       1.0  0.804007701957019  0.4153901809120202  0.37403263352007343  1.0000
  N   N25       1.0  0.5456568897256204  0.5042201975553554  0.8787983500876636  1.0000
  N   N26       1.0  0.18428590466965739  0.3502621850751098  0.8641259198521141  1.0000
  N   N27       1.0  0.2798678243946923  0.4402073206038822  0.925010217878196  1.0000
  N   N28       1.0  0.055164995644347056  0.45712596472520073  0.8765636052847371  1.0000
  N   N29       1.0  0.42954160458152296  0.6259541789923163  0.04135970772613719  1.0000
  N   N30       1.0  0.6667750984568671  0.12131395164499993  0.6255068980190189  1.0000
