data_image0
_chemical_formula_structural       Cu4H12C20S8N8
_chemical_formula_sum              "Cu4 H12 C20 S8 N8"
_cell_length_a       6.91649716899486
_cell_length_b       6.915648021825476
_cell_length_c       15.074336599777606
_cell_angle_alpha    89.41746494534227
_cell_angle_beta     90.47204931257485
_cell_angle_gamma    89.6876863749001

_space_group_name_H-M_alt    "P 1"
_space_group_IT_number       1

loop_
  _space_group_symop_operation_xyz
  'x, y, z'

loop_
  _atom_site_type_symbol
  _atom_site_label
  _atom_site_symmetry_multiplicity
  _atom_site_fract_x
  _atom_site_fract_y
  _atom_site_fract_z
  _atom_site_occupancy
  Cu  Cu1       1.0  0.5013989932375509  0.5027661236226068  0.4989729895252142  1.0000
  Cu  Cu2       1.0  0.9972026841507642  0.9986398100108502  0.9990040438595786  1.0000
  Cu  Cu3       1.0  0.4996363696638753  0.00034434676030769754  0.7654787374241112  1.0000
  Cu  Cu4       1.0  0.4979528711310977  0.0017262901121099983  0.2654440449372047  1.0000
  H   H1        1.0  0.5040001862290354  0.3149665141077378  0.9149330710886051  1.0000
  H   H2        1.0  0.4900603899769891  0.6824868419475437  0.08288253488311882  1.0000
  H   H3        1.0  0.5047020477536819  0.6804044963340631  0.9143010324915155  1.0000
  H   H4        1.0  0.4903354680791736  0.3140012317581409  0.0855926092652624  1.0000
  H   H5        1.0  0.1886037286436419  0.0092232698218453  0.5857586474073815  1.0000
  H   H6        1.0  0.8171269557511706  0.9958261013824341  0.4142622699659172  1.0000
  H   H7        1.0  0.8201777436070543  0.00930897023364  0.5828692260862098  1.0000
  H   H8        1.0  0.18250017575367386  0.9964487016101843  0.414987111941791  1.0000
  H   H9        1.0  0.010205031297161304  0.48615929697483296  0.8614205413670037  1.0000
  H   H10       1.0  0.9930735063740455  0.5106712500130329  0.13937936155459602  1.0000
  H   H11       1.0  0.996833256358201  0.5098304998985695  0.6394358119159735  1.0000
  H   H12       1.0  0.005244170853394802  0.48792385902681457  0.3613902560755947  1.0000
  C   C1        1.0  0.5035250716302073  0.39890158052221375  0.8534754185026332  1.0000
  C   C2        1.0  0.49343151771784477  0.5993125992099378  0.14458449968027057  1.0000
  C   C3        1.0  0.5039448388669499  0.5985554875915043  0.8530933720590073  1.0000
  C   C4        1.0  0.4933813836893464  0.39900635365092535  0.14594459830584589  1.0000
  C   C5        1.0  0.10322038767159111  0.0056384661053740966  0.6460637775588867  1.0000
  C   C6        1.0  0.8993931676610174  0.9970672228105072  0.35306135771093494  1.0000
  C   C7        1.0  0.9029127361801129  0.005505737716759999  0.644611810083241  1.0000
  C   C8        1.0  0.0989951475434907  0.9975048668807746  0.35351424447423346  1.0000
  C   C9        1.0  0.10290511397136731  0.9991379851494813  0.7989857880056948  1.0000
  C   C10       1.0  0.8938666974974012  0.9990342270710856  0.19980670577627546  1.0000
  C   C11       1.0  0.8981980199376807  0.9987567878272189  0.7973240454614087  1.0000
  C   C12       1.0  0.10110688358365388  0.0001266727282426995  0.20035979074217647  1.0000
  C   C13       1.0  0.5029847348440555  0.6048099150195865  0.6998608980412019  1.0000
  C   C14       1.0  0.4988545471380803  0.3983374307439931  0.29885977573947303  1.0000
  C   C15       1.0  0.5020459405527119  0.39753483166826  0.70028702600888  1.0000
  C   C16       1.0  0.4992309260457334  0.6030611353563344  0.29730816801434673  1.0000
  C   C17       1.0  0.001245602071811903  0.5019489423348559  0.7103616042914285  1.0000
  C   C18       1.0  0.0014449412742294006  0.49524220782007694  0.2904295159405379  1.0000
  C   C19       1.0  0.00596290649667  0.4936190676280035  0.7904546825286546  1.0000
  C   C20       1.0  0.9972513027251182  0.5028620690796118  0.21031208742306975  1.0000
  S   S1        1.0  0.2295630179198227  0.9967809931357651  0.8982436965918839  1.0000
  S   S2        1.0  0.7682286725020051  0.9990324907466859  0.10047457716257922  1.0000
  S   S3        1.0  0.7675893397763003  0.9955693644782356  0.8947024729466907  1.0000
  S   S4        1.0  0.226175541926338  0.0029399051163636995  0.10197572043820463  1.0000
  S   S5        1.0  0.499679694188778  0.2731344697733533  0.6019038608701098  1.0000
  S   S6        1.0  0.5023699048111182  0.7330371217488858  0.39475559114006853  1.0000
  S   S7        1.0  0.5029898635220037  0.7311745204940368  0.6005279062895642  1.0000
  S   S8        1.0  0.5009734497525785  0.2710262582964731  0.3980555614224316  1.0000
  N   N1        1.0  0.5036180134728312  0.7022067951241554  0.776480410516591  1.0000
  N   N2        1.0  0.4964063668298664  0.29919784674933686  0.22319233770756605  1.0000
  N   N3        1.0  0.5025601599971877  0.2977801360803484  0.777156571126419  1.0000
  N   N4        1.0  0.49679043968038167  0.7007955314249302  0.22036752714573285  1.0000
  N   N5        1.0  0.8009850913439893  0.0015641093542270972  0.7203506555156028  1.0000
  N   N6        1.0  0.20051845386186068  0.9991181265250404  0.27723811604541043  1.0000
  N   N7        1.0  0.20249552659352335  0.0020268113184371953  0.7233535130759637  1.0000
  N   N8        1.0  0.7961214871366523  0.9979342338086212  0.2764162383706933  1.0000
