data_image0
_chemical_formula_structural       CuH30C40S2N2O8
_chemical_formula_sum              "Cu1 H30 C40 S2 N2 O8"
_cell_length_a       7.929706872804425
_cell_length_b       9.949455550279366
_cell_length_c       11.351005050366393
_cell_angle_alpha    92.85005604546386
_cell_angle_beta     96.09394417875835
_cell_angle_gamma    104.33787718531211

_space_group_name_H-M_alt    "P 1"
_space_group_IT_number       1

loop_
  _space_group_symop_operation_xyz
  'x, y, z'

loop_
  _atom_site_type_symbol
  _atom_site_label
  _atom_site_symmetry_multiplicity
  _atom_site_fract_x
  _atom_site_fract_y
  _atom_site_fract_z
  _atom_site_occupancy
  Cu  Cu1       1.0  0.5000039853961553  1.703745475400001e-06  1.678916774014257e-07  1.0000
  H   H1        1.0  0.29299211953651383  0.4954102989651403  0.0717254978754269  1.0000
  H   H2        1.0  0.7070116332267348  0.5045910287678196  0.9282627805455519  1.0000
  H   H3        1.0  0.8871530991653388  0.6848112412177086  0.9220368859269925  1.0000
  H   H4        1.0  0.11284969017443558  0.3151943572509239  0.07796912170047682  1.0000
  H   H5        1.0  0.11514065845170042  0.901306699530302  0.9266290341128139  1.0000
  H   H6        1.0  0.8848605258110284  0.09869786157580049  0.07337682006200202  1.0000
  H   H7        1.0  0.7347261540046973  0.21193106168110623  0.3758325223055153  1.0000
  H   H8        1.0  0.2652703588232583  0.7880672113502881  0.6241639408213828  1.0000
  H   H9        1.0  0.05463477002816568  0.23609794064015682  0.4195317182605862  1.0000
  H   H10       1.0  0.9453616363760773  0.763896156482822  0.5804628039261318  1.0000
  H   H11       1.0  0.26643549765574187  0.4560284035571485  0.3824176480927122  1.0000
  H   H12       1.0  0.7335637919491091  0.5439667327588394  0.6175779968921163  1.0000
  H   H13       1.0  0.15664386219420826  0.6477419596780434  0.29781388219524274  1.0000
  H   H14       1.0  0.8433565069282876  0.35225632901931186  0.7021872529272031  1.0000
  H   H15       1.0  0.5034525548728936  0.7203455486905738  0.0668524200091483  1.0000
  H   H16       1.0  0.4965474512149583  0.2796558142489188  0.9331400062119501  1.0000
  H   H17       1.0  0.515744589576201  0.3924137974521926  0.5350855995083634  1.0000
  H   H18       1.0  0.4842478902751137  0.6075876206386253  0.46491247637427346  1.0000
  H   H19       1.0  0.3819413792863386  0.20915342739937867  0.6597762062066792  1.0000
  H   H20       1.0  0.6180514494422764  0.7908490363979792  0.3402228177422728  1.0000
  H   H21       1.0  0.22522005280617907  0.9721497598582045  0.566318586056923  1.0000
  H   H22       1.0  0.7747778993786342  0.027852716348341685  0.4336851972534745  1.0000
  H   H23       1.0  0.22599947589796443  0.916196818214047  0.35059785253113773  1.0000
  H   H24       1.0  0.7740071774186816  0.08379730372730879  0.649406188378471  1.0000
  H   H25       1.0  0.8388680556253759  0.852029427803302  0.0893172734119361  1.0000
  H   H26       1.0  0.16113186147570246  0.14797513655955896  0.9106884933969751  1.0000
  H   H27       1.0  0.00936067725836388  0.9703036396077631  0.18841957301540194  1.0000
  H   H28       1.0  0.9906387845416944  0.02969570314013479  0.811583304787014  1.0000
  H   H29       1.0  0.7895726117358705  0.9171827805597627  0.22765987865078327  1.0000
  H   H30       1.0  0.21043073604904816  0.08282071815177257  0.7723434382304079  1.0000
  C   C1        1.0  0.24451673520948694  0.5810827076310259  0.03799921714261248  1.0000
  C   C2        1.0  0.7554838293235093  0.41891655555137663  0.9619905183322145  1.0000
  C   C3        1.0  0.0665201473711363  0.5665336853036109  0.9982570100554399  1.0000
  C   C4        1.0  0.9334799761023478  0.43347185863155596  0.001738239085419514  1.0000
  C   C5        1.0  0.02085548696020105  0.6846214702781949  0.9556606164701337  1.0000
  C   C6        1.0  0.9791440154920821  0.3153820178546312  0.044338910395076404  1.0000
  C   C7        1.0  0.14914158457640525  0.8082504280017985  0.9564614066732561  1.0000
  C   C8        1.0  0.8508531464924189  0.1917499683924504  0.0435411877522895  1.0000
  C   C9        1.0  0.8842554018005798  0.5389224540514731  0.2884988083339195  1.0000
  C   C10       1.0  0.11574403807565393  0.46107687852193624  0.711502305509363  1.0000
  C   C11       1.0  0.762702716793079  0.41515769385541285  0.3120540060391974  1.0000
  C   C12       1.0  0.23729924644454303  0.5848416271172139  0.6879464005563278  1.0000
  C   C13       1.0  0.8276267259388064  0.3075872008705929  0.3594369061643904  1.0000
  C   C14       1.0  0.1723739482133339  0.6924121131842964  0.6405616491060968  1.0000
  C   C15       1.0  0.0068634542728957795  0.32169990375521706  0.3840750370161672  1.0000
  C   C16       1.0  0.9931390126002952  0.6782972920240764  0.6159182689352534  1.0000
  C   C17       1.0  0.1262608722488991  0.44479150125894756  0.3630938825095882  1.0000
  C   C18       1.0  0.8737378369869832  0.5552057246396274  0.636902689262378  1.0000
  C   C19       1.0  0.06495002696185277  0.5520587628699758  0.3159057309055058  1.0000
  C   C20       1.0  0.9350503092748994  0.447939510565632  0.68409275827824  1.0000
  C   C21       1.0  0.8218195838558203  0.6507333518951696  0.2326059871958961  1.0000
  C   C22       1.0  0.1781793304610133  0.3492680956970701  0.7674004633323577  1.0000
  C   C23       1.0  0.36564435146064506  0.7079798980444989  0.035278897943491885  1.0000
  C   C24       1.0  0.6343543468133248  0.2920173227668315  0.9647167918489075  1.0000
  C   C25       1.0  0.45008459835553793  0.2586974597220574  0.37209555755262613  1.0000
  C   C26       1.0  0.5499166671274905  0.7412997698374962  0.6279029529102829  1.0000
  C   C27       1.0  0.453070664622672  0.28799873362931544  0.4944784337865684  1.0000
  C   C28       1.0  0.5469284044524299  0.7119995430630508  0.5055199680312725  1.0000
  C   C29       1.0  0.3750610551147418  0.18488994425762675  0.5645062638937688  1.0000
  C   C30       1.0  0.6249314466604048  0.8151114840076871  0.4354935759480015  1.0000
  C   C31       1.0  0.2894669098581275  0.0520899738589335  0.5120467299760847  1.0000
  C   C32       1.0  0.7105319825348815  0.9479114635588104  0.4879579565930356  1.0000
  C   C33       1.0  0.28818380254851667  0.02096945710513149  0.3908599505463144  1.0000
  C   C34       1.0  0.7118193981604576  0.9790257203130533  0.6091447763318882  1.0000
  C   C35       1.0  0.3692502621218381  0.12386838428385255  0.3203244822109426  1.0000
  C   C36       1.0  0.6307504449160534  0.8761309450327845  0.6796767189982449  1.0000
  C   C37       1.0  0.3774373940342244  0.08821359975664218  0.1911255959441363  1.0000
  C   C38       1.0  0.6225665341196632  0.9117878093722993  0.8088767941499099  1.0000
  C   C39       1.0  0.8906165996657693  0.8850532731930301  0.18250554353374332  1.0000
  C   C40       1.0  0.1093817420485763  0.1149543941049842  0.8174958369057492  1.0000
  S   S1        1.0  0.5342952059029783  0.39578642016894605  0.28180583762338784  1.0000
  S   S2        1.0  0.4657026069723784  0.6042118648674375  0.7181933588081222  1.0000
  N   N1        1.0  0.31867444303501447  0.8204161497133028  0.9960153077884614  1.0000
  N   N2        1.0  0.6813281005715838  0.17958108167672995  0.003984172019919202  1.0000
  O   O1        1.0  0.5021813292914317  0.02936155888266258  0.17421338037605244  1.0000
  O   O2        1.0  0.4978189443692642  0.9706325589935217  0.8257866957857657  1.0000
  O   O3        1.0  0.271204223624224  0.1138850652526884  0.1110659817424775  1.0000
  O   O4        1.0  0.7287965162994039  0.8861142793256955  0.88893786540541  1.0000
  O   O5        1.0  0.671960159395212  0.6349184742369685  0.18201984454156417  1.0000
  O   O6        1.0  0.32803689642908307  0.3650850611073792  0.81798656342837  1.0000
  O   O7        1.0  0.9446011202576088  0.7737384378615958  0.24096452871582846  1.0000
  O   O8        1.0  0.05539992469566357  0.2262619320743368  0.7590367385801003  1.0000
