data_image0
_chemical_formula_structural       Al2H10C24N2O14F2
_chemical_formula_sum              "Al2 H10 C24 N2 O14 F2"
_cell_length_a       6.82235590841561
_cell_length_b       11.21532312268426
_cell_length_c       17.873404664945337
_cell_angle_alpha    83.1156436651011
_cell_angle_beta     77.3797956584849
_cell_angle_gamma    71.1817418425568

_space_group_name_H-M_alt    "P 1"
_space_group_IT_number       1

loop_
  _space_group_symop_operation_xyz
  'x, y, z'

loop_
  _atom_site_type_symbol
  _atom_site_label
  _atom_site_symmetry_multiplicity
  _atom_site_fract_x
  _atom_site_fract_y
  _atom_site_fract_z
  _atom_site_occupancy
  Al  Al1       1.0  0.5016782408814037  0.500645441572395  0.5005507528169062  1.0000
  Al  Al2       1.0  0.0019313191740479758  0.5006538860812809  0.49992117550771553  1.0000
  H   H1        1.0  0.2412799968025823  0.6116206707821445  0.4198537926520133  1.0000
  H   H2        1.0  0.7652152334636141  0.38781630838288095  0.5798262320246863  1.0000
  H   H3        1.0  0.771683346139483  0.11308648592112289  0.4714369167598136  1.0000
  H   H4        1.0  0.23242671741185464  0.8882120660977998  0.5275190027497203  1.0000
  H   H5        1.0  0.6024972246336235  0.44557517957534276  0.27861023542096314  1.0000
  H   H6        1.0  0.6597803176752564  0.4415390853639918  0.1361298290189765  1.0000
  H   H7        1.0  0.22087687458845545  0.5530082990011991  0.11724332759352049  1.0000
  H   H8        1.0  0.7683432465808692  0.44803402758011396  0.8806528138738087  1.0000
  H   H9        1.0  0.39769498150795374  0.5505953523485514  0.7247651070645063  1.0000
  H   H10       1.0  0.3329597660921023  0.5529765483852104  0.8675539701961767  1.0000
  C   C1        1.0  0.8393507852831946  0.49557296015903063  0.3637870151426341  1.0000
  C   C2        1.0  0.6243938031513352  0.725645064318236  0.504039390666449  1.0000
  C   C3        1.0  0.16304057160877503  0.5053363974310868  0.6366233147135459  1.0000
  C   C4        1.0  0.3794889248088182  0.2755764015375064  0.49582991869950627  1.0000
  C   C5        1.0  0.5619816305808737  0.866773973151659  0.5045484947949461  1.0000
  C   C6        1.0  0.44215319976579076  0.13452224679761568  0.49441682997596803  1.0000
  C   C7        1.0  0.7102507368850224  0.9325704387821714  0.4897099553045975  1.0000
  C   C8        1.0  0.29384884268874595  0.06876007848840968  0.5089862705013672  1.0000
  C   C9        1.0  0.6544195478488818  0.06316145902690808  0.48380230401519947  1.0000
  C   C10       1.0  0.3497213851913087  0.9381689516825913  0.5150636386063141  1.0000
  C   C11       1.0  0.8806454707656284  0.4953385099688176  0.2784561618876893  1.0000
  C   C12       1.0  0.7389299182398474  0.4667495134862561  0.24220525182781216  1.0000
  C   C13       1.0  0.7700315289642815  0.4654292118985096  0.1629806642626049  1.0000
  C   C14       1.0  0.9448253366474902  0.49610750998046166  0.11631717651578546  1.0000
  C   C15       1.0  0.08691022777456667  0.526607981595042  0.1515582423155237  1.0000
  C   C16       1.0  0.05381001752124343  0.5248286555155772  0.23091170665048116  1.0000
  C   C17       1.0  0.9780839900540388  0.49765882066609624  0.03538705436724139  1.0000
  C   C18       1.0  0.009429462242117284  0.4995234433050443  0.9654061600664434  1.0000
  C   C19       1.0  0.04581790708015624  0.5015227678338618  0.8843973086837166  1.0000
  C   C20       1.0  0.9048458775309952  0.47318023086204164  0.8475135125641345  1.0000
  C   C21       1.0  0.9422229979871658  0.47571551727019556  0.7680514814358048  1.0000
  C   C22       1.0  0.11846005286487571  0.5040161533662298  0.7220258443294442  1.0000
  C   C23       1.0  0.25899047901850736  0.5302973482589691  0.7599471338078345  1.0000
  C   C24       1.0  0.22385092573010446  0.5306746946938433  0.8392943427392723  1.0000
  N   N1        1.0  0.9354331671178927  0.8646395536289969  0.48659671997022247  1.0000
  N   N2        1.0  0.06869753378544631  0.13673292671622045  0.5119876258721234  1.0000
  O   O1        1.0  0.6473716198062645  0.5133940573415787  0.3972750450267526  1.0000
  O   O2        1.0  0.8219894128113197  0.669897981234989  0.49046006330409136  1.0000
  O   O3        1.0  0.008471706348423326  0.522284917624347  0.6034877542009411  1.0000
  O   O4        1.0  0.525257545995565  0.3258985367995492  0.48682771110927797  1.0000
  O   O5        1.0  0.35548250786797553  0.48823303702457815  0.6038378180176807  1.0000
  O   O6        1.0  0.18182683706671543  0.3312424995963496  0.5091658455314344  1.0000
  O   O7        1.0  0.9951661739298316  0.4792840369158781  0.3961712406152103  1.0000
  O   O8        1.0  0.47841599261666096  0.675281708884519  0.5140627564308744  1.0000
  O   O9        1.0  0.24344494251768367  0.5551200402364883  0.465456736084775  1.0000
  O   O10       1.0  0.7608171813537936  0.44582222564226015  0.5348975761337798  1.0000
  O   O11       1.0  0.9862334598195658  0.8293346120522216  0.5499045380927895  1.0000
  O   O12       1.0  0.05654123525814458  0.8550189794641198  0.4235959631961776  1.0000
  O   O13       1.0  0.9472863381104374  0.14612812903929748  0.574923901818714  1.0000
  O   O14       1.0  0.018146485395497767  0.17221395359462116  0.44865131735551955  1.0000
  F   F1        1.0  0.1944488135936808  0.5572162288248634  0.2613689412993452  1.0000
  F   F2        1.0  0.802416402933545  0.445289570412541  0.7359719365199026  1.0000
