data_image0
_chemical_formula_structural       Mn2H44C58N12O8
_chemical_formula_sum              "Mn2 H44 C58 N12 O8"
_cell_length_a       8.534561151132415
_cell_length_b       12.497566828705146
_cell_length_c       13.22230176138168
_cell_angle_alpha    69.99571788130902
_cell_angle_beta     69.82664934778286
_cell_angle_gamma    82.81055857715592

_space_group_name_H-M_alt    "P 1"
_space_group_IT_number       1

loop_
  _space_group_symop_operation_xyz
  'x, y, z'

loop_
  _atom_site_type_symbol
  _atom_site_label
  _atom_site_symmetry_multiplicity
  _atom_site_fract_x
  _atom_site_fract_y
  _atom_site_fract_z
  _atom_site_occupancy
  Mn  Mn1       1.0  0.1419298723915077  0.8880483137306643  0.09574883008085068  1.0000
  Mn  Mn2       1.0  0.8580821510774186  0.1119419541118987  0.9042520604470853  1.0000
  H   H1        1.0  0.2945206247508025  0.5074978384688008  0.20392622859567666  1.0000
  H   H2        1.0  0.7055016629979606  0.49236483299377204  0.7962290244142877  1.0000
  H   H3        1.0  0.422734071893359  0.3389827288800831  0.31829872756475197  1.0000
  H   H4        1.0  0.5774248179710781  0.660977013379764  0.6818486605894094  1.0000
  H   H5        1.0  0.6110224009224866  0.36951640898130483  0.4115703094552855  1.0000
  H   H6        1.0  0.3891646901771538  0.6306017385524428  0.5884974387614789  1.0000
  H   H7        1.0  0.6739160907495717  0.5653709198350542  0.3932084090833639  1.0000
  H   H8        1.0  0.32621093363093223  0.4347976540021889  0.6067199668924985  1.0000
  H   H9        1.0  0.5415486134347064  0.7330781562782678  0.2819185913628672  1.0000
  H   H10       1.0  0.4584600815266668  0.2670018760182913  0.7179961004723054  1.0000
  H   H11       1.0  0.8789599894482195  0.7296188932859667  0.26445935067938814  1.0000
  H   H12       1.0  0.1211158462386166  0.2703540970411638  0.7355318662390996  1.0000
  H   H13       1.0  0.6534058737505362  0.7182448062421118  0.44799595638967554  1.0000
  H   H14       1.0  0.34662208910818043  0.2817081511103865  0.5519757621596924  1.0000
  H   H15       1.0  0.8528267897224354  0.0250340699985472  0.4377298765232993  1.0000
  H   H16       1.0  0.14707740503098427  0.974943084352191  0.562284898232974  1.0000
  H   H17       1.0  0.06933980817587582  0.02313793562062471  0.25806626996507726  1.0000
  H   H18       1.0  0.9306216502198982  0.9768746160850273  0.741948343096183  1.0000
  H   H19       1.0  0.3445633045399745  0.7852361895178674  0.7307835408620066  1.0000
  H   H20       1.0  0.6554287379916844  0.21467408581423086  0.2692521786725095  1.0000
  H   H21       1.0  0.17219222730005163  0.7695155968399376  0.9301918024263357  1.0000
  H   H22       1.0  0.8278128390790088  0.23040392120913825  0.06985044493329444  1.0000
  H   H23       1.0  0.4241203493683799  0.03710764586523399  0.9250472249783782  1.0000
  H   H24       1.0  0.5758213735191405  0.9629045556908479  0.0748996025391692  1.0000
  H   H25       1.0  0.6060852590501755  0.06188669001620181  0.7298402405979089  1.0000
  H   H26       1.0  0.3937991586756908  0.9381267386425308  0.27009357306985043  1.0000
  H   H27       1.0  0.6640328730675408  0.8323638009177475  0.879217103772177  1.0000
  H   H28       1.0  0.3359691794793279  0.16769537453907193  0.12078200780258896  1.0000
  H   H29       1.0  0.5762743109242476  0.6500034456321729  0.8795504868310785  1.0000
  H   H30       1.0  0.42367342302875244  0.3500704937774587  0.12044355761290142  1.0000
  H   H31       1.0  0.6695175608188463  0.4650371819977155  0.9939168894053195  1.0000
  H   H32       1.0  0.33038751602531136  0.5350225574878993  0.006072904399985604  1.0000
  H   H33       1.0  0.8476581461120675  0.4643166362397013  0.10827907397334964  1.0000
  H   H34       1.0  0.1522807843293918  0.5356954128023476  0.8916963661228647  1.0000
  H   H35       1.0  0.9368945408202761  0.6477665351784553  0.10633849622553279  1.0000
  H   H36       1.0  0.06309198651790382  0.352225615048468  0.8936540877922209  1.0000
  H   H37       1.0  0.9874602627197578  0.33254924058983454  0.2042508103585304  1.0000
  H   H38       1.0  0.012485378668948518  0.6674695135031073  0.7957347567333739  1.0000
  H   H39       1.0  0.032618245801124615  0.5039983385394606  0.2501220511147153  1.0000
  H   H40       1.0  0.9673850212079173  0.4960125388786452  0.7498505848235979  1.0000
  H   H41       1.0  0.8638214738902905  0.3027331037703079  0.6042391725781114  1.0000
  H   H42       1.0  0.1362382681761929  0.6972765942317026  0.39573906262224756  1.0000
  H   H43       1.0  0.8052381957537521  0.14439634869033574  0.5449984704038683  1.0000
  H   H44       1.0  0.19478658272558394  0.8556100814575914  0.4549886358234047  1.0000
  C   C1        1.0  0.32311590617107566  0.7302201537138872  0.17923589433719656  1.0000
  C   C2        1.0  0.6768422371575654  0.26971762823680484  0.8207774860440223  1.0000
  C   C3        1.0  0.40860384149333834  0.6298436707013908  0.23746660666962782  1.0000
  C   C4        1.0  0.5913934870032946  0.3701252583128041  0.7625629745597633  1.0000
  C   C5        1.0  0.37731823532121916  0.5193177762215627  0.24585417202766272  1.0000
  C   C6        1.0  0.6227323618222799  0.48061046207082825  0.7542547860397446  1.0000
  C   C7        1.0  0.4499871907234905  0.42584099246111873  0.3082086766927858  1.0000
  C   C8        1.0  0.5501472906544507  0.5741445943881659  0.6919013608126363  1.0000
  C   C9        1.0  0.555835777284486  0.4428057990793663  0.3616634397725703  1.0000
  C   C10       1.0  0.4443273768116428  0.5572735020590615  0.6383829359784483  1.0000
  C   C11       1.0  0.5905969637942904  0.553103342723773  0.35155660673837014  1.0000
  C   C12       1.0  0.40951777712488274  0.4470072448674003  0.648415433556508  1.0000
  C   C13       1.0  0.5174461468741713  0.6464885344866504  0.28974648263729097  1.0000
  C   C14       1.0  0.4825884769886812  0.353569802735855  0.7102213348524344  1.0000
  C   C15       1.0  0.8675134111976136  0.7928942511195347  0.306144181985381  1.0000
  C   C16       1.0  0.13252801926179106  0.20708319478879392  0.6938427376667844  1.0000
  C   C17       1.0  0.74278954401278  0.787484700894325  0.4072035395562636  1.0000
  C   C18       1.0  0.25721422378706654  0.2124895989216711  0.5927738400368483  1.0000
  C   C19       1.0  0.7316878390386422  0.8707634397678774  0.4597554728080268  1.0000
  C   C20       1.0  0.2682739125353494  0.1292153333946899  0.5402214137259732  1.0000
  C   C21       1.0  0.8542297847946545  0.957223761059531  0.4035662110651047  1.0000
  C   C22       1.0  0.14571235527929355  0.042760959746210914  0.5964286389291402  1.0000
  C   C23       1.0  0.9750132961526176  0.9571259748860756  0.302807620633068  1.0000
  C   C24       1.0  0.024963823972939312  0.0428678458891838  0.6971984418092134  1.0000
  C   C25       1.0  0.49649584260273366  0.9235935051310662  0.7124738053293383  1.0000
  C   C26       1.0  0.5034259789632785  0.0763505052833224  0.28752450631237986  1.0000
  C   C27       1.0  0.3669997686623105  0.8411875865844394  0.7718267841801206  1.0000
  C   C28       1.0  0.6329677293770858  0.15875009074692772  0.228196088098464  1.0000
  C   C29       1.0  0.26951430664109216  0.8333333104881006  0.881608126259458  1.0000
  C   C30       1.0  0.73046544329182  0.1665966265777925  0.11841927436064033  1.0000
  C   C31       1.0  0.40843151190924243  0.9836140788794979  0.879709265552421  1.0000
  C   C32       1.0  0.5915079145547041  0.0163750213552447  0.12026581957982779  1.0000
  C   C33       1.0  0.5104256758284936  0.996841318536788  0.7700029858814402  1.0000
  C   C34       1.0  0.48949221090406064  0.003136041313389601  0.2299643063816816  1.0000
  C   C35       1.0  0.8588880002735098  0.8594910386372238  0.9943483471241021  1.0000
  C   C36       1.0  0.14113438292668692  0.14052124232669172  0.005657811040826694  1.0000
  C   C37       1.0  0.8062476494954537  0.7511261325904995  0.9924804948297493  1.0000
  C   C38       1.0  0.19375151243167474  0.24889140541227314  0.007519604947830798  1.0000
  C   C39       1.0  0.7043262495663926  0.7515317452662772  0.9287558456801148  1.0000
  C   C40       1.0  0.29567430873314027  0.2485156168741085  0.07122992768568544  1.0000
  C   C41       1.0  0.6551934652749267  0.648934020733961  0.9294895037385515  1.0000
  C   C42       1.0  0.34476969838795674  0.3511279787149564  0.0704976567220683  1.0000
  C   C43       1.0  0.7073476968809872  0.5454320452933247  0.9935986250090919  1.0000
  C   C44       1.0  0.29258343922195  0.4546199064484001  0.006391405631923397  1.0000
  C   C45       1.0  0.8084027752895439  0.5448066117326604  0.05743993265035391  1.0000
  C   C46       1.0  0.19154729637368473  0.45521717582359883  0.9425529718040051  1.0000
  C   C47       1.0  0.857943207103183  0.6470418423649991  0.05699358078792469  1.0000
  C   C48       1.0  0.14203189367738392  0.35297162923563974  0.9429967908572933  1.0000
  C   C49       1.0  0.9584979232508105  0.32941830894860413  0.29236758780330513  1.0000
  C   C50       1.0  0.04147897083644382  0.6705943614025359  0.7076128388693873  1.0000
  C   C51       1.0  0.9868005157125527  0.42396639544270454  0.31674844078791137  1.0000
  C   C52       1.0  0.013206335882500796  0.5760418950646198  0.6832273212574193  1.0000
  C   C53       1.0  0.9570817366779639  0.41390766211601715  0.4305596327097944  1.0000
  C   C54       1.0  0.042944751604153515  0.5860979582632313  0.5694190616158677  1.0000
  C   C55       1.0  0.8912885996497621  0.3117384726148274  0.5151946741892246  1.0000
  C   C56       1.0  0.1087478162404025  0.6882705089131208  0.4847816975166025  1.0000
  C   C57       1.0  0.8605581729694124  0.2243849700516165  0.48167284598595456  1.0000
  C   C58       1.0  0.1394604120506031  0.7756206382758963  0.5183150182951123  1.0000
  N   N1        1.0  0.9836085371447608  0.8770098578624687  0.2523626546248394  1.0000
  N   N2        1.0  0.016413509066190105  0.12298037351416721  0.7476354632331732  1.0000
  N   N3        1.0  0.6071098258633397  0.859568820215337  0.5620619601869591  1.0000
  N   N4        1.0  0.39282940137745476  0.1403930011318693  0.43792715486009826  1.0000
  N   N5        1.0  0.6129601679694617  0.9367127984721579  0.6073557224472523  1.0000
  N   N6        1.0  0.38695629331552084  0.0632432525749138  0.3926231886755858  1.0000
  N   N7        1.0  0.28803476919513565  0.902685802503669  0.9370563535683799  1.0000
  N   N8        1.0  0.7119283463693763  0.09728177127421841  0.06294501424245172  1.0000
  N   N9        1.0  0.8953816981824332  0.23124786407601056  0.37230298564225  1.0000
  N   N10       1.0  0.10460483706422252  0.7687664345398133  0.6276810256692115  1.0000
  N   N11       1.0  0.9913469699446937  0.5108367428412137  0.4518502984500331  1.0000
  N   N12       1.0  0.008697188014778617  0.48917053063321714  0.5481205109526214  1.0000
  O   O1        1.0  0.20000522782338953  0.7172798687508434  0.1475469764914763  1.0000
  O   O2        1.0  0.7999538222516237  0.28264765137146247  0.8524763010045218  1.0000
  O   O3        1.0  0.36353116659110896  0.8299674970889727  0.16418010777282185  1.0000
  O   O4        1.0  0.63643494040997  0.16999087937334423  0.8357925596247994  1.0000
  O   O5        1.0  0.935083700347306  0.8559568911910065  0.061966839343235054  1.0000
  O   O6        1.0  0.06492482396640752  0.1440460618641879  0.938048121705691  1.0000
  O   O7        1.0  0.8201746823996175  0.952818013513536  0.9266594768314673  1.0000
  O   O8        1.0  0.1798755893029593  0.047187385783473715  0.07333566515078618  1.0000
