data_image0
_chemical_formula_structural       Zn3H30C36N6O18
_chemical_formula_sum              "Zn3 H30 C36 N6 O18"
_cell_length_a       8.46240757650184
_cell_length_b       11.785774258159277
_cell_length_c       11.78582847770205
_cell_angle_alpha    120.00263285663193
_cell_angle_beta     90.02491093705461
_cell_angle_gamma    89.97529263743967

_space_group_name_H-M_alt    "P 1"
_space_group_IT_number       1

loop_
  _space_group_symop_operation_xyz
  'x, y, z'

loop_
  _atom_site_type_symbol
  _atom_site_label
  _atom_site_symmetry_multiplicity
  _atom_site_fract_x
  _atom_site_fract_y
  _atom_site_fract_z
  _atom_site_occupancy
  Zn  Zn1       1.0  1.773797869499887e-06  0.7156659746621585  0.7156693621469042  1.0000
  Zn  Zn2       1.0  0.33350995260068567  0.284317155338961  0.9999283417380621  1.0000
  Zn  Zn3       1.0  0.6664947275290275  0.9999275293938793  0.2843181989664384  1.0000
  H   H1        1.0  0.22572259322753038  0.8490296551041256  0.8600757724984687  1.0000
  H   H2        1.0  0.5592712422307001  0.1398547696278527  0.9888975281179949  1.0000
  H   H3        1.0  0.8923600537661683  0.011261354506771699  0.15122836591613253  1.0000
  H   H4        1.0  0.7742831396292615  0.8600747096596135  0.8490314851493248  1.0000
  H   H5        1.0  0.44073423325529854  0.988899941094246  0.1398551972034737  1.0000
  H   H6        1.0  0.10764184794931708  0.1512263253600281  0.011262014853286876  1.0000
  H   H7        1.0  0.1030632381236529  0.8325925148818102  0.9616521276804516  1.0000
  H   H8        1.0  0.43652542803457817  0.03831163879166869  0.8708405067044038  1.0000
  H   H9        1.0  0.7696489290608  0.12935515199247763  0.1678135679543047  1.0000
  H   H10       1.0  0.8969427045058963  0.9616517199405832  0.8325913397240821  1.0000
  H   H11       1.0  0.5634771403618614  0.8708422284754108  0.038312258343324884  1.0000
  H   H12       1.0  0.23035330573218718  0.16781297192919448  0.12935551351424115  1.0000
  H   H13       1.0  0.49520396081415907  0.39736576118397693  0.5778132163781746  1.0000
  H   H14       1.0  0.8285328682100184  0.4221955630258023  0.8196850035104003  1.0000
  H   H15       1.0  0.16165880683169576  0.18007669245417188  0.602611800966393  1.0000
  H   H16       1.0  0.5047940459050223  0.5778105257583236  0.39736706964527685  1.0000
  H   H17       1.0  0.17146343258752234  0.8196893498917319  0.42219354597284536  1.0000
  H   H18       1.0  0.8383410853312225  0.6026023815006737  0.18006762672659693  1.0000
  H   H19       1.0  0.3324958342380739  0.5975968576790437  0.7293506414306419  1.0000
  H   H20       1.0  0.6659240053844541  0.270844013370855  0.8685632207184636  1.0000
  H   H21       1.0  0.9990570587388844  0.1312474301238851  0.4023322685548435  1.0000
  H   H22       1.0  0.6674959552487749  0.7293505236981517  0.59760589987097  1.0000
  H   H23       1.0  0.33406849634287983  0.8685726554190081  0.2708465693231828  1.0000
  H   H24       1.0  0.0009398522763887999  0.40232083161041027  0.13123410723593304  1.0000
  H   H25       1.0  0.10925855006847479  0.2727230885646322  0.3052667882626564  1.0000
  H   H26       1.0  0.44251746698223116  0.6947010741066889  0.9671215939522707  1.0000
  H   H27       1.0  0.7757068966902663  0.03282447940687659  0.7276446290140013  1.0000
  H   H28       1.0  0.8907408329475359  0.30527227929768236  0.2727220011384687  1.0000
  H   H29       1.0  0.5574716024564877  0.9671309069361909  0.6947049333098002  1.0000
  H   H30       1.0  0.22429294080198753  0.7276469200088586  0.03282822838129814  1.0000
  C   C1        1.0  0.3770155789137987  0.4122163664882946  0.5509294438915828  1.0000
  C   C2        1.0  0.7103358921287677  0.44909004716996054  0.8613756387249151  1.0000
  C   C3        1.0  0.043483090346960296  0.1384055497436378  0.5877891016888126  1.0000
  C   C4        1.0  0.6229859428071832  0.5509282319203948  0.41221822507002753  1.0000
  C   C5        1.0  0.2896605780260301  0.8613833264097437  0.4490896099105084  1.0000
  C   C6        1.0  0.9565166623069743  0.5877804373387575  0.13839863343938663  1.0000
  C   C7        1.0  0.2880494418786554  0.52245667593192  0.6342540778180277  1.0000
  C   C8        1.0  0.6213747856672568  0.3658665877084033  0.888362434490524  1.0000
  C   C9        1.0  0.9545338762183633  0.1114000464679421  0.47750102253402804  1.0000
  C   C10       1.0  0.711950196143924  0.6342550542395528  0.5224614237661525  1.0000
  C   C11       1.0  0.3786168200609977  0.888370401716841  0.365871839379366  1.0000
  C   C12       1.0  0.0454678987402701  0.47749536449879315  0.11139284937907944  1.0000
  C   C13       1.0  0.31177097864684805  0.3202454583553518  0.43032992703402306  1.0000
  C   C14       1.0  0.6451113124313536  0.5696688844134102  0.8898691115684014  1.0000
  C   C15       1.0  0.9782481548116168  0.1100261567332836  0.6798836138982052  1.0000
  C   C16       1.0  0.6882300143529462  0.4303331105698475  0.3202446202248978  1.0000
  C   C17       1.0  0.354883164983029  0.8898749502207577  0.5696711368297965  1.0000
  C   C18       1.0  0.021755301317192298  0.6798827074054117  0.11002874931826764  1.0000
  C   C19       1.0  0.400896693221199  0.19791270473746178  0.3351680158677936  1.0000
  C   C20       1.0  0.7343405346829145  0.6647669392567223  0.8627049059851396  1.0000
  C   C21       1.0  0.06765478520970448  0.13710735315464007  0.8021061024523417  1.0000
  C   C22       1.0  0.5991049432839973  0.3351656669307986  0.1979081966866402  1.0000
  C   C23       1.0  0.2656612020092837  0.8627030247210995  0.6647642010770977  1.0000
  C   C24       1.0  0.9323502225489475  0.8021061387962048  0.13711119623214055  1.0000
  C   C25       1.0  0.16090485468915722  0.3429137635506692  0.3987567557719415  1.0000
  C   C26       1.0  0.49419789061537495  0.6012266881233687  0.9439180037052352  1.0000
  C   C27       1.0  0.8273550282517588  0.055937768537951606  0.657338437958735  1.0000
  C   C28       1.0  0.8390972978717385  0.39875763285544247  0.3429103845965073  1.0000
  C   C29       1.0  0.505792070358211  0.9439292705553014  0.6012287691189895  1.0000
  C   C30       1.0  0.17264823794411646  0.657339627715487  0.055942095533097785  1.0000
  C   C31       1.0  0.07952090656914382  0.45631411001062366  0.48658902901608037  1.0000
  C   C32       1.0  0.4128892503648486  0.5134847761106727  0.9696088375063209  1.0000
  C   C33       1.0  0.7460213417051873  0.0302030157561788  0.5438414722651999  1.0000
  C   C34       1.0  0.9204746546278314  0.48659412995274925  0.45631605729632696  1.0000
  C   C35       1.0  0.587105285727567  0.9696149092486479  0.5134883304309382  1.0000
  C   C36       1.0  0.25398276081475046  0.5438389429003931  0.03020207336459164  1.0000
  N   N1        1.0  0.14297645734023226  0.543814470248101  0.6028826301065845  1.0000
  N   N2        1.0  0.47635646684003063  0.39723662834803963  0.940980300180264  1.0000
  N   N3        1.0  0.8095255468383087  0.05871508406737291  0.4561752127610672  1.0000
  N   N4        1.0  0.8570196111163992  0.6028809778983871  0.5438176815524967  1.0000
  N   N5        1.0  0.5236412549527428  0.9409870305163677  0.39723914374768265  1.0000
  N   N6        1.0  0.19047486361954918  0.4561717280107303  0.058711754738041584  1.0000
  O   O1        1.0  0.1573834787702495  0.788014858058162  0.8751385872544329  1.0000
  O   O2        1.0  0.49092554417099155  0.1247970079685885  0.9127720966825306  1.0000
  O   O3        1.0  0.8239413140059285  0.08729972067303748  0.21233314120188845  1.0000
  O   O4        1.0  0.8426221398953402  0.8751349244740536  0.7880129221553668  1.0000
  O   O5        1.0  0.5090785240116346  0.9127735750716469  0.12479735739179891  1.0000
  O   O6        1.0  0.17606092676660268  0.21233156806096787  0.08729870843959016  1.0000
  O   O7        1.0  0.5316341700661836  0.17871693218725676  0.3752571463733289  1.0000
  O   O8        1.0  0.8650314176601411  0.6246078177197703  0.8034459118219031  1.0000
  O   O9        1.0  0.1984091772651553  0.19624635923405975  0.8211349776358855  1.0000
  O   O10       1.0  0.46837106285807556  0.37525620957363515  0.1787124392760404  1.0000
  O   O11       1.0  0.13497361991866086  0.8034321967907799  0.6246000506353722  1.0000
  O   O12       1.0  0.8015972076428426  0.8211368539116323  0.1962579656107264  1.0000
  O   O13       1.0  0.33748475418264684  0.1234647543796257  0.22377009884864654  1.0000
  O   O14       1.0  0.6710274194195803  0.7762193806791159  0.8996755413970372  1.0000
  O   O15       1.0  0.0043948855957723  0.10026309896055349  0.8766674489731155  1.0000
  O   O16       1.0  0.6625176042361501  0.22376616575456149  0.12346053135576074  1.0000
  O   O17       1.0  0.3289711388651426  0.8996763495886596  0.7762161483684334  1.0000
  O   O18       1.0  0.9956102161625321  0.8766679717941414  0.10026928473205016  1.0000
