data_image0
_chemical_formula_structural       Co4H44C52N4O24
_chemical_formula_sum              "Co4 H44 C52 N4 O24"
_cell_length_a       9.845325000186726
_cell_length_b       9.602164705604126
_cell_length_c       15.718176069658208
_cell_angle_alpha    99.53963096858216
_cell_angle_beta     90.02742080592094
_cell_angle_gamma    120.83022829288478

_space_group_name_H-M_alt    "P 1"
_space_group_IT_number       1

loop_
  _space_group_symop_operation_xyz
  'x, y, z'

loop_
  _atom_site_type_symbol
  _atom_site_label
  _atom_site_symmetry_multiplicity
  _atom_site_fract_x
  _atom_site_fract_y
  _atom_site_fract_z
  _atom_site_occupancy
  Co  Co1       1.0  0.21536685689424215  0.29288105387493596  0.7760218404526213  1.0000
  Co  Co2       1.0  0.9225679796613377  0.7070333891223793  0.7240112047857252  1.0000
  Co  Co3       1.0  0.7846416703186563  0.7071193266693924  0.22398005229536005  1.0000
  Co  Co4       1.0  0.07743062332598777  0.2929633955413776  0.2759883575804096  1.0000
  H   H1        1.0  0.24252518301068451  0.5115012896611688  0.6861701626495529  1.0000
  H   H2        1.0  0.730963233804829  0.48847043848814303  0.813771216615784  1.0000
  H   H3        1.0  0.7574763251794392  0.48849927525939296  0.3138285681178061  1.0000
  H   H4        1.0  0.26903352132939057  0.5115287439322245  0.1862298981351103  1.0000
  H   H5        1.0  0.18205902055907325  0.3292617314752916  0.6323877238117178  1.0000
  H   H6        1.0  0.8530315398444157  0.6705805368649108  0.8676292087362183  1.0000
  H   H7        1.0  0.8179371349810649  0.6707362521572902  0.3676126145302304  1.0000
  H   H8        1.0  0.14696752089852788  0.3294212270244826  0.13237029800696118  1.0000
  H   H9        1.0  0.06335889583419878  0.06670329264852627  0.8899918044315525  1.0000
  H   H10       1.0  0.9963979857643325  0.9333781945936861  0.6101680941966094  1.0000
  H   H11       1.0  0.936635243147343  0.9332906531315714  0.11001379101151798  1.0000
  H   H12       1.0  0.0035993871119898817  0.06662222340523268  0.3898331647692359  1.0000
  H   H13       1.0  0.17394178267267077  0.030300857895859703  0.8351798156177707  1.0000
  H   H14       1.0  0.1435063322260743  0.9695327183513949  0.664804860531504  1.0000
  H   H15       1.0  0.8260550598559033  0.9696944337143732  0.1648240277470094  1.0000
  H   H16       1.0  0.856490838994489  0.030465265220840396  0.3351954779548194  1.0000
  H   H17       1.0  0.7583526137508726  0.28290099149233316  0.7606145077168591  1.0000
  H   H18       1.0  0.4757242381985448  0.7172063052585002  0.7394617302876297  1.0000
  H   H19       1.0  0.2416394736943843  0.7170908878893768  0.23938384501797566  1.0000
  H   H20       1.0  0.5242735689121575  0.2827929506830386  0.2605381202196497  1.0000
  H   H21       1.0  0.31080988362640466  0.9575786214841313  0.6053908933224932  1.0000
  H   H22       1.0  0.3539101038626669  0.04303824644541981  0.8943601187030694  1.0000
  H   H23       1.0  0.6891937701859518  0.04242826855256247  0.3946060295992524  1.0000
  H   H24       1.0  0.6461043755942839  0.956965914174681  0.10564094287926909  1.0000
  H   H25       1.0  0.7073497364303164  0.8890432718197516  0.5643342004873091  1.0000
  H   H26       1.0  0.8187041074982204  0.11103923249088872  0.9358259541265994  1.0000
  H   H27       1.0  0.2926480397575304  0.11096201503253408  0.43566889943757287  1.0000
  H   H28       1.0  0.1813004753102161  0.8889512265739511  0.06417541724016469  1.0000
  H   H29       1.0  0.5701896027611821  0.6851981604359805  0.479555147669778  1.0000
  H   H30       1.0  0.8854314187335034  0.31492289604108237  0.020750630086823183  1.0000
  H   H31       1.0  0.4298089343256067  0.3148066265926133  0.5204351643046081  1.0000
  H   H32       1.0  0.11458264798289255  0.6850865381911007  0.9792453181762113  1.0000
  H   H33       1.0  0.39833131516506626  0.44916431848386645  0.36409221484466764  1.0000
  H   H34       1.0  0.9493616264656738  0.5508252830136725  0.1362158736564894  1.0000
  H   H35       1.0  0.6016576284155518  0.5508415943544732  0.6359001364828883  1.0000
  H   H36       1.0  0.05065247654679435  0.44918422480002806  0.8637788102185553  1.0000
  H   H37       1.0  0.17036328079214497  0.7532509716583887  0.5228782469910341  1.0000
  H   H38       1.0  0.417699364142237  0.24703141407864845  0.9768305961172813  1.0000
  H   H39       1.0  0.8296371028293663  0.246749372577966  0.47712427679592645  1.0000
  H   H40       1.0  0.5823074698308304  0.7529615160829408  0.023171063823752978  1.0000
  H   H41       1.0  0.016160693673306352  0.5128749015387937  0.4042261078667337  1.0000
  H   H42       1.0  0.5036106201286826  0.4872843102004295  0.09554107252483127  1.0000
  H   H43       1.0  0.9838317117165262  0.4871277672347458  0.5957792318267252  1.0000
  H   H44       1.0  0.49639902293381516  0.512706111771912  0.9044609317578107  1.0000
  C   C1        1.0  0.5265542026455562  0.13056753578032945  0.6871840114622927  1.0000
  C   C2        1.0  0.39638098748729084  0.8697815077048147  0.8127524712878865  1.0000
  C   C3        1.0  0.4734432428228956  0.869433029381632  0.3128147187275657  1.0000
  C   C4        1.0  0.6036239166115183  0.13022381551579798  0.18724999745363388  1.0000
  C   C5        1.0  0.6841683413394222  0.17785051270089267  0.7090041512739943  1.0000
  C   C6        1.0  0.5066518993164948  0.8223898387572105  0.7910041431009702  1.0000
  C   C7        1.0  0.31582592467834286  0.8221436906145241  0.2909970188110975  1.0000
  C   C8        1.0  0.4933482826492579  0.17760807105246096  0.20899746020647567  1.0000
  C   C9        1.0  0.4913941079913967  0.8970040668998677  0.5787744162678194  1.0000
  C   C10       1.0  0.5949601217729139  0.1033720777779408  0.9211940452532443  1.0000
  C   C11       1.0  0.5086031411944987  0.1030001683276751  0.4212253784721298  1.0000
  C   C12       1.0  0.4050405488713124  0.8966247803466344  0.07880425301364367  1.0000
  C   C13       1.0  0.7471670082190514  0.09021610692852988  0.6630227899132278  1.0000
  C   C14       1.0  0.6573439672978552  0.9100007952405988  0.8370082609198661  1.0000
  C   C15       1.0  0.2528310731395391  0.9097857306027419  0.3369754522975866  1.0000
  C   C16       1.0  0.3426570649886145  0.08999475366356081  0.1629911576644503  1.0000
  C   C17       1.0  0.4323134325735225  0.9916202168833479  0.6223513835406749  1.0000
  C   C18       1.0  0.44130737884024296  0.008867845952075012  0.877505491454684  1.0000
  C   C19       1.0  0.5676830335105691  0.008380421920477905  0.37764608211681144  1.0000
  C   C20       1.0  0.5587006267439135  0.9911375874597752  0.12249508113796989  1.0000
  C   C21       1.0  0.6520087320598121  0.9520887332905301  0.5985090742599226  1.0000
  C   C22       1.0  0.700393638180941  0.04811878313342532  0.9015366636029467  1.0000
  C   C23       1.0  0.3479864676172184  0.047915465266946504  0.4014913523852711  1.0000
  C   C24       1.0  0.29960570623891397  0.9518754198802595  0.09846450720402797  1.0000
  C   C25       1.0  0.9181279999255025  0.14382926371048646  0.6790478370559541  1.0000
  C   C26       1.0  0.7745297703112045  0.8561638758181046  0.8210051614161313  1.0000
  C   C27       1.0  0.08186321905100145  0.8561649397859766  0.3209533325960122  1.0000
  C   C28       1.0  0.22546525528711922  0.1438277826379988  0.17899698491581256  1.0000
  C   C29       1.0  0.4576649588654931  0.2252381181686829  0.7343231978348753  1.0000
  C   C30       1.0  0.2328467164371375  0.7750449044951537  0.7656053051378392  1.0000
  C   C31       1.0  0.5423307261442075  0.7747609539397542  0.26567981335362834  1.0000
  C   C32       1.0  0.7671563196331165  0.22496074996298882  0.23439147356895518  1.0000
  C   C33       1.0  0.4480953209901769  0.653638998227727  0.4667737093156745  1.0000
  C   C34       1.0  0.794903674356874  0.3465039170424403  0.03340744768193099  1.0000
  C   C35       1.0  0.5519010267766973  0.3463715622969871  0.5332242771455284  1.0000
  C   C36       1.0  0.20511195653571676  0.6535106803088409  0.9665852841325488  1.0000
  C   C37       1.0  0.3525337510793136  0.5195741139084973  0.4014678837309447  1.0000
  C   C38       1.0  0.8332502838908908  0.48049365804569527  0.0987080720378444  1.0000
  C   C39       1.0  0.6474604510653278  0.48043012150008463  0.5985319105758788  1.0000
  C   C40       1.0  0.1667632706258003  0.5195106865885531  0.901289828430137  1.0000
  C   C41       1.0  0.3891057447055387  0.7471637720312783  0.5125803031805346  1.0000
  C   C42       1.0  0.6424689806330974  0.25311234788304654  0.9874663438088049  1.0000
  C   C43       1.0  0.6108874054626199  0.25284038985612506  0.48742075536989654  1.0000
  C   C44       1.0  0.35753884144333625  0.746890687892879  0.012532676110339473  1.0000
  C   C45       1.0  0.22852846142840366  0.6915623868691367  0.4904380103955005  1.0000
  C   C46       1.0  0.5374720836895149  0.3087301805622502  0.009429169078757097  1.0000
  C   C47       1.0  0.7714633752902101  0.3084330522058707  0.5095633034714169  1.0000
  C   C48       1.0  0.46253495193931815  0.6912651840260222  0.990573411341792  1.0000
  C   C49       1.0  0.13967819775083257  0.5562598933184474  0.4241613910325767  1.0000
  C   C50       1.0  0.58377467867804  0.4439523055321003  0.07569198047549719  1.0000
  C   C51       1.0  0.8603176559643588  0.44374561439909127  0.5758379154395711  1.0000
  C   C52       1.0  0.4162365285606524  0.5560432795593397  0.9243068073585831  1.0000
  N   N1        1.0  0.20004706241035558  0.47173932414610675  0.3789502004651836  1.0000
  N   N2        1.0  0.7285667353540147  0.5283378255871085  0.12105548475728509  1.0000
  N   N3        1.0  0.7999459042500731  0.5282624401053794  0.6210493054117379  1.0000
  N   N4        1.0  0.27144365786002567  0.47166019399136855  0.8789442234119347  1.0000
  O   O1        1.0  0.2704222802585149  0.4232165105775322  0.6729632232229719  1.0000
  O   O2        1.0  0.8472117479546456  0.5765276824293649  0.8270418450647695  1.0000
  O   O3        1.0  0.7295738208375296  0.5767813626827658  0.3270390117009611  1.0000
  O   O4        1.0  0.1527856793657705  0.42347284594183066  0.1729575173190909  1.0000
  O   O5        1.0  0.1697921907789137  0.12431348899935557  0.8694985946108742  1.0000
  O   O6        1.0  0.045221105561523735  0.8756045600338355  0.630535401998749  1.0000
  O   O7        1.0  0.8301993716918118  0.8756793684859332  0.13050432755250796  1.0000
  O   O8        1.0  0.9547787510580436  0.12439473257776967  0.3694638166032789  1.0000
  O   O9        1.0  0.30656968738666995  0.1630890126761955  0.7175256696935435  1.0000
  O   O10       1.0  0.14360895946524  0.8368207879685271  0.7824647711884367  1.0000
  O   O11       1.0  0.6934256850516718  0.8369053745326767  0.282472339565949  1.0000
  O   O12       1.0  0.8563904084758603  0.16317955632817424  0.21753775245414894  1.0000
  O   O13       1.0  0.541574149857638  0.357533460581358  0.7885763951570864  1.0000
  O   O14       1.0  0.18472810194707268  0.6429100982097606  0.7112768768313771  1.0000
  O   O15       1.0  0.45842483829317615  0.6424681561449999  0.21142564036207998  1.0000
  O   O16       1.0  0.8152786533506388  0.3570969020181706  0.28871814994150913  1.0000
  O   O17       1.0  0.9829085223019761  0.20554711233579334  0.7578397861354134  1.0000
  O   O18       1.0  0.7775369104137937  0.7945154312070956  0.7422008621105078  1.0000
  O   O19       1.0  0.01708779322465387  0.7944471276496897  0.24216075204444104  1.0000
  O   O20       1.0  0.2224625301194294  0.20548506025264854  0.257799132756098  1.0000
  O   O21       1.0  0.9899056433125895  0.12648370468578207  0.6149929652857862  1.0000
  O   O22       1.0  0.8636276576429296  0.8733391358879387  0.8850660612757366  1.0000
  O   O23       1.0  0.010092329157806848  0.8735179121009222  0.3850090700890049  1.0000
  O   O24       1.0  0.1363576729626459  0.1266412554395941  0.11493731532014807  1.0000
