data_image0
_chemical_formula_structural       Zr6H22C51Cl10O32
_chemical_formula_sum              "Zr6 H22 C51 Cl10 O32"
_cell_length_a       14.80179524210988
_cell_length_b       14.784901451655323
_cell_length_c       14.851774685358821
_cell_angle_alpha    59.98933793325865
_cell_angle_beta     59.81581717938356
_cell_angle_gamma    60.2023484871899

_space_group_name_H-M_alt    "P 1"
_space_group_IT_number       1

loop_
  _space_group_symop_operation_xyz
  'x, y, z'

loop_
  _atom_site_type_symbol
  _atom_site_label
  _atom_site_symmetry_multiplicity
  _atom_site_fract_x
  _atom_site_fract_y
  _atom_site_fract_z
  _atom_site_occupancy
  Zr  Zr1       1.0  0.8773577340569929  0.8832778966896129  0.6158960151790538  1.0000
  Zr  Zr2       1.0  0.1220763262395009  0.11690429723434906  0.38261884250906064  1.0000
  Zr  Zr3       1.0  0.11582524816290608  0.8783573458812627  0.62086929149266  1.0000
  Zr  Zr4       1.0  0.8835872000228236  0.12320142104825037  0.3768760554002883  1.0000
  Zr  Zr5       1.0  0.11846913606932931  0.881376267742688  0.3797005790330772  1.0000
  Zr  Zr6       1.0  0.8800936692663726  0.11948736665053161  0.6188373375511632  1.0000
  H   H1        1.0  0.08825599570650415  0.718608975680759  0.5932898128085283  1.0000
  H   H2        1.0  0.09789276262576864  0.0953819837633745  0.21744513572777888  1.0000
  H   H3        1.0  0.09355746526085805  0.08989166736733283  0.5975684638830357  1.0000
  H   H4        1.0  0.7175154886230786  0.09855575099360446  0.5894357673612519  1.0000
  H   H5        1.0  0.15853163006946855  0.5665667908997705  0.3977870323994567  1.0000
  H   H6        1.0  0.8322770898737558  0.4444561837131288  0.5883231436537032  1.0000
  H   H7        1.0  0.6341652009478052  0.08854869670112472  0.9435552951890784  1.0000
  H   H8        1.0  0.37720798491807267  0.8965699585709217  0.06691415555471301  1.0000
  H   H9        1.0  0.8452662249272365  0.12007140547158458  0.11004329949394535  1.0000
  H   H10       1.0  0.13915991887267878  0.86639520054576  0.9029441189068949  1.0000
  H   H11       1.0  0.5906524496263755  0.4034024835569879  0.3654479030705461  1.0000
  H   H12       1.0  0.4238148237864933  0.6133436519453852  0.6163228183722538  1.0000
  H   H13       1.0  0.1380340180676782  0.5957036422581012  0.9089117997082424  1.0000
  H   H14       1.0  0.7350006611139717  0.6220538183228399  0.9782957041399314  1.0000
  H   H15       1.0  0.8181694300538567  0.536622121860155  0.8938929035743045  1.0000
  H   H16       1.0  0.8297329185432145  0.3669275705841457  0.0639462347090146  1.0000
  H   H17       1.0  0.7464767740401185  0.452279444691314  0.14850557581830523  1.0000
  H   H18       1.0  0.6005608214887841  0.8608862200468933  0.628862546921674  1.0000
  H   H19       1.0  0.4081765765132274  0.13138130392134437  0.3595783046412606  1.0000
  H   H20       1.0  0.1508427868944864  0.43116003967739397  0.1626411237179823  1.0000
  H   H21       1.0  0.2271247811258306  0.3350166560204073  0.09285444273879767  1.0000
  H   H22       1.0  0.23471510163102494  0.4717231037655196  0.021071109128286115  1.0000
  C   C1        1.0  0.9878707807859756  0.7053384207695643  0.4943540057073792  1.0000
  C   C2        1.0  0.31091397751752947  0.9956597591057772  0.20394142744188312  1.0000
  C   C3        1.0  0.004306475541824358  0.30294239824703345  0.49619479624196566  1.0000
  C   C4        1.0  0.6962232651658765  0.9955833685988438  0.8026467440650363  1.0000
  C   C5        1.0  0.9909990068157551  0.7007958572286056  0.8053530875953998  1.0000
  C   C6        1.0  0.7003770632154982  0.00590226128748843  0.4865439578455622  1.0000
  C   C7        1.0  0.002670579032425695  0.3075059680914052  0.20039806549199574  1.0000
  C   C8        1.0  0.3066640826582584  0.9879379087365268  0.5037539195257069  1.0000
  C   C9        1.0  0.3044850655259808  0.6990167533978991  0.492610816876102  1.0000
  C   C10       1.0  0.9874235852276242  0.9965245389301814  0.8103778080636489  1.0000
  C   C11       1.0  0.7045416595472246  0.3118450453889637  0.49550736039655163  1.0000
  C   C12       1.0  0.0019661869658165678  0.9956192212263274  0.1970420434413427  1.0000
  C   C13       1.0  0.004777891056470156  0.40565495409826013  0.4926951570521751  1.0000
  C   C14       1.0  0.9861387510919144  0.6049477033385032  0.49436377045076096  1.0000
  C   C15       1.0  0.09785635330825222  0.4408028491879392  0.4381040837502965  1.0000
  C   C16       1.0  0.8930694980274937  0.569912431392943  0.5486555651965405  1.0000
  C   C17       1.0  0.08689367099994173  0.5392804237018396  0.4394233909145697  1.0000
  C   C18       1.0  0.9039216825114736  0.47166455660199363  0.5469655064454528  1.0000
  C   C19       1.0  0.41367826951393727  0.9946893506955731  0.10418537018314576  1.0000
  C   C20       1.0  0.5969693919461818  0.9914894421250791  0.9057521533318251  1.0000
  C   C21       1.0  0.48750830337817763  0.04903767428367439  0.06899153137936057  1.0000
  C   C22       1.0  0.5238086898403578  0.9361178354857317  0.9414881387904187  1.0000
  C   C23       1.0  0.5769728000422845  0.04671788829525531  0.9711038010874873  1.0000
  C   C24       1.0  0.43434223808967  0.9384681305280509  0.0393911472219773  1.0000
  C   C25       1.0  0.9841550778777517  0.9974205716884725  0.9127859520977637  1.0000
  C   C26       1.0  0.0011896923506782887  0.9902209879223489  0.09906546608869607  1.0000
  C   C27       1.0  0.9000580404322706  0.06966604620633632  0.9727726299198876  1.0000
  C   C28       1.0  0.08465632404409705  0.9170643973158122  0.039898535099055686  1.0000
  C   C29       1.0  0.9100965396268774  0.06457616629548822  0.06372474597985454  1.0000
  C   C30       1.0  0.07445741794473544  0.9220431267025047  0.9491038188913735  1.0000
  C   C31       1.0  0.40896848851713946  0.6012628544650483  0.4871233020751547  1.0000
  C   C32       1.0  0.6048271015134502  0.41461907387567015  0.49555547415159407  1.0000
  C   C33       1.0  0.45791981699534995  0.5414996425913756  0.41454320336521294  1.0000
  C   C34       1.0  0.5568462794835723  0.47548028892995825  0.566879491634545  1.0000
  C   C35       1.0  0.5537334139104928  0.4504038161874816  0.4202511509153837  1.0000
  C   C36       1.0  0.4609757907762029  0.5665466866714226  0.5612665459200415  1.0000
  C   C37       1.0  0.991056346761113  0.6022853725201428  0.9070981552573656  1.0000
  C   C38       1.0  0.0022240156994257926  0.4088215597706863  0.10142939093473301  1.0000
  C   C39       1.0  0.9121929206507956  0.5496278844447815  0.9629289152928636  1.0000
  C   C40       1.0  0.08383224676919099  0.46176502673656467  0.04579720004605289  1.0000
  C   C41       1.0  0.9186049843496702  0.45589427726768145  0.05699585071242547  1.0000
  C   C42       1.0  0.07545242675436  0.5557410244229147  0.9514669768326556  1.0000
  C   C43       1.0  0.8085955902569915  0.5495878074387904  0.96531417937085  1.0000
  C   C44       1.0  0.815762191656482  0.44328540456650245  0.07185529153360902  1.0000
  C   C45       1.0  0.40915007711370815  0.9866372012862924  0.5027559561384011  1.0000
  C   C46       1.0  0.6002815675054052  0.004929562352692901  0.48502066416854467  1.0000
  C   C47       1.0  0.4648002115955877  0.9088439513500363  0.5795641970853397  1.0000
  C   C48       1.0  0.5452455203245278  0.08211874877410001  0.40759362398790705  1.0000
  C   C49       1.0  0.5578623350613086  0.919873092679751  0.5694515189089202  1.0000
  C   C50       1.0  0.45155711888426703  0.07172722525447749  0.41830880021695555  1.0000
  C   C51       1.0  0.17934491072028183  0.4227476520448903  0.08224751647451713  1.0000
  Cl  Cl1       1.0  0.22902643915070803  0.3665124203408894  0.371623797536536  1.0000
  Cl  Cl2       1.0  0.7623437271265985  0.643539560971135  0.616104317130571  1.0000
  Cl  Cl3       1.0  0.47648510674318345  0.11758952786338737  0.1418681154112491  1.0000
  Cl  Cl4       1.0  0.5348025180837938  0.867228763230443  0.8687933382362376  1.0000
  Cl  Cl5       1.0  0.7818148298530045  0.16679276774810614  0.9418812707814652  1.0000
  Cl  Cl6       1.0  0.20311553366259022  0.8200414899256712  0.07047315511935183  1.0000
  Cl  Cl7       1.0  0.4062932369025347  0.5716529167394454  0.31746792165298393  1.0000
  Cl  Cl8       1.0  0.6090569075816888  0.4455035946010995  0.6633392582242761  1.0000
  Cl  Cl9       1.0  0.4257396126007149  0.7979275155561467  0.688311742573852  1.0000
  Cl  Cl10      1.0  0.5856083835969272  0.19179994857425703  0.29758393062447663  1.0000
  O   O1        1.0  0.9134055212280144  0.7436136541617915  0.5721266574417714  1.0000
  O   O2        1.0  0.2693725093091145  0.07363013265031533  0.24196524834345473  1.0000
  O   O3        1.0  0.08124384081386891  0.26122589478008257  0.42159358650778234  1.0000
  O   O4        1.0  0.7359180710247983  0.9210623770534101  0.7607028082328569  1.0000
  O   O5        1.0  0.06934199701380817  0.7399717066120174  0.7635851155120932  1.0000
  O   O6        1.0  0.7406447432033828  0.08296367158306586  0.41246944026520554  1.0000
  O   O7        1.0  0.9260746571496338  0.26740730476433344  0.23742331858436944  1.0000
  O   O8        1.0  0.2634838490131345  0.9138223041182341  0.5808179204090607  1.0000
  O   O9        1.0  0.2621159247348857  0.7385718022026353  0.41880596151431604  1.0000
  O   O10       1.0  0.9143993466986445  0.07412688776093294  0.7671758135223071  1.0000
  O   O11       1.0  0.7425906074832225  0.26837931698894113  0.5734877810804307  1.0000
  O   O12       1.0  0.07806274795997581  0.9211418159641056  0.2372068866148068  1.0000
  O   O13       1.0  0.0652189768592919  0.9196717633177516  0.7721199460834711  1.0000
  O   O14       1.0  0.7422379359957532  0.2736310519316304  0.4185313117436778  1.0000
  O   O15       1.0  0.9266710747000174  0.07509360277767746  0.23262349779740538  1.0000
  O   O16       1.0  0.2650216273838311  0.7349111351060459  0.5717167018374881  1.0000
  O   O17       1.0  0.9154057265165391  0.7388284845060794  0.7653902485673996  1.0000
  O   O18       1.0  0.2688710168267646  0.06568579307956676  0.42693032230965844  1.0000
  O   O19       1.0  0.07798581170721526  0.2651110869517338  0.24205196951893276  1.0000
  O   O20       1.0  0.7370734710346057  0.9289923614605514  0.5643718066672038  1.0000
  O   O21       1.0  0.7339239809282461  0.07339262615879269  0.7648705101433395  1.0000
  O   O22       1.0  0.06679826757575558  0.7422250765781158  0.41860534479064887  1.0000
  O   O23       1.0  0.27037733593731184  0.9203355018387356  0.24060443229438994  1.0000
  O   O24       1.0  0.9261247967694571  0.2654959095822137  0.5733190295988777  1.0000
  O   O25       1.0  0.7977086604145355  0.07101879009667314  0.5634802818710156  1.0000
  O   O26       1.0  0.0667462345358771  0.0642404893066129  0.5699017201703427  1.0000
  O   O27       1.0  0.07035067048207108  0.06752061629644861  0.29751466060797327  1.0000
  O   O28       1.0  0.06334758413984092  0.798749909671649  0.5656946756156741  1.0000
  O   O29       1.0  0.14825257898681332  0.9484639258885895  0.45174984592086553  1.0000
  O   O30       1.0  0.9496911050400954  0.9535743211714658  0.44726022298026175  1.0000
  O   O31       1.0  0.9525410453799522  0.14874735722574428  0.4502137992594727  1.0000
  O   O32       1.0  0.9474018511707955  0.9507550729257803  0.6477289145479689  1.0000
