data_image0
_chemical_formula_structural       Co4H72C88N16O16
_chemical_formula_sum              "Co4 H72 C88 N16 O16"
_cell_length_a       7.738144314013597
_cell_length_b       18.54443729112581
_cell_length_c       18.54430572015421
_cell_angle_alpha    90.00173426247846
_cell_angle_beta     90.00020788718601
_cell_angle_gamma    90.00005347343765

_space_group_name_H-M_alt    "P 1"
_space_group_IT_number       1

loop_
  _space_group_symop_operation_xyz
  'x, y, z'

loop_
  _atom_site_type_symbol
  _atom_site_label
  _atom_site_symmetry_multiplicity
  _atom_site_fract_x
  _atom_site_fract_y
  _atom_site_fract_z
  _atom_site_occupancy
  Co  Co1       1.0  0.49995891856687535  0.7763624392155606  0.2236543648787048  1.0000
  Co  Co2       1.0  0.49999171343327475  0.22364225027297382  0.7763531302858198  1.0000
  Co  Co3       1.0  0.49998572423262994  0.2763534573276871  0.2763573176998051  1.0000
  Co  Co4       1.0  0.5000023844226646  0.7236409864427885  0.7236458633453324  1.0000
  H   H1        1.0  0.06682807657236367  0.8474291386964908  0.23615868087225783  1.0000
  H   H2        1.0  0.06680503430045087  0.15256621556559222  0.7638443829060861  1.0000
  H   H3        1.0  0.0667762124653137  0.2638515081683224  0.3474255163904659  1.0000
  H   H4        1.0  0.06677806814314378  0.7361503170134895  0.6525770081769835  1.0000
  H   H5        1.0  0.933217334468054  0.6525703514134733  0.7361443707051124  1.0000
  H   H6        1.0  0.9332201098344228  0.34743073129291707  0.2638573100452888  1.0000
  H   H7        1.0  0.9332018425772189  0.23615174323191473  0.8474363845647448  1.0000
  H   H8        1.0  0.9332511092990642  0.7638585065408919  0.15255828609796404  1.0000
  H   H9        1.0  0.6919706645495863  0.017606639879623697  0.25918223840675847  1.0000
  H   H10       1.0  0.6919867627006863  0.9823760147437283  0.7408072129581313  1.0000
  H   H11       1.0  0.6919849606510338  0.24081926529224523  0.5176277536645628  1.0000
  H   H12       1.0  0.691995728049889  0.7591790275951952  0.4823714044382683  1.0000
  H   H13       1.0  0.3080092085173263  0.482370213545096  0.7591796599516343  1.0000
  H   H14       1.0  0.3080160429552449  0.5176268519430992  0.24081999466898912  1.0000
  H   H15       1.0  0.3080109065161595  0.2591982695678396  0.017629512760279905  1.0000
  H   H16       1.0  0.30800142185258744  0.740799874024809  0.9823447971595983  1.0000
  H   H17       1.0  0.30524201971170567  0.934766220319169  0.25816370324407967  1.0000
  H   H18       1.0  0.3052392669486109  0.06524055056581801  0.7418397220658122  1.0000
  H   H19       1.0  0.30522003937584685  0.2418451982075993  0.43474812631995974  1.0000
  H   H20       1.0  0.30522635519140806  0.7581556409727028  0.5652552988737156  1.0000
  H   H21       1.0  0.694772567317571  0.5652490347854666  0.7581544770959212  1.0000
  H   H22       1.0  0.694777932242225  0.4347524947434566  0.24185061701673052  1.0000
  H   H23       1.0  0.6947626510625327  0.25815961783753494  0.9347603777356709  1.0000
  H   H24       1.0  0.6947788024202095  0.7418446079730927  0.06524849115457701  1.0000
  H   H25       1.0  0.9303174397504319  0.10445150272834522  0.2885986927837152  1.0000
  H   H26       1.0  0.9303589333505469  0.8955414900512797  0.7113943554930132  1.0000
  H   H27       1.0  0.9303680390112347  0.2114031786317696  0.6044546814909211  1.0000
  H   H28       1.0  0.9303807029016794  0.7885984421922247  0.395545377209416  1.0000
  H   H29       1.0  0.06962391987909912  0.3955445754607396  0.7885990563984323  1.0000
  H   H30       1.0  0.06963327841459227  0.6044577900967597  0.2114050902461742  1.0000
  H   H31       1.0  0.06963633616082628  0.2886126704675647  0.10446236215170761  1.0000
  H   H32       1.0  0.06958984687029357  0.7113816061764313  0.8955266853724311  1.0000
  H   H33       1.0  0.37262461981650563  0.018890798442761505  0.38441183222131775  1.0000
  H   H34       1.0  0.3726551350045638  0.9811100668768166  0.6155911559012992  1.0000
  H   H35       1.0  0.3727002657042462  0.11561402087320265  0.5188561832272711  1.0000
  H   H36       1.0  0.3727190574833514  0.8843825306010871  0.48115273667582403  1.0000
  H   H37       1.0  0.6273020643970708  0.4811399949743418  0.8843892082120135  1.0000
  H   H38       1.0  0.6273310754155971  0.5188695969555823  0.11560823429410759  1.0000
  H   H39       1.0  0.6273356735670247  0.38441164034525604  0.0188902571545668  1.0000
  H   H40       1.0  0.6273155584692488  0.6155877060750401  0.9811168916938372  1.0000
  H   H41       1.0  0.1362363667826685  0.1188802606854154  0.1676409635594709  1.0000
  H   H42       1.0  0.1362556172550029  0.8811221305871015  0.8323551953153796  1.0000
  H   H43       1.0  0.13622693561714527  0.33235757379389247  0.6188910691726051  1.0000
  H   H44       1.0  0.13618751041011729  0.6676545236988077  0.3810932263103838  1.0000
  H   H45       1.0  0.8637608033841884  0.3811159310570887  0.6676426332460039  1.0000
  H   H46       1.0  0.863720845316031  0.6188689475729846  0.33237404093206646  1.0000
  H   H47       1.0  0.8637336266532356  0.16764954472980523  0.1188747221702258  1.0000
  H   H48       1.0  0.8637260529057187  0.832349354044389  0.8811268532288353  1.0000
  H   H49       1.0  0.32549359655757115  0.169832194919934  0.1472194365360266  1.0000
  H   H50       1.0  0.32550644848801363  0.8301691913046768  0.8527797054050268  1.0000
  H   H51       1.0  0.3254831488028102  0.3527709719681981  0.6698494821297131  1.0000
  H   H52       1.0  0.32546132738768546  0.6472261003814453  0.330156130693041  1.0000
  H   H53       1.0  0.6745176115505771  0.3301493584819681  0.6472316796456994  1.0000
  H   H54       1.0  0.6744986219901035  0.6698553985926952  0.3527690698059375  1.0000
  H   H55       1.0  0.6744894867789172  0.14722474710251282  0.169833308733665  1.0000
  H   H56       1.0  0.6744789316936846  0.8527751568207763  0.8301717546010111  1.0000
  H   H57       1.0  0.15702452584409338  0.21070015290447944  0.1967100519485996  1.0000
  H   H58       1.0  0.15703814840480126  0.7893017072251285  0.803288834666219  1.0000
  H   H59       1.0  0.15701393910625677  0.3032726170110677  0.7107053519564772  1.0000
  H   H60       1.0  0.15703968902149507  0.6967427241096757  0.2892843676209651  1.0000
  H   H61       1.0  0.8430013274679097  0.2893001543834047  0.6967245491574303  1.0000
  H   H62       1.0  0.8430298148972211  0.7106890301950204  0.3032937114216097  1.0000
  H   H63       1.0  0.84296422057281  0.19671571088544942  0.2106963245339983  1.0000
  H   H64       1.0  0.8429428609846283  0.8032777874188499  0.7893079155399434  1.0000
  H   H65       1.0  0.5878055446412204  0.1396537389909014  0.3844262256910014  1.0000
  H   H66       1.0  0.5878086501343134  0.8603412779442295  0.6155679212188973  1.0000
  H   H67       1.0  0.5878234258898373  0.1155803003257958  0.6396373571208684  1.0000
  H   H68       1.0  0.5878889837540624  0.8844012359211249  0.36038483061216203  1.0000
  H   H69       1.0  0.4121999700596817  0.3603522500162128  0.8844314355812131  1.0000
  H   H70       1.0  0.4122563902475632  0.6396648077462573  0.115553817567033  1.0000
  H   H71       1.0  0.41217867033140715  0.38443283916102194  0.1396570853337664  1.0000
  H   H72       1.0  0.4121549216050866  0.6155691200529745  0.8603508159547532  1.0000
  C   C1        1.0  0.7235359276145418  0.8742377950937268  0.23290144125563472  1.0000
  C   C2        1.0  0.7235128534129627  0.1257389403114716  0.7671042353034566  1.0000
  C   C3        1.0  0.7234957984445031  0.2671128577363931  0.3742590981792944  1.0000
  C   C4        1.0  0.723490952164525  0.73288221177544  0.6257320188848112  1.0000
  C   C5        1.0  0.2764926551894504  0.6257384087907525  0.7328815491983605  1.0000
  C   C6        1.0  0.2765084421601002  0.3742694293971667  0.2671191363233518  1.0000
  C   C7        1.0  0.2764979972873718  0.2328912059327379  0.8742737255693882  1.0000
  C   C8        1.0  0.27654057663063  0.767120945800194  0.1256989190932813  1.0000
  C   C9        1.0  0.8646603183941861  0.9273768668869308  0.24600286984336614  1.0000
  C   C10       1.0  0.8646680262191567  0.07261070808275602  0.7539976283022158  1.0000
  C   C11       1.0  0.8646500115610395  0.25400841149546244  0.4273879842518085  1.0000
  C   C12       1.0  0.8646563639730543  0.7459921053481651  0.5726119748239071  1.0000
  C   C13       1.0  0.13534253224654688  0.5726094400203293  0.7459865480641028  1.0000
  C   C14       1.0  0.1353466940018109  0.42739187244470156  0.2540117664246466  1.0000
  C   C15       1.0  0.13533519953215736  0.24600157415589063  0.9273957842075616  1.0000
  C   C16       1.0  0.13535661126398682  0.7540083660216937  0.0725885099373542  1.0000
  C   C17       1.0  0.036897238569523  0.9037647900338968  0.2470652844115051  1.0000
  C   C18       1.0  0.0368946518166808  0.09623109184431661  0.7529361162794714  1.0000
  C   C19       1.0  0.0368765114427347  0.252943962524526  0.4037628381768741  1.0000
  C   C20       1.0  0.03688048686667139  0.7470583902982568  0.5962391018346835  1.0000
  C   C21       1.0  0.9631133751229867  0.5962334124743834  0.747052010594615  1.0000
  C   C22       1.0  0.9631200591749688  0.40376768181972283  0.2529491762206746  1.0000
  C   C23       1.0  0.9631084944462881  0.24706369032382716  0.903772464150542  1.0000
  C   C24       1.0  0.9631430320238579  0.7529460317919431  0.09622171257085908  1.0000
  C   C25       1.0  0.826427947374796  5.801227796100001e-05  0.2595115559059309  1.0000
  C   C26       1.0  0.826446666701713  0.999929547759415  0.7404818740640948  1.0000
  C   C27       1.0  0.8264357236324995  0.240492782246605  0.5000693609619873  1.0000
  C   C28       1.0  0.8264453519817893  0.7595077197681521  0.499930000948801  1.0000
  C   C29       1.0  0.17355839004427048  0.4999290967156187  0.7595049910089386  1.0000
  C   C30       1.0  0.17356259762197374  0.5000727698247901  0.2404939206577907  1.0000
  C   C31       1.0  0.17355352954280073  0.2595193680276182  7.68578180654e-05  1.0000
  C   C32       1.0  0.17355324275933276  0.7404830375104724  0.999905876373319  1.0000
  C   C33       1.0  0.1706012409500559  0.9521536510920262  0.260314928984414  1.0000
  C   C34       1.0  0.1706087688237474  0.047847675073164515  0.7396850566929345  1.0000
  C   C35       1.0  0.17059481245990324  0.23969115050258702  0.45214147112714903  1.0000
  C   C36       1.0  0.17060098203651813  0.7603128719351347  0.5478617500747802  1.0000
  C   C37       1.0  0.8293965648728231  0.5478557374533256  0.7603075374977308  1.0000
  C   C38       1.0  0.8294006578553946  0.4521474619921761  0.239695603680822  1.0000
  C   C39       1.0  0.8293944905621443  0.2603163490054215  0.9521545310778379  1.0000
  C   C40       1.0  0.8294066090651665  0.7396873896860895  0.04784861011181361  1.0000
  C   C41       1.0  0.9588926453346358  0.0484571563376477  0.2752444417589643  1.0000
  C   C42       1.0  0.9589162885091086  0.9515358475458414  0.7247502675606512  1.0000
  C   C43       1.0  0.9589172912861411  0.2247578241764218  0.5484576618928969  1.0000
  C   C44       1.0  0.9589265346783334  0.7752448862102174  0.45154244009096794  1.0000
  C   C45       1.0  0.04107702887836949  0.4515406745862054  0.7752421430020036  1.0000
  C   C46       1.0  0.041083793060188584  0.5484611406373432  0.2247608818680789  1.0000
  C   C47       1.0  0.04107884370306889  0.2752520160707022  0.04846866970132171  1.0000
  C   C48       1.0  0.0410638859873842  0.7247465634982009  0.9515224916260792  1.0000
  C   C49       1.0  0.1301590417631288  0.024093889798663802  0.2749296020446366  1.0000
  C   C50       1.0  0.1301762809259017  0.9759063421924453  0.7250703223287758  1.0000
  C   C51       1.0  0.13017327253471217  0.2250765277457205  0.5240808227829491  1.0000
  C   C52       1.0  0.13018014236677536  0.7749285575052484  0.4759223371721646  1.0000
  C   C53       1.0  0.8698209681108936  0.47591687343242484  0.774923904487153  1.0000
  C   C54       1.0  0.869825095719726  0.5240858024789857  0.22508145494763454  1.0000
  C   C55       1.0  0.8698200661318581  0.27493149622266344  0.024095773216068  1.0000
  C   C56       1.0  0.869809197784143  0.7250690226391399  0.9759052721806185  1.0000
  C   C57       1.0  0.3803033622314088  0.06529501698763342  0.34911275560037325  1.0000
  C   C58       1.0  0.3803302028957772  0.9347047727862478  0.6508880871448213  1.0000
  C   C59       1.0  0.3803470430297151  0.1509023956854989  0.5652698923452206  1.0000
  C   C60       1.0  0.38036793698847754  0.8490946979676085  0.43473688216086975  1.0000
  C   C61       1.0  0.6196591998018731  0.4347239232843166  0.8491032749260086  1.0000
  C   C62       1.0  0.6196718216867152  0.5652824302636932  0.15089793067868842  1.0000
  C   C63       1.0  0.6196634533619374  0.3491171208394803  0.0652958761955134  1.0000
  C   C64       1.0  0.6196391375609877  0.650884918838834  0.9347118003114403  1.0000
  C   C65       1.0  0.3077158670098683  0.1355060260167562  0.2561693291345364  1.0000
  C   C66       1.0  0.3077343111815124  0.8644905000983345  0.7438292465439461  1.0000
  C   C67       1.0  0.3077163438093961  0.24382726706053864  0.6355019667696736  1.0000
  C   C68       1.0  0.30772866521392217  0.756170876887275  0.36450307991847103  1.0000
  C   C69       1.0  0.6922885336427811  0.3644928454152279  0.7561761674683822  1.0000
  C   C70       1.0  0.6923008281481627  0.635512997089258  0.24382730520268586  1.0000
  C   C71       1.0  0.6922585781338739  0.25617388366256216  0.1355090701974504  1.0000
  C   C72       1.0  0.6922338612110719  0.7438276449344557  0.8644992555767033  1.0000
  C   C73       1.0  0.22576830286246966  0.15971655295314247  0.1880899749676246  1.0000
  C   C74       1.0  0.22578340710881403  0.8402842553565364  0.8119095550704857  1.0000
  C   C75       1.0  0.22575372219026948  0.3119019399814817  0.6597227685965521  1.0000
  C   C76       1.0  0.22574888039041946  0.6881047999594615  0.3402729867504775  1.0000
  C   C77       1.0  0.7742458448443228  0.3402781008634577  0.6880978223693789  1.0000
  C   C78       1.0  0.774239400596201  0.6597175278704411  0.31191278458670274  1.0000
  C   C79       1.0  0.7742097793704658  0.18809401194065603  0.1597149936433766  1.0000
  C   C80       1.0  0.7741940511820002  0.8119048521674304  0.8402902208090666  1.0000
  C   C81       1.0  0.4851205425663208  0.12471229432220814  0.3476750177020236  1.0000
  C   C82       1.0  0.4851330469477374  0.875283761311728  0.6523211305963059  1.0000
  C   C83       1.0  0.48513728429976755  0.1523306976336372  0.6246990179344536  1.0000
  C   C84       1.0  0.48517962796196906  0.8476588873468814  0.3753154647830216  1.0000
  C   C85       1.0  0.5148807760037285  0.37529366074362974  0.8476781392335582  1.0000
  C   C86       1.0  0.514907759021547  0.6247169660414045  0.15231697590309784  1.0000
  C   C87       1.0  0.5148582206552277  0.3476825288907791  0.1247156323891474  1.0000
  C   C88       1.0  0.5148333919525924  0.6523200093841837  0.8752918852807313  1.0000
  N   N1        1.0  0.26704857755505157  0.07303552851089282  0.2915252980066256  1.0000
  N   N2        1.0  0.26707848564936393  0.9269658350982015  0.7084769908614988  1.0000
  N   N3        1.0  0.26708096738065007  0.20848471809927102  0.5730169911764378  1.0000
  N   N4        1.0  0.26709003400724646  0.7915171847636061  0.42698529773314686  1.0000
  N   N5        1.0  0.7329186534727156  0.4269795117337837  0.7915179116275723  1.0000
  N   N6        1.0  0.7329253314618923  0.5730252680700404  0.20848777959908202  1.0000
  N   N7        1.0  0.7329153809645701  0.29152694411436647  0.07303493262747202  1.0000
  N   N8        1.0  0.7328911272874234  0.7084740609898147  0.9269723762609274  1.0000
  N   N9        1.0  0.4390007569861608  0.1681805143698512  0.2901188888993644  1.0000
  N   N10       1.0  0.43900720216902295  0.8318139056233207  0.7098761109716705  1.0000
  N   N11       1.0  0.4389895227613393  0.2098763659922014  0.668183282826476  1.0000
  N   N12       1.0  0.4390248979731409  0.7901137403420648  0.33183166920053253  1.0000
  N   N13       1.0  0.5610271999579906  0.3318091390846548  0.790131010105732  1.0000
  N   N14       1.0  0.5610521959035922  0.668196652414892  0.2098657926436545  1.0000
  N   N15       1.0  0.5609843907368697  0.2901268523625262  0.1681858224877217  1.0000
  N   N16       1.0  0.560960606020295  0.709875703802588  0.8318217650926699  1.0000
  O   O1        1.0  0.5694640682182237  0.8940294794026966  0.2193707858451361  1.0000
  O   O2        1.0  0.5694514053877455  0.10593371482260491  0.780615244036241  1.0000
  O   O3        1.0  0.5694305382676245  0.2806212214831376  0.394064187230498  1.0000
  O   O4        1.0  0.5694241973024742  0.7193905047552747  0.6059186078448137  1.0000
  O   O5        1.0  0.4305592279602663  0.6059355304188473  0.7193769512626318  1.0000
  O   O6        1.0  0.4305764689626059  0.3940815344892671  0.2806104866779293  1.0000
  O   O7        1.0  0.4305608449288555  0.21939206966476382  0.8940845711197555  1.0000
  O   O8        1.0  0.430604574731177  0.7805883261875196  0.1058775215810925  1.0000
  O   O9        1.0  0.7594786012394933  0.8067502606225859  0.2383172042278687  1.0000
  O   O10       1.0  0.7594388318219386  0.19323296012802874  0.7617192640900967  1.0000
  O   O11       1.0  0.7594382251603449  0.26172694002166713  0.3067650099384096  1.0000
  O   O12       1.0  0.7594210542407465  0.7382476521895073  0.6932315537721792  1.0000
  O   O13       1.0  0.2405474438639885  0.6932325776060682  0.7382626316228169  1.0000
  O   O14       1.0  0.24056820175853486  0.3067720113902937  0.2617525590998966  1.0000
  O   O15       1.0  0.24057953795838927  0.238258903269589  0.8067738138813851  1.0000
  O   O16       1.0  0.2406239839207487  0.7617861286000649  0.19320578708000366  1.0000
