data_image0
_chemical_formula_structural       Cu4H20C24I4N4O8
_chemical_formula_sum              "Cu4 H20 C24 I4 N4 O8"
_cell_length_a       4.019622112000553
_cell_length_b       13.995417959613336
_cell_length_c       14.418685115178082
_cell_angle_alpha    105.42542825009998
_cell_angle_beta     89.99997271051585
_cell_angle_gamma    90.00000006852436

_space_group_name_H-M_alt    "P 1"
_space_group_IT_number       1

loop_
  _space_group_symop_operation_xyz
  'x, y, z'

loop_
  _atom_site_type_symbol
  _atom_site_label
  _atom_site_symmetry_multiplicity
  _atom_site_fract_x
  _atom_site_fract_y
  _atom_site_fract_z
  _atom_site_occupancy
  Cu  Cu1       1.0  0.33810597963479677  0.7319472384065407  0.4346981887360357  1.0000
  Cu  Cu2       1.0  0.8381007375093076  0.7680443518357407  0.5652898417420005  1.0000
  Cu  Cu3       1.0  0.6618805332729423  0.2680577857170475  0.5653010413888921  1.0000
  Cu  Cu4       1.0  0.16186836083615933  0.23194586187488397  0.4347090843689543  1.0000
  H   H1        1.0  0.6603899450814054  0.7422299642501783  0.09413126578999705  1.0000
  H   H2        1.0  0.1603903264364845  0.7577712303574488  0.9058530202534172  1.0000
  H   H3        1.0  0.3396040312079762  0.25778468733614796  0.9058683355087283  1.0000
  H   H4        1.0  0.8396434546072696  0.24221524394952346  0.09413663094272101  1.0000
  H   H5        1.0  0.6063550877281116  0.668017068094173  0.23342248353421982  1.0000
  H   H6        1.0  0.10635532351795259  0.8319796717126663  0.7665592965875518  1.0000
  H   H7        1.0  0.39362893737934695  0.33199387463947255  0.766575479684164  1.0000
  H   H8        1.0  0.8936336771951261  0.16801052255593157  0.2334347697235231  1.0000
  H   H9        1.0  0.06291331687670271  0.9086604625930049  0.3910862338198342  1.0000
  H   H10       1.0  0.5629456465889575  0.5913229865441566  0.608905351610737  1.0000
  H   H11       1.0  0.9370930983981223  0.09134829538080419  0.6089208826945764  1.0000
  H   H12       1.0  0.43704832971941704  0.4086642761943224  0.3910962907203483  1.0000
  H   H13       1.0  0.09528195268524088  0.993089107095777  0.2592896517009962  1.0000
  H   H14       1.0  0.595306976118266  0.5069032627902317  0.7407104381267758  1.0000
  H   H15       1.0  0.9047070480149911  0.006923359730222998  0.7407191028976001  1.0000
  H   H16       1.0  0.40471685374684796  0.49307732623626777  0.2592888110583687  1.0000
  H   H17       1.0  0.6300662135398625  0.9251561240487903  0.9684716802259814  1.0000
  H   H18       1.0  0.1301188096653192  0.5748465768895699  0.03151924017049623  1.0000
  H   H19       1.0  0.36991532376639197  0.07486372715226958  0.03153201945642079  1.0000
  H   H20       1.0  0.8699199469692401  0.4251436312673462  0.9684782974172208  1.0000
  C   C1        1.0  0.4238302673728214  0.9280748269095013  0.09112462170315891  1.0000
  C   C2        1.0  0.9238602312637524  0.5719412237538606  0.908868919672905  1.0000
  C   C3        1.0  0.5761413187503023  0.07194354463885588  0.9088793947073555  1.0000
  C   C4        1.0  0.07616359859737536  0.4280445371127612  0.09112748532689352  1.0000
  C   C5        1.0  0.3828140224511642  0.8744914342549776  0.16626467287314028  1.0000
  C   C6        1.0  0.882814035801573  0.6254994358329995  0.8337280160749218  1.0000
  C   C7        1.0  0.6171749782494018  0.12551878115117177  0.8337365728631738  1.0000
  C   C8        1.0  0.11718989169487769  0.3744803925357516  0.1662661845509277  1.0000
  C   C9        1.0  0.5238671452068927  0.7809891281829094  0.15830490650881757  1.0000
  C   C10       1.0  0.0238725345752329  0.7190172416559263  0.84167865647661  1.0000
  C   C11       1.0  0.4761243432856261  0.21902851603822882  0.8417023924175311  1.0000
  C   C12       1.0  0.9761662220568823  0.28097591747359024  0.15831616488748076  1.0000
  C   C13       1.0  0.4945410459393997  0.7395474292709993  0.2353892532488047  1.0000
  C   C14       1.0  0.9945483166269042  0.7604434143087674  0.7645957674830585  1.0000
  C   C15       1.0  0.505457905941853  0.2604672167604534  0.7646089595357708  1.0000
  C   C16       1.0  0.0054531230720016  0.23953788260252645  0.2353953393895125  1.0000
  C   C17       1.0  0.190965167981183  0.8739170320943117  0.3238211450006787  1.0000
  C   C18       1.0  0.6909701059767386  0.6260619910520832  0.6761734374062202  1.0000
  C   C19       1.0  0.8090412472917164  0.12609318331215036  0.6761801007331982  1.0000
  C   C20       1.0  0.30901889474408517  0.3739178539812967  0.323824928762086  1.0000
  C   C21       1.0  0.20980271602991252  0.9207221865035606  0.2503296964617832  1.0000
  C   C22       1.0  0.7098351070039328  0.5792753177055444  0.7496571031525788  1.0000
  C   C23       1.0  0.7901788212827652  0.0792895418847834  0.7496795636295843  1.0000
  C   C24       1.0  0.29020613742810036  0.4207126668064022  0.2503398681397826  1.0000
  I   I1        1.0  0.8386879437384209  0.6074839935660493  0.4200506234675956  1.0000
  I   I2        1.0  0.3386880375471862  0.8925090902373398  0.5799405614030918  1.0000
  I   I3        1.0  0.1613060325591178  0.3925165527153353  0.5799398372422716  1.0000
  I   I4        1.0  0.6612860363879846  0.10748708930069029  0.4200689001646367  1.0000
  N   N1        1.0  0.3357872985585432  0.7855675931844461  0.3178991098802087  1.0000
  N   N2        1.0  0.8357946057354936  0.7144217622191957  0.6820855779256121  1.0000
  N   N3        1.0  0.6642066777325509  0.21444559541426134  0.682104973685604  1.0000
  N   N4        1.0  0.1642043461614762  0.28556993114448653  0.3179130314544309  1.0000
  O   O1        1.0  0.5964236262894858  0.8803838336317326  0.014819585580632075  1.0000
  O   O2        1.0  0.09646153826241027  0.6196107238335599  0.9851720448821125  1.0000
  O   O3        1.0  0.403567862202486  0.11963379670198288  0.9851842420620825  1.0000
  O   O4        1.0  0.9035747305764302  0.38037949265576276  0.014827575476132903  1.0000
  O   O5        1.0  0.3055361911205452  0.012941324356439996  0.10205715141304239  1.0000
  O   O6        1.0  0.8055431952241747  0.4870452693804523  0.8979458153581845  1.0000
  O   O7        1.0  0.6944130048462324  0.9870644465364505  0.8979436559955758  1.0000
  O   O8        1.0  0.1944980492060182  0.51294643509393  0.1020555710428255  1.0000
