data_image0
_chemical_formula_structural       Cu4H28C48S4N8
_chemical_formula_sum              "Cu4 H28 C48 S4 N8"
_cell_length_a       3.777082664493833
_cell_length_b       12.730647871408461
_cell_length_c       19.03266006500259
_cell_angle_alpha    90.0000409657095
_cell_angle_beta     89.99994568517023
_cell_angle_gamma    93.85123578254624

_space_group_name_H-M_alt    "P 1"
_space_group_IT_number       1

loop_
  _space_group_symop_operation_xyz
  'x, y, z'

loop_
  _atom_site_type_symbol
  _atom_site_label
  _atom_site_symmetry_multiplicity
  _atom_site_fract_x
  _atom_site_fract_y
  _atom_site_fract_z
  _atom_site_occupancy
  Cu  Cu1       1.0  0.5843249058231168  0.025438793932451596  0.42759282234104745  1.0000
  Cu  Cu2       1.0  0.4156595948474972  0.47455994279864905  0.9275918868084644  1.0000
  Cu  Cu3       1.0  0.4156781579311398  0.9745540817130731  0.5724051758349304  1.0000
  Cu  Cu4       1.0  0.5843354140646255  0.525443958159883  0.0724050605455702  1.0000
  H   H1        1.0  0.28463501525908436  0.027449009907798  0.2660237442905497  1.0000
  H   H2        1.0  0.715350775009597  0.4725526989571946  0.7660243155946629  1.0000
  H   H3        1.0  0.715380086246732  0.9725501606577893  0.7339732030601523  1.0000
  H   H4        1.0  0.2846491665276076  0.5274496257622799  0.2339742079963614  1.0000
  H   H5        1.0  0.23130822367573964  0.16788721734417314  0.17440915671050308  1.0000
  H   H6        1.0  0.7686752398583395  0.332114391992441  0.6744091292973095  1.0000
  H   H7        1.0  0.7686837757934342  0.8321151098859328  0.8255909431193231  1.0000
  H   H8        1.0  0.2313215111975069  0.6678855717143646  0.32559097053145075  1.0000
  H   H9        1.0  0.49601398739827124  0.34935329668164156  0.19794449932270197  1.0000
  H   H10       1.0  0.5039692127309295  0.1506475511542007  0.6979434026472475  1.0000
  H   H11       1.0  0.5039674226441166  0.6506490338968263  0.8020592783967472  1.0000
  H   H12       1.0  0.4960402319750089  0.8493500465201153  0.3020577480048132  1.0000
  H   H13       1.0  0.8276692350278408  0.4739601366758066  0.28373123584502474  1.0000
  H   H14       1.0  0.17232690165463543  0.0260408009567072  0.783729109956738  1.0000
  H   H15       1.0  0.1723303444178299  0.5260406134798004  0.7162725418720013  1.0000
  H   H16       1.0  0.8276860956104102  0.9739607322984724  0.21627309152103175  1.0000
  H   H17       1.0  0.1360674616344468  0.5017821252675603  0.39808422763405094  1.0000
  H   H18       1.0  0.8639137454619785  0.9982186432782285  0.8980826744854224  1.0000
  H   H19       1.0  0.8639285652502836  0.4982146893077654  0.6019195500825275  1.0000
  H   H20       1.0  0.13607879712887444  0.0017860458025679997  0.10191847617011257  1.0000
  H   H21       1.0  0.3092506329328727  0.4287394164231058  0.5176712592371189  1.0000
  H   H22       1.0  0.690720142355403  0.071262025388279  0.0176706141411884  1.0000
  H   H23       1.0  0.6907600107978739  0.5712518821479264  0.48233041682606625  1.0000
  H   H24       1.0  0.30924208030742045  0.9287489719974148  0.9823284348686626  1.0000
  H   H25       1.0  0.2711420166974606  0.2768467363991149  0.6008887101098637  1.0000
  H   H26       1.0  0.7288492841148794  0.2231532153189235  0.10088917321822777  1.0000
  H   H27       1.0  0.7288707312713001  0.723142199483199  0.39910928806415297  1.0000
  H   H28       1.0  0.2711157669478794  0.7768585685124092  0.8991077741409438  1.0000
  C   C1        1.0  0.3921577104575036  0.10794029496793198  0.27513755700788056  1.0000
  C   C2        1.0  0.6078278668739046  0.39206063659823776  0.7751386432850538  1.0000
  C   C3        1.0  0.6078520963362947  0.8920588772714093  0.7248604411686939  1.0000
  C   C4        1.0  0.3921770072892982  0.6079401118818878  0.22486093113032263  1.0000
  C   C5        1.0  0.3657833836381741  0.1865661334879505  0.22396606475752626  1.0000
  C   C6        1.0  0.6341993633393626  0.3134331682889027  0.7239665853775106  1.0000
  C   C7        1.0  0.634216195814851  0.8134346166653542  0.776033509658454  1.0000
  C   C8        1.0  0.36580250138548825  0.6865660064613548  0.27603351445049634  1.0000
  C   C9        1.0  0.5095323258347478  0.2875388738082875  0.23740244750470646  1.0000
  C   C10       1.0  0.4904562119537914  0.2124628028651898  0.7374029570561618  1.0000
  C   C11       1.0  0.49046195890441874  0.7124618780193471  0.7625992285624007  1.0000
  C   C12       1.0  0.5095509474775639  0.787536370213047  0.26259924442176436  1.0000
  C   C13       1.0  0.6751595326231055  0.30943447602670904  0.30284572900141166  1.0000
  C   C14       1.0  0.324831242452241  0.1905664842199712  0.8028452160716383  1.0000
  C   C15       1.0  0.3248447984147517  0.6905639106038775  0.6971548962387712  1.0000
  C   C16       1.0  0.6751789264183825  0.8094342625878426  0.19715593458101915  1.0000
  C   C17       1.0  0.6815666529122738  0.22526183300767844  0.35186092889009046  1.0000
  C   C18       1.0  0.31842623589854924  0.2747376055325788  0.8518609794648738  1.0000
  C   C19       1.0  0.3184426107561791  0.774734977382117  0.6481381201112979  1.0000
  C   C20       1.0  0.6815814666572352  0.7252639293954816  0.14814069660086904  1.0000
  C   C21       1.0  0.836128097575859  0.41009628956818034  0.3216292340580935  1.0000
  C   C22       1.0  0.16386243072254564  0.08990390397262617  0.8216287141325223  1.0000
  C   C23       1.0  0.16387888081340657  0.5899020962269645  0.6783734928323141  1.0000
  C   C24       1.0  0.8361479191883274  0.9100976301188551  0.1783729619329151  1.0000
  C   C25       1.0  0.002749375679364582  0.4255262213478018  0.38525259901033587  1.0000
  C   C26       1.0  0.9972305215822106  0.0744748325220357  0.8852508309865995  1.0000
  C   C27       1.0  0.9972517648762108  0.5744698042704001  0.6147501278802279  1.0000
  C   C28       1.0  0.002761477883289764  0.9255274947092217  0.11475137049374948  1.0000
  C   C29       1.0  0.006693224097972474  0.34324869916091666  0.4360415926352772  1.0000
  C   C30       1.0  0.9932859522960699  0.1567500484986368  0.9360398613157128  1.0000
  C   C31       1.0  0.9933154964432874  0.6567457493799154  0.5639595580161796  1.0000
  C   C32       1.0  0.006701476628528263  0.8432554295378479  0.0639597131026832  1.0000
  C   C33       1.0  0.8363397311158494  0.24325801952289075  0.4201692858562679  1.0000
  C   C34       1.0  0.1636502712850785  0.2567414946861247  0.920168838578135  1.0000
  C   C35       1.0  0.16367410309625535  0.7567356400608101  0.5798308139691668  1.0000
  C   C36       1.0  0.8363503944158878  0.743263979167132  0.07983021042611678  1.0000
  C   C37       1.0  0.16966590757286326  0.3541648893094163  0.503057957463909  1.0000
  C   C38       1.0  0.8303126798819422  0.14583574669953947  0.0030567874877575995  1.0000
  C   C39       1.0  0.830345279283236  0.6458287711111623  0.4969426677744622  1.0000
  C   C40       1.0  0.1696595890786483  0.8541728854893974  0.9969417361077999  1.0000
  C   C41       1.0  0.1485888958796195  0.27076386296018734  0.5491618492742559  1.0000
  C   C42       1.0  0.8513997575635911  0.22923524564350828  0.0491617615941138  1.0000
  C   C43       1.0  0.8514215668145512  0.7292266483260335  0.45083719972561903  1.0000
  C   C44       1.0  0.1485755208362604  0.7707749602750125  0.9508357111761825  1.0000
  C   C45       1.0  0.9598518329963498  0.17423147964799313  0.5305279765608546  1.0000
  C   C46       1.0  0.04014711299476661  0.3257660306297154  0.030529167213231293  1.0000
  C   C47       1.0  0.04015862969966826  0.825759031637652  0.46947002161376616  1.0000
  C   C48       1.0  0.959840678014011  0.674241021972939  0.9694693563802017  1.0000
  S   S1        1.0  0.9196957469844805  0.071461612777135  0.5901685973638775  1.0000
  S   S2        1.0  0.0803160460201724  0.42853517137084646  0.0901692981399052  1.0000
  S   S3        1.0  0.0803069546874297  0.928529688301651  0.4098294008117945  1.0000
  S   S4        1.0  0.9196821533687114  0.5714710906017898  0.9098287000395403  1.0000
  N   N1        1.0  0.5471565755500549  0.1260663179454014  0.337262858134693  1.0000
  N   N2        1.0  0.45283371699386527  0.3739331054391285  0.8372629211402226  1.0000
  N   N3        1.0  0.4528578017892357  0.8739297034872704  0.6627351400406738  1.0000
  N   N4        1.0  0.5471768139636949  0.6260692159339952  0.1627356024495796  1.0000
  N   N5        1.0  0.8076281387232741  0.16218678472296938  0.4666125956060155  1.0000
  N   N6        1.0  0.19236133905877753  0.3378112057986797  0.9666127024529485  1.0000
  N   N7        1.0  0.19238286709716584  0.8378060884125059  0.5333848771564149  1.0000
  N   N8        1.0  0.8076283751404107  0.6621926968338911  0.0333858211395821  1.0000
