data_image0
_chemical_formula_structural       Zn4H52C56N8O20
_chemical_formula_sum              "Zn4 H52 C56 N8 O20"
_cell_length_a       7.833010830792418
_cell_length_b       12.020256888
_cell_length_c       15.794
_cell_angle_alpha    90.0
_cell_angle_beta     98.18278130841743
_cell_angle_gamma    90.0

_space_group_name_H-M_alt    "P 1"
_space_group_IT_number       1

loop_
  _space_group_symop_operation_xyz
  'x, y, z'

loop_
  _atom_site_type_symbol
  _atom_site_label
  _atom_site_symmetry_multiplicity
  _atom_site_fract_x
  _atom_site_fract_y
  _atom_site_fract_z
  _atom_site_occupancy
  Zn  Zn1       1.0  0.4983566058639467  0.8106041402265944  0.24838608371356224  1.0000
  Zn  Zn2       1.0  0.5016455435535647  0.3106048427074199  0.25161368812075574  1.0000
  Zn  Zn3       1.0  0.501641674215108  0.1893961186697055  0.7516140481395224  1.0000
  Zn  Zn4       1.0  0.4983578956434371  0.6893970800468308  0.7483868079097461  1.0000
  H   H1        1.0  0.3505001549131563  0.6399630283841589  0.3165048128852844  1.0000
  H   H2        1.0  0.6494981251658984  0.1399628989360053  0.18349595211962816  1.0000
  H   H3        1.0  0.6495032842838453  0.360039726299064  0.6834994820561915  1.0000
  H   H4        1.0  0.3504975753541828  0.8600373599602874  0.8165027313410886  1.0000
  H   H5        1.0  0.2723188815822652  0.7537060217943008  0.35087589996036417  1.0000
  H   H6        1.0  0.7276832678352463  0.2537067242751263  0.1491257713294445  1.0000
  H   H7        1.0  0.7276806882762727  0.24629673288892207  0.6491249560889044  1.0000
  H   H8        1.0  0.2723188815822652  0.7462935346211736  0.8508752668085293  1.0000
  H   H9        1.0  0.033912172028657  0.5946794703810524  0.2627971468912236  1.0000
  H   H10       1.0  0.9660783693734842  0.09467934093289897  0.23720243869574628  1.0000
  H   H11       1.0  0.966082238711941  0.4053241162311494  0.7372052444361259  1.0000
  H   H12       1.0  0.0339173311466041  0.9053192541054428  0.7627937121576591  1.0000
  H   H13       1.0  0.8075167486878598  0.7513524947221554  0.938329587365082  1.0000
  H   H14       1.0  0.1924841109501685  0.2513523652740091  0.5616700934248795  1.0000
  H   H15       1.0  0.192486690509142  0.24864443645823534  0.06166964236175689  1.0000
  H   H16       1.0  0.8075115895699128  0.7486453978353607  0.4383266905803536  1.0000
  H   H17       1.0  0.7441318256217853  0.8270047880527471  0.026750073843011493  1.0000
  H   H18       1.0  0.2558664544572693  0.3270029947466426  0.47324562594726416  1.0000
  H   H19       1.0  0.2558690340162428  0.17299547084355274  0.9732470743396319  1.0000
  H   H20       1.0  0.7441318256217853  0.6729972641496501  0.5267526064503301  1.0000
  H   H21       1.0  0.6448910328414639  0.6999625780377059  0.9966055903671246  1.0000
  H   H22       1.0  0.3551124063555378  0.19996161666058748  0.5033923730560514  1.0000
  H   H23       1.0  0.3551149859145112  0.300035185071664  0.003395087752075195  1.0000
  H   H24       1.0  0.6448871635030073  0.8000378103067405  0.4966053172340707  1.0000
  H   H25       1.0  0.2962223647986022  0.5973832395519452  0.9566913748864179  1.0000
  H   H26       1.0  0.7037772050599356  0.0973839420327707  0.5433107474665062  1.0000
  H   H27       1.0  0.7037797846189092  0.4026161874153757  0.043312829010702096  1.0000
  H   H28       1.0  0.2962249443575757  0.9026146530055783  0.4566877580641489  1.0000
  H   H29       1.0  0.34738146811570647  0.47927428287754026  0.02472268207539229  1.0000
  H   H30       1.0  0.6526155221838577  0.9792735803967147  0.47528052449248986  1.0000
  H   H31       1.0  0.6526181017428314  0.5207251440897807  0.9752826060366856  1.0000
  H   H32       1.0  0.3473866272336537  0.0207241827126552  0.5247186141899929  1.0000
  H   H33       1.0  0.4425813817660042  0.608557709553004  0.054689559404131685  1.0000
  H   H34       1.0  0.5574181880925337  0.10855758010485768  0.4453131961006277  1.0000
  H   H35       1.0  0.5574181880925337  0.39144005355636574  0.9453150955561185  1.0000
  H   H36       1.0  0.44258396132497774  0.8914401830045122  0.5546859425818552  1.0000
  H   H37       1.0  0.11567774255148318  0.8853887316355651  0.24026068534423214  1.0000
  H   H38       1.0  0.8843256966455115  0.3853919299033208  0.25973854438260696  1.0000
  H   H39       1.0  0.8843179579685978  0.11460570375790269  0.7597354655091733  1.0000
  H   H40       1.0  0.1156816118899471  0.6146033374191262  0.7402660236919301  1.0000
  H   H41       1.0  0.8966766250046374  0.9698270268780931  0.13336649502289785  1.0000
  H   H42       1.0  0.10332681419236417  0.46983188900379946  0.3666321015521134  1.0000
  H   H43       1.0  0.1033229448539004  0.030167408515367797  0.8666292958117336  1.0000
  H   H44       1.0  0.8966779147841206  0.5301667060345422  0.6333703849782281  1.0000
  H   H45       1.0  0.2712935068907996  0.9585518934709825  0.9553761422145396  1.0000
  H   H46       1.0  0.728708642526712  0.4585542598097589  0.5446217301642875  1.0000
  H   H47       1.0  0.7287125118651758  0.0414500292832685  0.04462200329734858  1.0000
  H   H48       1.0  0.271290927331826  0.5414518225893659  0.45537849273315345  1.0000
  H   H49       1.0  0.4744118497040546  0.8730528887844855  0.07130012540493169  1.0000
  H   H50       1.0  0.5255928792724305  0.3730552551232619  0.4286985622144356  1.0000
  H   H51       1.0  0.525595458831404  0.1269515297566883  0.9287006437586313  1.0000
  H   H52       1.0  0.4744105599245714  0.6269491634179118  0.5713019338160661  1.0000
  C   C1        1.0  0.9062416296737295  0.6849670582514449  0.061035475057437276  1.0000
  C   C2        1.0  0.09375794018480828  0.18496110530046647  0.4389622152326851  1.0000
  C   C3        1.0  0.09376180952326507  0.315032368715876  0.9389662872767202  1.0000
  C   C4        1.0  0.9062403398942462  0.8150374897378824  0.5610334845575975  1.0000
  C   C5        1.0  0.899550253699722  0.6651954342159172  0.14893087153639326  1.0000
  C   C6        1.0  0.10044931615882287  0.16519530476776367  0.3510655524500734  1.0000
  C   C7        1.0  0.1004441570408758  0.3348073204673128  0.8510696203354653  1.0000
  C   C8        1.0  0.8995515434792052  0.8348032902705782  0.648930962580742  1.0000
  C   C9        1.0  0.0379182271125558  0.6086775073254955  0.19505853012005755  1.0000
  C   C10       1.0  0.9620787631870087  0.1086715543745242  0.3049370786258691  1.0000
  C   C11       1.0  0.9620852120844388  0.3913235834997764  0.8049425990622721  1.0000
  C   C12       1.0  0.0379195168920461  0.8913262087348528  0.6950586211644063  1.0000
  C   C13       1.0  0.17628577038393434  0.5705618493766734  0.1568689492736937  1.0000
  C   C14       1.0  0.8237099301361468  0.0705617199285271  0.34313289994617685  1.0000
  C   C15       1.0  0.8237137994746035  0.4294425691645003  0.8431344393828935  1.0000
  C   C16       1.0  0.17628706016342474  0.9294393708967448  0.656865874558896  1.0000
  C   C17       1.0  0.1761529230968648  0.597088736694559  0.06957579305520767  1.0000
  C   C18       1.0  0.8238492263206467  0.0970902711043635  0.4304252450827731  1.0000
  C   C19       1.0  0.8238492263206467  0.4029090264148109  0.9304284108419194  1.0000
  C   C20       1.0  0.1761503435378913  0.9029083239339855  0.5695718120555212  1.0000
  C   C21       1.0  0.7686595621094054  0.7439857636426908  0.0020087531494751964  1.0000
  C   C22       1.0  0.23134258730810583  0.24398313840761426  0.4979878529256965  1.0000
  C   C23       1.0  0.2313451668670794  0.2560128313956511  0.9979912007735479  1.0000
  C   C24       1.0  0.7686556927709489  0.7560146247017556  0.5020091131682419  1.0000
  C   C25       1.0  0.7627717187552463  0.7039233918908252  0.19987919367435578  1.0000
  C   C26       1.0  0.23721624308791425  0.2039207666557488  0.300108813090972  1.0000
  C   C27       1.0  0.2372265613238085  0.2960768670054748  0.8001196718750733  1.0000
  C   C28       1.0  0.7627807472116501  0.7960786603115719  0.6998861625031196  1.0000
  C   C29       1.0  0.3096915319721916  0.5023919252531712  0.21098835848621886  1.0000
  C   C30       1.0  0.6902964298709691  0.0023942915919476994  0.2890097787083902  1.0000
  C   C31       1.0  0.6903093276658294  0.4976124932880026  0.7890157543665592  1.0000
  C   C32       1.0  0.3096966910901385  0.9976067992333242  0.7109906221191195  1.0000
  C   C33       1.0  0.3237062758684175  0.5690169572688788  0.023085028977163795  1.0000
  C   C34       1.0  0.6762920042106373  0.0690168278207253  0.4769170023314117  1.0000
  C   C35       1.0  0.6762958735490938  0.4309816377694702  0.9769191749199632  1.0000
  C   C36       1.0  0.32370885542739086  0.9309825991465956  0.52308267845855  1.0000
  C   C37       1.0  0.1456354506756838  0.9032535744588799  0.17627178889395617  1.0000
  C   C38       1.0  0.8543679885213107  0.40325760465561433  0.32372680768105505  1.0000
  C   C39       1.0  0.8543602498443972  0.0967425247925391  0.8237262614149399  1.0000
  C   C40       1.0  0.14563932001414764  0.5967401584537555  0.6762758609379913  1.0000
  C   C41       1.0  0.0228200684479916  0.9514613628114361  0.11532048430996159  1.0000
  C   C42       1.0  0.9771795014105535  0.45146539300816346  0.3846810048911351  1.0000
  C   C43       1.0  0.9771743422926065  0.048534736439982885  0.8846768418027435  1.0000
  C   C44       1.0  0.0228252275659386  0.5485356978171083  0.6153221147910342  1.0000
  C   C45       1.0  0.063323013650745  0.9741547214094766  0.03333277287267579  1.0000
  C   C46       1.0  0.9366778459872833  0.47415625581928106  0.4666656416136305  1.0000
  C   C47       1.0  0.9366765562078001  0.0258430416998934  0.9666636511137907  1.0000
  C   C48       1.0  0.0633255932097114  0.5258431711480398  0.5333367538723549  1.0000
  C   C49       1.0  0.22942468521224404  0.9449357119263622  0.01741812781740749  1.0000
  C   C50       1.0  0.770574884646301  0.4449389101941108  0.4825814619281984  1.0000
  C   C51       1.0  0.7705761744257842  0.0550612192540356  0.9825809198207265  1.0000
  C   C52       1.0  0.2294272647712177  0.555063012560133  0.517420209361603  1.0000
  C   C53       1.0  0.345045677466338  0.8971846525814441  0.08165353330862499  1.0000
  C   C54       1.0  0.6549564719511733  0.3971870189202207  0.4183443390702023  1.0000
  C   C55       1.0  0.6549564719511733  0.1028189340307577  0.9183462385256929  1.0000
  C   C56       1.0  0.3450443876868547  0.6028173996209532  0.5816559748715875  1.0000
  N   N1        1.0  0.0448249962607505  0.6532888667162736  0.024916719711988798  1.0000
  N   N2        1.0  0.955177153156761  0.1532862414811973  0.47508431842598486  1.0000
  N   N3        1.0  0.9551758633772778  0.3467138879669491  0.9750854936852916  1.0000
  N   N4        1.0  0.04482241670177699  0.8467123535571446  0.5249133718641372  1.0000
  N   N5        1.0  0.30454273226359146  0.8766018977946501  0.1603551867492072  1.0000
  N   N6        1.0  0.695459417153927  0.3766050960624057  0.3396433187814479  1.0000
  N   N7        1.0  0.6954542580359798  0.1233958653147198  0.8396429546040377  1.0000
  N   N8        1.0  0.304545311822558  0.6233943309049153  0.6603579014452305  1.0000
  O   O1        1.0  0.6165958504748728  0.7386056789570998  0.15874527340514524  1.0000
  O   O2        1.0  0.3834101682810952  0.23860721336690457  0.3412541384104059  1.0000
  O   O3        1.0  0.3833998500452083  0.2613962437971508  0.841251510600088  1.0000
  O   O4        1.0  0.6165945606953895  0.7613947093873462  0.6587439160571333  1.0000
  O   O5        1.0  0.7931150709458021  0.7036904517776391  0.28004187050502327  1.0000
  O   O6        1.0  0.2068832091332524  0.20368949040051376  0.21996395971453345  1.0000
  O   O7        1.0  0.2068780500153125  0.2963089751896817  0.7199585303224793  1.0000
  O   O8        1.0  0.7931176505047759  0.796311600424758  0.7800357210754283  1.0000
  O   O9        1.0  0.3868693568628814  0.4260815761028383  0.17439498898674796  1.0000
  O   O10       1.0  0.6131198947597694  0.9260825374799565  0.32560767131501217  1.0000
  O   O11       1.0  0.6131302129956637  0.5739203466514127  0.82561029912533  1.0000
  O   O12       1.0  0.3868745159808212  0.0739177214163362  0.6743915542531838  1.0000
  O   O13       1.0  0.3350963185103808  0.5186669518040006  0.2917255618567863  1.0000
  O   O14       1.0  0.6648929331122772  0.0186684862138051  0.20827773159680865  1.0000
  O   O15       1.0  0.6649084104661043  0.4813349709502504  0.7082800904327015  1.0000
  O   O16       1.0  0.3350950287308905  0.9813334365404458  0.7917204055978003  1.0000
  O   O17       1.0  0.3756276388618218  0.7226218275477476  0.33237123239995  1.0000
  O   O18       1.0  0.624371930996716  0.22262169809960133  0.16763025680114646  1.0000
  O   O19       1.0  0.624371930996716  0.277382590993426  0.667632156256637  1.0000
  O   O20       1.0  0.3756289286413121  0.7773802246546495  0.8323700571406434  1.0000
