data_image0
_chemical_formula_structural       Cu2H32C26S2N8O6F6
_chemical_formula_sum              "Cu2 H32 C26 S2 N8 O6 F6"
_cell_length_a       8.965502774493412
_cell_length_b       9.36375766636868
_cell_length_c       11.920267653018053
_cell_angle_alpha    80.3269794114182
_cell_angle_beta     69.16049639013491
_cell_angle_gamma    62.5039259699242

_space_group_name_H-M_alt    "P 1"
_space_group_IT_number       1

loop_
  _space_group_symop_operation_xyz
  'x, y, z'

loop_
  _atom_site_type_symbol
  _atom_site_label
  _atom_site_symmetry_multiplicity
  _atom_site_fract_x
  _atom_site_fract_y
  _atom_site_fract_z
  _atom_site_occupancy
  Cu  Cu1       1.0  0.1576193096397915  0.673756590147107  0.7448908491486746  1.0000
  Cu  Cu2       1.0  0.8423836970340587  0.32623281668507076  0.2551091416868304  1.0000
  H   H1        1.0  0.8182590629792587  0.6732609906490976  0.877719016785896  1.0000
  H   H2        1.0  0.1817347071160711  0.32674286384540346  0.1222916160315322  1.0000
  H   H3        1.0  0.3781115065350137  0.5517730226835481  0.9189033858497665  1.0000
  H   H4        1.0  0.6218734109685685  0.44823688681426427  0.08110546996454808  1.0000
  H   H5        1.0  0.4307310870251016  0.3548867957588797  0.9850147491057512  1.0000
  H   H6        1.0  0.5692680824869925  0.6451182364318553  0.014990084061338472  1.0000
  H   H7        1.0  0.4310992930954427  0.389393077761376  0.8326584477381545  1.0000
  H   H8        1.0  0.5688946752861883  0.6106203872395992  0.1673475089629831  1.0000
  H   H9        1.0  0.4405143252110122  0.748410801666104  0.5805605788628796  1.0000
  H   H10       1.0  0.5594868484201498  0.25157741979175796  0.41943502702270763  1.0000
  H   H11       1.0  0.3355017773142492  0.2217253419516112  0.5890406705419907  1.0000
  H   H12       1.0  0.6644823011336388  0.778273767425503  0.4109664790392459  1.0000
  H   H13       1.0  0.3006006329283081  0.30888488412315956  0.7223987714337383  1.0000
  H   H14       1.0  0.6993882683626043  0.6911166089042807  0.27760089648139535  1.0000
  H   H15       1.0  0.14837664926979957  0.40998034904013275  0.6417049273698012  1.0000
  H   H16       1.0  0.8516266611009656  0.5900234705267663  0.3582905647324209  1.0000
  H   H17       1.0  0.6885946779350435  0.04852306879351429  0.5506796739349654  1.0000
  H   H18       1.0  0.3114111349278375  0.9514855384718287  0.44931703163364745  1.0000
  H   H19       1.0  0.03209834787189441  0.010905972683190197  0.7980954234688581  1.0000
  H   H20       1.0  0.9679080994420136  0.9890762074994156  0.20190711313780704  1.0000
  H   H21       1.0  0.8841394870358813  0.6604032490426092  0.6591962141713807  1.0000
  H   H22       1.0  0.11586604036433812  0.3395933632395796  0.3407912438957226  1.0000
  H   H23       1.0  0.05729482405748594  0.6738502412858055  0.5302625588651821  1.0000
  H   H24       1.0  0.9427061325358892  0.32615599846249665  0.4697282126834281  1.0000
  H   H25       1.0  0.8328290964366188  0.7646555427728216  0.5297465879273134  1.0000
  H   H26       1.0  0.16717419931006114  0.23534828385238168  0.4702430348122419  1.0000
  H   H27       1.0  0.7004713095701903  0.4278032649355905  0.7358193829306003  1.0000
  H   H28       1.0  0.2995413600710748  0.572188474304049  0.26419364497397874  1.0000
  H   H29       1.0  0.7946906915132318  0.3188622306979595  0.8507020997964999  1.0000
  H   H30       1.0  0.20532706966956482  0.681116275519841  0.14930795023026622  1.0000
  H   H31       1.0  0.9330451047534822  0.3438858021159703  0.7082143306078023  1.0000
  H   H32       1.0  0.066968595911412  0.6560987310538804  0.291795176102262  1.0000
  C   C1        1.0  0.3206616195316769  0.019346748389168097  0.899357827757477  1.0000
  C   C2        1.0  0.6793299266986068  0.9806667432415634  0.10063703109569389  1.0000
  C   C3        1.0  0.9006116144296924  0.5947153655551602  0.9322638501072331  1.0000
  C   C4        1.0  0.09938208102420999  0.4052860984126808  0.06773788997468697  1.0000
  C   C5        1.0  0.17387426648669901  0.4740115563779525  0.9633746200618347  1.0000
  C   C6        1.0  0.8261212145274612  0.525988689329253  0.03663351247944751  1.0000
  C   C7        1.0  0.36448969121293834  0.4400800928935452  0.9237278912862977  1.0000
  C   C8        1.0  0.6355005740466879  0.5599285926822118  0.07627549542637278  1.0000
  C   C9        1.0  0.46790123027919617  0.6361064682029391  0.5446948633644552  1.0000
  C   C10       1.0  0.5321100915384562  0.36388049724827437  0.4552998610274201  1.0000
  C   C11       1.0  0.3964846219065806  0.42414829813520055  0.5624305020545391  1.0000
  C   C12       1.0  0.6035244124185012  0.575843482057401  0.43756504059770407  1.0000
  C   C13       1.0  0.28964224424922247  0.3359733051896682  0.6316479619262267  1.0000
  C   C14       1.0  0.7103597167769138  0.6640233147706027  0.36834968074112595  1.0000
  C   C15       1.0  0.8878491960496081  0.8907669594280134  0.631885533055886  1.0000
  C   C16       1.0  0.11214921892585752  0.10923208495357527  0.3681093864573128  1.0000
  C   C17       1.0  0.7674132417499566  0.04169691152029739  0.6049537532421353  1.0000
  C   C18       1.0  0.2325906514620117  0.958305699067516  0.3950459363169969  1.0000
  C   C19       1.0  0.8365983573697946  0.171328064667513  0.7114247350520485  1.0000
  C   C20       1.0  0.16340950139524335  0.8286637116983613  0.28857951284269484  1.0000
  C   C21       1.0  0.9556686426106038  0.021434492006633797  0.7412721536410487  1.0000
  C   C22       1.0  0.04433796177464465  0.9785548920225078  0.258730229799923  1.0000
  C   C23       1.0  0.9177236065941515  0.7385249925695657  0.5848230921631057  1.0000
  C   C24       1.0  0.08228021406554123  0.26147522648325605  0.4151685431409007  1.0000
  C   C25       1.0  0.8137952845097088  0.3241075695761708  0.7541065223041201  1.0000
  C   C26       1.0  0.18621383490257418  0.675886596101442  0.24590210548554134  1.0000
  S   S1        1.0  0.41518955295940435  0.8556485368126658  0.7891334820036063  1.0000
  S   S2        1.0  0.5848091286763336  0.14436251162704386  0.2108631386876709  1.0000
  N   N1        1.0  0.07130852747666692  0.5707441361129141  0.8948234629045045  1.0000
  N   N2        1.0  0.9286874763613543  0.4292525030302412  0.1051858437208536  1.0000
  N   N3        1.0  0.36352172026641943  0.5634982189153062  0.6073486300753856  1.0000
  N   N4        1.0  0.6364931350669779  0.4364863281645697  0.3926437865883584  1.0000
  N   N5        1.0  0.9818836387157007  0.8821715629079419  0.702461166853638  1.0000
  N   N6        1.0  0.018118218988973932  0.11782025381575068  0.2975371369111031  1.0000
  N   N7        1.0  0.7408921902745574  0.18066365305845267  0.6431575538800657  1.0000
  N   N8        1.0  0.2591169661743749  0.8193329212957609  0.35684487399823434  1.0000
  O   O1        1.0  0.27664318678044714  0.798969050253838  0.8267804582549871  1.0000
  O   O2        1.0  0.7233718444266798  0.20102269159760766  0.17321935156650173  1.0000
  O   O3        1.0  0.5802970314696835  0.7414418814991349  0.810827011657068  1.0000
  O   O4        1.0  0.41971319517958966  0.2585775141754993  0.18916456946590182  1.0000
  O   O5        1.0  0.4331075100828485  0.9379218816567981  0.6732350652432331  1.0000
  O   O6        1.0  0.5668756651645879  0.062091651753263505  0.3267637136414976  1.0000
  F   F1        1.0  0.4311189337500778  0.089356420323341  0.879166324526899  1.0000
  F   F2        1.0  0.5688414176133205  0.9106824692234667  0.12082097798446514  1.0000
  F   F3        1.0  0.16125882157965074  0.13663638797505934  0.8919144063678814  1.0000
  F   F4        1.0  0.8387079195264134  0.8633640199897741  0.10809135493727254  1.0000
  F   F5        1.0  0.2939235512260654  0.961396982191125  0.01341558234068431  1.0000
  F   F6        1.0  0.706082313297543  0.0386140266925068  0.9865807926792413  1.0000
