data_image0
_chemical_formula_structural       Hg4P4H48C52I8O4
_chemical_formula_sum              "Hg4 P4 H48 C52 I8 O4"
_cell_length_a       8.995827895997255
_cell_length_b       13.6546936275478
_cell_length_c       13.65484366359874
_cell_angle_alpha    99.79449222969752
_cell_angle_beta     100.51955673932959
_cell_angle_gamma    100.51803679499244

_space_group_name_H-M_alt    "P 1"
_space_group_IT_number       1

loop_
  _space_group_symop_operation_xyz
  'x, y, z'

loop_
  _atom_site_type_symbol
  _atom_site_label
  _atom_site_symmetry_multiplicity
  _atom_site_fract_x
  _atom_site_fract_y
  _atom_site_fract_z
  _atom_site_occupancy
  Hg  Hg1       1.0  0.7500072513274105  0.8335610528729943  0.16644759241269472  1.0000
  Hg  Hg2       1.0  0.24999333953635272  0.1664459052923846  0.8335565928450918  1.0000
  Hg  Hg3       1.0  0.4999841545494377  3.605312535600052e-06  1.1874837611142579e-06  1.0000
  Hg  Hg4       1.0  3.573436089000205e-07  6.569955630199711e-06  0.9999939623533083  1.0000
  P   P1        1.0  0.7046975382233995  0.5336626582898915  0.12658083658723743  1.0000
  P   P2        1.0  0.7953064243782607  0.8734167337001324  0.46634021308521784  1.0000
  P   P3        1.0  0.29529430663868084  0.4663420046958109  0.8734131439210842  1.0000
  P   P4        1.0  0.20469792530352754  0.12658795033618023  0.5336625548583811  1.0000
  H   H1        1.0  0.6365344247242319  0.4966655030788444  0.9452987545897715  1.0000
  H   H2        1.0  0.8634635560151268  0.0547055367842191  0.5033392305656008  1.0000
  H   H3        1.0  0.3634550415899867  0.503335346310884  0.05469575623540383  1.0000
  H   H4        1.0  0.13654638529836663  0.9453021981004569  0.4966720391724736  1.0000
  H   H5        1.0  0.5439954028139269  0.394711831673341  0.9927179528287626  1.0000
  H   H6        1.0  0.9560024507671302  0.007280896820752501  0.6052885843936623  1.0000
  H   H7        1.0  0.455993763660011  0.6052912917303103  0.007286435095025479  1.0000
  H   H8        1.0  0.04400758263313525  0.9927169442553919  0.3947173308252871  1.0000
  H   H9        1.0  0.6384125948290063  0.3223940090963637  0.1654636412380981  1.0000
  H   H10       1.0  0.8615883900253962  0.8345349669684339  0.6776023355838633  1.0000
  H   H11       1.0  0.3615974602486176  0.6776076517875964  0.8345297518722179  1.0000
  H   H12       1.0  0.1384111996485871  0.1654689427906817  0.3224019402346769  1.0000
  H   H13       1.0  0.5160874670829687  0.25393709308477236  0.2950978842152594  1.0000
  H   H14       1.0  0.9839044685812653  0.7048929844189048  0.7460608292756206  1.0000
  H   H15       1.0  0.48392875762955606  0.746059250811875  0.7048967786009542  1.0000
  H   H16       1.0  0.01606432561904821  0.2950963885408484  0.2539388120598218  1.0000
  H   H17       1.0  0.4180936511133951  0.36683363880037223  0.418682853524956  1.0000
  H   H18       1.0  0.08191489567700928  0.5813110152620595  0.6331732130069342  1.0000
  H   H19       1.0  0.5819242085938825  0.6331642315026896  0.5813122630395072  1.0000
  H   H20       1.0  0.9180725084398844  0.418686774669446  0.36683005079579806  1.0000
  H   H21       1.0  0.4566623435900754  0.5525005543130491  0.4195018392439493  1.0000
  H   H22       1.0  0.04335999699764409  0.5804968817411407  0.447508655923727  1.0000
  H   H23       1.0  0.543341423273816  0.44749576286983483  0.5804898994620729  1.0000
  H   H24       1.0  0.9566490176458874  0.41951161817404176  0.5524967785071838  1.0000
  H   H25       1.0  0.5882085292155708  0.6236256428564176  0.2920768527562956  1.0000
  H   H26       1.0  0.9117999579956476  0.7079185201511038  0.3763774997208031  1.0000
  H   H27       1.0  0.4117813672133012  0.37636988667034643  0.7079080041018317  1.0000
  H   H28       1.0  0.0882104457487287  0.2920907435380045  0.6236289607852754  1.0000
  H   H29       1.0  0.7859218848369807  0.34683961236600414  0.019034732521525724  1.0000
  H   H30       1.0  0.7140626141180633  0.980962677810922  0.6531637257107902  1.0000
  H   H31       1.0  0.21405674281739817  0.6531589162006669  0.9809705629659862  1.0000
  H   H32       1.0  0.28594676786308076  0.019036687388748398  0.34683944645225045  1.0000
  H   H33       1.0  0.03476320007128209  0.2919835349071889  0.0360654570674299  1.0000
  H   H34       1.0  0.46521038769314066  0.9639166643473944  0.707998764475022  1.0000
  H   H35       1.0  0.9652129099301661  0.7080073744135615  0.9639382325328613  1.0000
  H   H36       1.0  0.5347995066020629  0.036077371078810885  0.2920050145398605  1.0000
  H   H37       1.0  0.2714066652964037  0.4018956176460691  0.15593407794249003  1.0000
  H   H38       1.0  0.22858408398051475  0.8440414578656288  0.598078670662119  1.0000
  H   H39       1.0  0.7285755527140053  0.5980968346810654  0.8440639994485791  1.0000
  H   H40       1.0  0.7714314940331661  0.15594573460040095  0.4019282556281141  1.0000
  H   H41       1.0  0.2631956045472705  0.5739323828365953  0.2483799055732732  1.0000
  H   H42       1.0  0.23681595849932802  0.7515996433961906  0.42604414334881113  1.0000
  H   H43       1.0  0.7367964304069473  0.42606619694577563  0.7516057262105419  1.0000
  H   H44       1.0  0.7631939680648968  0.24838753557578738  0.5739628530030032  1.0000
  H   H45       1.0  0.013315287450559838  0.6311352064011616  0.22932675880642964  1.0000
  H   H46       1.0  0.48671216792505595  0.7706752373283976  0.3688609171556934  1.0000
  H   H47       1.0  0.9866814987279825  0.36887100128105743  0.7706570794280553  1.0000
  H   H48       1.0  0.5132968085308676  0.22932641462728756  0.6311389396245276  1.0000
  C   C1        1.0  0.5730328920195973  0.4782754306720988  0.0037261565955545813  1.0000
  C   C2        1.0  0.9269769072416096  0.9962793274825826  0.5217319147331594  1.0000
  C   C3        1.0  0.4269593965553041  0.5217337935170931  0.9962767169462766  1.0000
  C   C4        1.0  0.0730325962304406  0.0037238454907110993  0.47827119488704994  1.0000
  C   C5        1.0  0.6177578945843579  0.4776838793867739  0.2197198798971058  1.0000
  C   C6        1.0  0.8822520639524214  0.7802794177891741  0.5223145886507794  1.0000
  C   C7        1.0  0.3822410887861878  0.5223116663504895  0.7802704350213148  1.0000
  C   C8        1.0  0.11775869834609412  0.21972756480707287  0.4776893239130332  1.0000
  C   C9        1.0  0.5984845013420356  0.3734714756976132  0.22057808580373722  1.0000
  C   C10       1.0  0.9015210180000255  0.7794169023899613  0.626527366216493  1.0000
  C   C11       1.0  0.4015221270268513  0.626523328847256  0.7794100648591  1.0000
  C   C12       1.0  0.09847947485837238  0.22058624517021738  0.3734798132466751  1.0000
  C   C13       1.0  0.5289575506657584  0.33444772970756986  0.29327703152512197  1.0000
  C   C14       1.0  0.9710412134194186  0.7067190230508942  0.6655542526625666  1.0000
  C   C15       1.0  0.47105262881486  0.6655508860352484  0.7067158518011212  1.0000
  C   C16       1.0  0.02894316956116682  0.29328332890712966  0.33444871147361976  1.0000
  C   C17       1.0  0.47628769020076334  0.39856255928216905  0.36406555887713676  1.0000
  C   C18       1.0  0.023719165138928116  0.6359296445025393  0.6014399905162477  1.0000
  C   C19       1.0  0.5237217574695167  0.6014337678552977  0.6359297743454775  1.0000
  C   C20       1.0  0.9762721192868967  0.3640696790735306  0.39856179342945813  1.0000
  C   C21       1.0  0.49728084149386126  0.5024476556158675  0.3641295854457667  1.0000
  C   C22       1.0  0.0027338966025780716  0.6358678825317339  0.4975589829081032  1.0000
  C   C23       1.0  0.5027204282905658  0.49754789240427744  0.6358639262768123  1.0000
  C   C24       1.0  0.9972716080289247  0.3641368012302451  0.5024468492688429  1.0000
  C   C25       1.0  0.5690443717781549  0.5424586093439387  0.2926307704264986  1.0000
  C   C26       1.0  0.9309659215909108  0.7073678203429521  0.457546010586846  1.0000
  C   C27       1.0  0.4309505951376877  0.4575384493056802  0.7073600683017602  1.0000
  C   C28       1.0  0.069041973331224  0.292640675599209  0.5424607571045216  1.0000
  C   C29       1.0  0.8830598030319906  0.4912044119294592  0.12627462909373582  1.0000
  C   C30       1.0  0.6169417913806043  0.8737225967538291  0.50879647588949  1.0000
  C   C31       1.0  0.11693382471337802  0.5087987294899462  0.8737222270413127  1.0000
  C   C32       1.0  0.3830679432832867  0.1262744880608722  0.49120341541566154  1.0000
  C   C33       1.0  0.8895883262432706  0.3967177924962543  0.07019457800981853  1.0000
  C   C34       1.0  0.6104033580875525  0.9298024383425627  0.6032823665815812  1.0000
  C   C35       1.0  0.11039228908860822  0.6032799820918626  0.9298078903680533  1.0000
  C   C36       1.0  0.3896057956138392  0.0701961621009417  0.39672357665527613  1.0000
  C   C37       1.0  0.029987135626242913  0.3655890920986451  0.07975938319877682  1.0000
  C   C38       1.0  0.47000077838836074  0.9202303913867169  0.6343995900100126  1.0000
  C   C39       1.0  0.9699927420239193  0.6344063945920196  0.9202448021598358  1.0000
  C   C40       1.0  0.5300127620646438  0.07976441363577891  0.3656047473060228  1.0000
  C   C41       1.0  0.1632700634889517  0.4282375200658707  0.14575953103173592  1.0000
  C   C42       1.0  0.33672496952402753  0.8542266297158817  0.5717450296013524  1.0000
  C   C43       1.0  0.8367136885987564  0.5717595009772439  0.8542424415542058  1.0000
  C   C44       1.0  0.663284809151655  0.1457635972288074  0.4282595448719989  1.0000
  C   C45       1.0  0.1580171169820801  0.5240417595304478  0.199248651916065  1.0000
  C   C46       1.0  0.3419935318455458  0.8007394445270037  0.47594460961106233  1.0000
  C   C47       1.0  0.841974360495179  0.4759583330491495  0.8007459634620134  1.0000
  C   C48       1.0  0.6580170314829418  0.199253064651991  0.5240641112066342  1.0000
  C   C49       1.0  0.018471019536058057  0.5558605737462443  0.18954075902405518  1.0000
  C   C50       1.0  0.4815482539489936  0.8104540829830997  0.444131891764471  1.0000
  C   C51       1.0  0.9815236985737812  0.44414257518565126  0.8104510992723561  1.0000
  C   C52       1.0  0.5184674074151872  0.1895437744186736  0.5558710217303542  1.0000
  I   I1        1.0  0.44296481162566437  0.814152969267546  0.13267673433421828  1.0000
  I   I2        1.0  0.05704699302429359  0.8673421648441533  0.18584834677695744  1.0000
  I   I3        1.0  0.5570344605938828  0.18585321662917662  0.8673352198360222  1.0000
  I   I4        1.0  0.9429521617675364  0.13266403521044617  0.8141489490805824  1.0000
  I   I5        1.0  0.7532295810062734  0.10551795225460132  0.1407479602863475  1.0000
  I   I6        1.0  0.7467627646832612  0.8592506898607014  0.8944847471460521  1.0000
  I   I7        1.0  0.24675850499057367  0.8944752797385433  0.859245810138056  1.0000
  I   I8        1.0  0.2532458003760568  0.1407532495588839  0.10551106133571153  1.0000
  O   O1        1.0  0.7318152626862897  0.6477876465527216  0.15357714398879807  1.0000
  O   O2        1.0  0.7681837859835313  0.8464259075631305  0.35221374347472795  1.0000
  O   O3        1.0  0.2681795434943339  0.3522154917607665  0.8464257080421405  1.0000
  O   O4        1.0  0.23182371219685652  0.15357802151239497  0.6477899945082087  1.0000
