data_image0
_chemical_formula_structural       CdH10C16S2N10Cl2
_chemical_formula_sum              "Cd1 H10 C16 S2 N10 Cl2"
_cell_length_a       5.648956923986569
_cell_length_b       8.117547007490476
_cell_length_c       12.045091297279237
_cell_angle_alpha    106.27893029278151
_cell_angle_beta     92.22368807389694
_cell_angle_gamma    89.88933874600514

_space_group_name_H-M_alt    "P 1"
_space_group_IT_number       1

loop_
  _space_group_symop_operation_xyz
  'x, y, z'

loop_
  _atom_site_type_symbol
  _atom_site_label
  _atom_site_symmetry_multiplicity
  _atom_site_fract_x
  _atom_site_fract_y
  _atom_site_fract_z
  _atom_site_occupancy
  Cd  Cd1       1.0  2.907774550932548e-06  0.9999993265539118  0.9999986967739221  1.0000
  H   H1        1.0  0.8286175096754248  0.8018135860865953  0.7091023112450402  1.0000
  H   H2        1.0  0.17138630824224782  0.19819334999220223  0.2908988267336525  1.0000
  H   H3        1.0  0.2632812917424587  0.7228150905396048  0.23208493308951722  1.0000
  H   H4        1.0  0.7367081427789729  0.27717912979565545  0.7679186188334343  1.0000
  H   H5        1.0  0.43283314902871695  0.1144439400290835  0.823597213354944  1.0000
  H   H6        1.0  0.5671596531306092  0.8855567432930799  0.17639931020486443  1.0000
  H   H7        1.0  0.3643242753652061  0.8966668555583938  0.4370764470287797  1.0000
  H   H8        1.0  0.6356805809815499  0.10332082023180789  0.5629201402203919  1.0000
  H   H9        1.0  0.9142115792636076  0.5218630393111565  0.19309614671773553  1.0000
  H   H10       1.0  0.08577603807229651  0.4781389730420571  0.806902256244925  1.0000
  C   C1        1.0  0.9921135933946275  0.8730070265424033  0.7131175734323209  1.0000
  C   C2        1.0  0.007900421112907504  0.12699470296969645  0.2868776502540414  1.0000
  C   C3        1.0  0.1561374176915109  0.7127765761126668  0.3032861827173506  1.0000
  C   C4        1.0  0.843861169286285  0.28723040579758663  0.6967165859422764  1.0000
  C   C5        1.0  0.3001533584770542  0.0312618295577209  0.7677020111585193  1.0000
  C   C6        1.0  0.6998521202013422  0.9687476964147308  0.23229548827763585  1.0000
  C   C7        1.0  0.5004248628191802  0.22723290116812928  0.0443981347355731  1.0000
  C   C8        1.0  0.4995717985890806  0.7727573219691805  0.9556105106538909  1.0000
  C   C9        1.0  0.21289552801150796  0.8095295918466547  0.4164500196649713  1.0000
  C   C10       1.0  0.7871117393303066  0.19046568137338227  0.5835555302288925  1.0000
  C   C11       1.0  0.06697486513341741  0.7873500982426049  0.5017408974741074  1.0000
  C   C12       1.0  0.9330215766203055  0.2126453471660597  0.49826045258905094  1.0000
  C   C13       1.0  0.830397374287095  0.592640210924742  0.37425777783396097  1.0000
  C   C14       1.0  0.1696021584057732  0.4073539982732796  0.6257350515345479  1.0000
  C   C15       1.0  0.9621601734915329  0.6012498938675888  0.2801539444785064  1.0000
  C   C16       1.0  0.037836042903236916  0.39874948166554  0.719840690557831  1.0000
  S   S1        1.0  0.7433947526039051  0.2950484225451716  0.0021912078044720854  1.0000
  S   S2        1.0  0.2566034939643345  0.7049547545028076  0.997806669582424  1.0000
  N   N1        1.0  0.1053124772883649  0.9699394006029464  0.8079521611236303  1.0000
  N   N2        1.0  0.8946878284565327  0.030064984718812596  0.19205094823418287  1.0000
  N   N3        1.0  0.11558070237447993  0.8773228044804713  0.6199333552455714  1.0000
  N   N4        1.0  0.8844191593191014  0.12267262528605022  0.38006552599463117  1.0000
  N   N5        1.0  0.3132747716373245  0.9781030344641408  0.6536528764347127  1.0000
  N   N6        1.0  0.6867236826955151  0.021901389994233997  0.34634856575968354  1.0000
  N   N7        1.0  0.8786922464593446  0.6827132807991775  0.48298441552636734  1.0000
  N   N8        1.0  0.12130720540945111  0.3172809462934367  0.5170067557993505  1.0000
  N   N9        1.0  0.32403709762845523  0.17690562493832118  0.07461611056513111  1.0000
  N   N10       1.0  0.6759762887558766  0.8231075135607353  0.9253962648829986  1.0000
  Cl  Cl1       1.0  0.5883923320707964  0.4545549635485245  0.3497979665857046  1.0000
  Cl  Cl2       1.0  0.4115987746201951  0.5454444309741717  0.6502007861957537  1.0000
