data_image0
_chemical_formula_structural       Cd2H22C32I2N4O2
_chemical_formula_sum              "Cd2 H22 C32 I2 N4 O2"
_cell_length_a       8.67047376307424
_cell_length_b       9.020607670193526
_cell_length_c       10.16349216313836
_cell_angle_alpha    78.6414393628221
_cell_angle_beta     77.90859370926461
_cell_angle_gamma    77.5437211050252

_space_group_name_H-M_alt    "P 1"
_space_group_IT_number       1

loop_
  _space_group_symop_operation_xyz
  'x, y, z'

loop_
  _atom_site_type_symbol
  _atom_site_label
  _atom_site_symmetry_multiplicity
  _atom_site_fract_x
  _atom_site_fract_y
  _atom_site_fract_z
  _atom_site_occupancy
  Cd  Cd1       1.0  0.5863992821709798  0.0695562272176531  0.3252553681049121  1.0000
  Cd  Cd2       1.0  0.413600398285645  0.9304453947612286  0.6747443816970459  1.0000
  H   H1        1.0  0.7571420923451696  0.9458216477301348  0.7723290056563102  1.0000
  H   H2        1.0  0.24285660312641966  0.05417884107799859  0.22767209906898955  1.0000
  H   H3        1.0  0.9734808902547695  0.0606176489454384  0.8139228968967487  1.0000
  H   H4        1.0  0.026526645513150912  0.9393735615718342  0.18607445514436452  1.0000
  H   H5        1.0  0.09367975812939014  0.25706575649163443  0.640547504511126  1.0000
  H   H6        1.0  0.9063275181528633  0.7429266348037942  0.35945263015806717  1.0000
  H   H7        1.0  0.09326348684898274  0.4252769026364973  0.4059894863174023  1.0000
  H   H8        1.0  0.9067321966471906  0.5747270587831678  0.594012483704439  1.0000
  H   H9        1.0  0.9919165341171378  0.4890109517121529  0.18607702838456666  1.0000
  H   H10       1.0  0.008079858914463485  0.5109953339650273  0.8139273541976878  1.0000
  H   H11       1.0  0.7562406408201666  0.23649879472498714  0.08781109445217075  1.0000
  H   H12       1.0  0.24376062747519706  0.7635005314848938  0.9121897859544531  1.0000
  H   H13       1.0  0.7750177039266217  0.5794563951538904  0.06263582419097705  1.0000
  H   H14       1.0  0.2249862170121801  0.4205417169146698  0.9373599076186706  1.0000
  H   H15       1.0  0.7173903140125971  0.26191093739602433  0.8814779522431876  1.0000
  H   H16       1.0  0.28260964189362164  0.7380894934960905  0.11851803007501621  1.0000
  H   H17       1.0  0.607053186709173  0.326914487567052  0.6678523261726497  1.0000
  H   H18       1.0  0.39294256064274435  0.6730894326181768  0.33214570442655134  1.0000
  H   H19       1.0  0.5113083818044541  0.6055233738809065  0.5769413235633748  1.0000
  H   H20       1.0  0.48868948325564077  0.39448170402793176  0.423058108550677  1.0000
  H   H21       1.0  0.6274722854080463  0.7479622853232044  0.9018055320558955  1.0000
  H   H22       1.0  0.37252939011109726  0.25203475149062626  0.09819667708418216  1.0000
  C   C1        1.0  0.7561815003581386  0.06575042662156959  0.5676133462607637  1.0000
  C   C2        1.0  0.2438184076562776  0.9342500351963781  0.43238559062442755  1.0000
  C   C3        1.0  0.8108091587547078  0.028511294777310094  0.6922238875534815  1.0000
  C   C4        1.0  0.1891909129617629  0.9714880481141461  0.30777817583759065  1.0000
  C   C5        1.0  0.9325692356290671  0.09551239765870179  0.7160123299323826  1.0000
  C   C6        1.0  0.06743344083903921  0.9044857620172663  0.28398753942868643  1.0000
  C   C7        1.0  0.0007813746853244851  0.2051930579529824  0.6193872012512073  1.0000
  C   C8        1.0  0.9992181671617001  0.7948028314458497  0.3806145912296727  1.0000
  C   C9        1.0  0.9489222009550105  0.24903147458670824  0.49219577051657365  1.0000
  C   C10       1.0  0.05107767513153758  0.7509690078484609  0.5078051360799378  1.0000
  C   C11       1.0  0.8308280386613304  0.17596098567910448  0.46375098486770844  1.0000
  C   C12       1.0  0.16917183742521041  0.8240394967560718  0.5362499217288033  1.0000
  C   C13       1.0  0.005208544943670279  0.36473023274953686  0.38819953241318217  1.0000
  C   C14       1.0  0.9947908760272878  0.6352725700075081  0.6118030000168702  1.0000
  C   C15       1.0  0.9499941157432229  0.40005163238863156  0.2662988190631381  1.0000
  C   C16       1.0  0.05000040310193294  0.5999523250953942  0.7337023642318314  1.0000
  C   C17       1.0  0.8414262105035416  0.3149791741440353  0.24234470074791395  1.0000
  C   C18       1.0  0.15857442301024344  0.6850236016228164  0.7576556638420229  1.0000
  C   C19       1.0  0.7849464963692939  0.33885808668954803  0.1130144107265636  1.0000
  C   C20       1.0  0.2150536072750454  0.6611412355846866  0.8869856829531811  1.0000
  C   C21       1.0  0.7562273797540013  0.4759459040333239  0.03181218814051335  1.0000
  C   C22       1.0  0.2437739204692305  0.5240534015593284  0.9681867225547905  1.0000
  C   C23       1.0  0.6889723363444913  0.5007132747768991  0.9075964300142798  1.0000
  C   C24       1.0  0.3110280267855073  0.4992848667191793  0.09240088103737781  1.0000
  C   C25       1.0  0.6771376152222641  0.38205585594433694  0.8410318215243677  1.0000
  C   C26       1.0  0.32286392852269313  0.6179422791787701  0.15896529139850904  1.0000
  C   C27       1.0  0.6145726308369817  0.4181453903318654  0.7209463075307808  1.0000
  C   C28       1.0  0.38542591689649436  0.5818562070941623  0.2790506858329778  1.0000
  C   C29       1.0  0.5618966041517266  0.5716127515494733  0.6704085659467509  1.0000
  C   C30       1.0  0.438102669081118  0.4283911598254591  0.3295898551217533  1.0000
  C   C31       1.0  0.628624865746218  0.6518778994778812  0.8504013028081729  1.0000
  C   C32       1.0  0.3713766141429956  0.3481202768796691  0.1495997495373445  1.0000
  I   I1        1.0  0.6928483215548411  0.9046790113234378  0.11449332520822247  1.0000
  I   I2        1.0  0.30715412735546715  0.0953203085134717  0.8855073570696134  1.0000
  N   N1        1.0  0.7850024246742605  0.2070325374932978  0.34012058366181463  1.0000
  N   N2        1.0  0.21499884362109606  0.7929667887165763  0.6598802967448094  1.0000
  N   N3        1.0  0.5659343621134452  0.6862922434895963  0.7360673713910586  1.0000
  N   N4        1.0  0.4340654980091613  0.3137082492541836  0.2639345200611132  1.0000
  O   O1        1.0  0.6416140558922618  0.0062377027535945  0.5411197460823303  1.0000
  O   O2        1.0  0.3583858042303446  0.9937627899901926  0.4588821453698486  1.0000
