data_image0
_chemical_formula_structural       Cd2H48C66N4O12
_chemical_formula_sum              "Cd2 H48 C66 N4 O12"
_cell_length_a       11.634027468925572
_cell_length_b       12.073984425005603
_cell_length_c       12.835
_cell_angle_alpha    64.40939536295183
_cell_angle_beta     73.90392789740754
_cell_angle_gamma    82.44440794751593

_space_group_name_H-M_alt    "P 1"
_space_group_IT_number       1

loop_
  _space_group_symop_operation_xyz
  'x, y, z'

loop_
  _atom_site_type_symbol
  _atom_site_label
  _atom_site_symmetry_multiplicity
  _atom_site_fract_x
  _atom_site_fract_y
  _atom_site_fract_z
  _atom_site_occupancy
  Cd  Cd1       1.0  0.7492914416729518  0.5916801463445083  0.21097924903447993  1.0000
  Cd  Cd2       1.0  0.2507070481760607  0.4083190425296123  0.7890174865490633  1.0000
  H   H1        1.0  0.9344203465696593  0.714619168051925  0.44675253118015945  1.0000
  H   H2        1.0  0.0655754351944822  0.28538185761087215  0.5532433595059486  1.0000
  H   H3        1.0  0.005364106465656004  0.7845135693954148  0.5709033245463713  1.0000
  H   H4        1.0  0.9946352295413377  0.2154892930560663  0.42909092659770903  1.0000
  H   H5        1.0  0.132180137471039  0.9204634837358228  0.5910439452674012  1.0000
  H   H6        1.0  0.8678183402629074  0.0795366235326398  0.4089547575508305  1.0000
  H   H7        1.0  0.2676482986082576  0.06964919005436339  0.40814178712586363  1.0000
  H   H8        1.0  0.7323510495138024  0.9303527540027758  0.5918559506206975  1.0000
  H   H9        1.0  0.2824872893576043  0.07765483352734749  0.21190379870792947  1.0000
  H   H10       1.0  0.717512034534316  0.9223489473184756  0.7880916405512364  1.0000
  H   H11       1.0  0.2901233819818571  0.0770046103337165  0.06236976533593719  1.0000
  H   H12       1.0  0.7098777917218866  0.922994578540404  0.9376309704948154  1.0000
  H   H13       1.0  0.18981467269380659  0.07921518551318478  0.981468256336363  1.0000
  H   H14       1.0  0.8101900189075905  0.9207885953326381  0.01852972958004526  1.0000
  H   H15       1.0  0.19413309916137675  0.0776474863726122  0.8315155263685411  1.0000
  H   H16       1.0  0.8058671435789222  0.9223544576845271  0.16848276567417012  1.0000
  H   H17       1.0  0.21601774018326833  0.0847990231082036  0.6341258792817256  1.0000
  H   H18       1.0  0.783981583708659  0.9152047577376266  0.3658734555754178  1.0000
  H   H19       1.0  0.3751333991818839  0.9583059225684636  0.5552046848092402  1.0000
  H   H20       1.0  0.6248641475886103  0.0416969398830176  0.4447954698189135  1.0000
  H   H21       1.0  0.5101590471684929  0.8249752688894034  0.6804605915961944  1.0000
  H   H22       1.0  0.48983672248058946  0.17502667516773576  0.31953960368338125  1.0000
  H   H23       1.0  0.5768742785230784  0.7437322686706622  0.8650658175700835  1.0000
  H   H24       1.0  0.4231233167076809  0.2562669202034584  0.13493348019570556  1.0000
  H   H25       1.0  0.026348014421806495  0.5022092512221903  0.16508116410178525  1.0000
  H   H26       1.0  0.973649592924026  0.49778901925758834  0.8349262949840506  1.0000
  H   H27       1.0  0.1498876122360855  0.3263606131190073  0.13390066610637058  1.0000
  H   H28       1.0  0.8501126062740879  0.6736431677268229  0.8660992230469088  1.0000
  H   H29       1.0  0.0459864037003967  0.1636174622659539  0.12282277726021106  1.0000
  H   H30       1.0  0.9540235829200654  0.8363918289459206  0.8771654060140858  1.0000
  H   H31       1.0  0.8264184022924184  0.18883473408895668  0.1314412101780249  1.0000
  H   H32       1.0  0.17358723238748297  0.8111653731795058  0.8685564731721555  1.0000
  H   H33       1.0  0.7171206178701438  0.369062276411384  0.16219754273640766  1.0000
  H   H34       1.0  0.2828815110271776  0.6309323204910271  0.8378048188914133  1.0000
  H   H35       1.0  0.7785184174639781  0.3780028453237989  0.4447416187875034  1.0000
  H   H36       1.0  0.2214809791183398  0.6219954251559798  0.5552568203358844  1.0000
  H   H37       1.0  0.6701602987590647  0.20250411546464153  0.6235662534187938  1.0000
  H   H38       1.0  0.32984444130259044  0.7974959918038209  0.3764355503528234  1.0000
  H   H39       1.0  0.45118353368060576  0.1784412653286367  0.6486466411099912  1.0000
  H   H40       1.0  0.5488212669563878  0.8215542499681161  0.35135467592336045  1.0000
  H   H41       1.0  0.3489522113380019  0.3350780122064805  0.4979263831840797  1.0000
  H   H42       1.0  0.6510489865958745  0.6649193398789562  0.5020696390577156  1.0000
  H   H43       1.0  0.4717617318330767  0.5056458828472756  0.32202050084985967  1.0000
  H   H44       1.0  0.5282421984157963  0.49434779566079357  0.677979443896376  1.0000
  H   H45       1.0  0.015764249454775805  0.8135238098479219  0.06015066429434055  1.0000
  H   H46       1.0  0.9842386650251952  0.18647905260355904  0.9398450249147103  1.0000
  H   H47       1.0  0.47950902548895147  0.8189698882917469  0.18582729084666738  1.0000
  H   H48       1.0  0.5204885091664834  0.1810338925540833  0.8141724936573809  1.0000
  C   C1        1.0  0.9114168757568706  0.7087983847168643  0.24877471804838797  1.0000
  C   C2        1.0  0.08857894235246988  0.2911998857629143  0.7512285159667939  1.0000
  C   C3        1.0  0.996787897344987  0.7834436399878228  0.25760395887894544  1.0000
  C   C4        1.0  0.0032141467468704992  0.2165573856749816  0.742393474521357  1.0000
  C   C5        1.0  0.9957808963507375  0.7777890860285268  0.36789361948319776  1.0000
  C   C6        1.0  0.0042202410078147  0.22221285802861246  0.6321005521380767  1.0000
  C   C7        1.0  0.07030184436700179  0.8530028273967359  0.3790284586277222  1.0000
  C   C8        1.0  0.9297019889613408  0.1469981982660613  0.6209693042452713  1.0000
  C   C9        1.0  0.06664654917963729  0.8484503466469917  0.49249105118059316  1.0000
  C   C10       1.0  0.9333581787669585  0.1515506790158128  0.5075041495101617  1.0000
  C   C11       1.0  0.1363565071258463  0.9243069640540966  0.5037244653544162  1.0000
  C   C12       1.0  0.8636455127358712  0.0756958983973846  0.4962722277976822  1.0000
  C   C13       1.0  0.2125144874322729  0.0085667824155067  0.400160708423023  1.0000
  C   C14       1.0  0.7874830351080959  0.9914379168246581  0.599836368598133  1.0000
  C   C15       1.0  0.22010618538002547  0.014062454153752  0.2888043966765395  1.0000
  C   C16       1.0  0.7798949519785197  0.9859394899033873  0.7111936705427123  1.0000
  C   C17       1.0  0.1502542922447674  0.9364545660062759  0.2731362385385693  1.0000
  C   C18       1.0  0.8497486828105351  0.0635437044735028  0.7268613012910021  1.0000
  C   C19       1.0  0.1558036734693005  0.9384842175005161  0.1598713611777354  1.0000
  C   C20       1.0  0.8441974760043108  0.06151680816228829  0.8401255179264311  1.0000
  C   C21       1.0  0.07811426130879787  0.8644855118458209  0.15290039245378034  1.0000
  C   C22       1.0  0.9218878433583907  0.13551092184527389  0.8470965542082638  1.0000
  C   C23       1.0  0.24140605897439119  0.0177994007284425  0.044738005312389396  1.0000
  C   C24       1.0  0.7585941837659076  0.9822025433286966  0.9552610658499106  1.0000
  C   C25       1.0  0.3327201361064667  0.9450369611255809  0.9881899019491339  1.0000
  C   C26       1.0  0.6672791756703872  0.0549677381145841  0.01180906278389681  1.0000
  C   C27       1.0  0.3414726446372995  0.9494103549787808  0.873521451380618  1.0000
  C   C28       1.0  0.6585275981029993  0.050591589078358395  0.12647684066208603  1.0000
  C   C29       1.0  0.26498861242651367  0.023667940569254097  0.799001217517876  1.0000
  C   C30       1.0  0.7350099016526314  0.9763294115161827  0.20100015391185616  1.0000
  C   C31       1.0  0.2772473884959864  0.027004467211142497  0.6875628366972961  1.0000
  C   C32       1.0  0.7227519353959408  0.9729993136346805  0.31243805639903827  1.0000
  C   C33       1.0  0.3664585398592024  0.9557096217656564  0.6429663668309543  1.0000
  C   C34       1.0  0.6335425490390776  0.0442959958688505  0.35703333637025736  1.0000
  C   C35       1.0  0.4414164755375865  0.8816108111277643  0.7125941511423118  1.0000
  C   C36       1.0  0.5585793546868202  0.1183865409576725  0.28740945299697523  1.0000
  C   C37       1.0  0.4316740956270024  0.8763879025088741  0.8275386631587053  1.0000
  C   C38       1.0  0.5683235117188302  0.1236103679708975  0.17246256297037377  1.0000
  C   C39       1.0  0.5094065711782604  0.800907826781696  0.8975134872080303  1.0000
  C   C40       1.0  0.49058838865803267  0.199087688515057  0.10248796552453854  1.0000
  C   C41       1.0  0.503337896827631  0.7985705131831224  0.007566795667805922  1.0000
  C   C42       1.0  0.49666060513644783  0.20142775729665624  0.9924334265182253  1.0000
  C   C43       1.0  0.4150929539148293  0.8728153485212786  0.05208127531840029  1.0000
  C   C44       1.0  0.5849063699770908  0.12718843232454446  0.9479157221799566  1.0000
  C   C45       1.0  0.5902804899716401  0.7222749032808764  0.0763282004964764  1.0000
  C   C46       1.0  0.4097197769987914  0.2777252039875791  0.9236731691532185  1.0000
  C   C47       1.0  0.9860534642333789  0.4292942508902158  0.15889246050382166  1.0000
  C   C48       1.0  0.0139458838886739  0.5707076931669234  0.84111384755829  1.0000
  C   C49       1.0  0.0537225253879612  0.3314384154319683  0.14245077132272846  1.0000
  C   C50       1.0  0.9462759281158525  0.668563528625171  0.8575542033236446  1.0000
  C   C51       1.0  0.9961935837829825  0.24228252956871188  0.13405322620348414  1.0000
  C   C52       1.0  0.0038048818358902  0.7577184960940855  0.8659490020886124  1.0000
  C   C53       1.0  0.8739134049363385  0.2551813780920611  0.1398691160178345  1.0000
  C   C54       1.0  0.1260841781793616  0.7448187291764015  0.860133707221827  1.0000
  C   C55       1.0  0.8128671271976912  0.3554994287792894  0.1566518342359017  1.0000
  C   C56       1.0  0.187134989584564  0.6444960865174636  0.8433540528657913  1.0000
  C   C57       1.0  0.6836787670744329  0.3640533536740164  0.45908106026945456  1.0000
  C   C58       1.0  0.3163196379691157  0.6359522639604904  0.5409224338805032  1.0000
  C   C59       1.0  0.6230505730393147  0.2665933461768617  0.5583605270075437  1.0000
  C   C60       1.0  0.37694877508273816  0.7334085978802776  0.4416450019349725  1.0000
  C   C61       1.0  0.501633196015625  0.253827664833004  0.5722085908723215  1.0000
  C   C62       1.0  0.4983680746086562  0.7461641768863814  0.4277943268316732  1.0000
  C   C63       1.0  0.44464111881436696  0.3399877483549929  0.487341124531028  1.0000
  C   C64       1.0  0.5553593298820658  0.6599985829983481  0.5126619013822662  1.0000
  C   C65       1.0  0.5118159449271076  0.43495247842687224  0.39035983508762234  1.0000
  C   C66       1.0  0.48818269030270045  0.5650356897151525  0.6096444584635633  1.0000
  N   N1        1.0  0.8675585352886657  0.44048855951614024  0.1669748198124665  1.0000
  N   N2        1.0  0.1324427474506749  0.5595023638089103  0.8330378174507727  1.0000
  N   N3        1.0  0.6294560208122064  0.4461752572773747  0.3760988629582442  1.0000
  N   N4        1.0  0.3705406555701812  0.5538257683854226  0.6239030358611756  1.0000
  O   O1        1.0  0.8383250451686591  0.6376375175767421  0.3397453529122459  1.0000
  O   O2        1.0  0.1616743392985995  0.36236167129737135  0.6602558325654186  1.0000
  O   O3        1.0  0.9121362882344711  0.7211305839316395  0.14233252869631485  1.0000
  O   O4        1.0  0.0878613312264278  0.2788667681537973  0.8576698466764653  1.0000
  O   O5        1.0  0.0809378131948293  0.8708499846309292  0.044608262219462284  1.0000
  O   O6        1.0  0.9190642551271607  0.1291492042431912  0.9553906905486471  1.0000
  O   O7        1.0  0.41090717588056686  0.8747035672869572  0.157403741347842  1.0000
  O   O8        1.0  0.5890930668597392  0.1252983767701821  0.8425961089340531  1.0000
  O   O9        1.0  0.5856957767590885  0.7274812808016263  0.17659822206601922  1.0000
  O   O10       1.0  0.4143026767447252  0.2725206632555199  0.8234020778627879  1.0000
  O   O11       1.0  0.6679222182937891  0.6551659919745062  0.03875766562349983  1.0000
  O   O12       1.0  0.33207538905204353  0.3448322785052653  0.9612412231467927  1.0000
