data_image0
_chemical_formula_structural       CuH16C10N16Cl2O6
_chemical_formula_sum              "Cu1 H16 C10 N16 Cl2 O6"
_cell_length_a       6.810107537709222
_cell_length_b       8.118928827467082
_cell_length_c       10.157137552339913
_cell_angle_alpha    107.55580207401397
_cell_angle_beta     101.04698300596475
_cell_angle_gamma    90.93806667247708

_space_group_name_H-M_alt    "P 1"
_space_group_IT_number       1

loop_
  _space_group_symop_operation_xyz
  'x, y, z'

loop_
  _atom_site_type_symbol
  _atom_site_label
  _atom_site_symmetry_multiplicity
  _atom_site_fract_x
  _atom_site_fract_y
  _atom_site_fract_z
  _atom_site_occupancy
  Cu  Cu1       1.0  0.4999959956720447  0.9999993100696329  0.5000009275738506  1.0000
  H   H1        1.0  0.6779957192294361  0.40247145188543954  0.5629053295120059  1.0000
  H   H2        1.0  0.322008159926618  0.5975249589042946  0.4370949189782536  1.0000
  H   H3        1.0  0.841532736752093  0.6773958187585765  0.7429999969555183  1.0000
  H   H4        1.0  0.1584650500754776  0.32259929238963286  0.2569952105311941  1.0000
  H   H5        1.0  0.029001743971733215  0.6358085744495697  0.8756614188835528  1.0000
  H   H6        1.0  0.9709995873216073  0.36419303139366843  0.12433583611008463  1.0000
  H   H7        1.0  0.8253222718126167  0.8754220090729917  0.9788234410107891  1.0000
  H   H8        1.0  0.17468044610806996  0.12457830847689878  0.0211736769044819  1.0000
  H   H9        1.0  0.8145322916376542  0.7008410400180269  0.0471538266732452  1.0000
  H   H10       1.0  0.18547192308338364  0.2991592851359073  0.9528434858298951  1.0000
  H   H11       1.0  0.48278668779217065  0.7884116500613063  0.01602568901261496  1.0000
  H   H12       1.0  0.5172156945635322  0.21158475312439157  0.9839743648897753  1.0000
  H   H13       1.0  0.4742322220601879  0.5899396898546603  0.8798075379137131  1.0000
  H   H14       1.0  0.5257717685303618  0.4100580235004685  0.1201920594963184  1.0000
  H   H15       1.0  0.11372652678856102  0.9776203574171735  0.6555345804094017  1.0000
  H   H16       1.0  0.8862720198967082  0.022383765000668604  0.3444717934590856  1.0000
  C   C1        1.0  0.7037874618831381  0.3541157144689464  0.653117394213325  1.0000
  C   C2        1.0  0.2962150281226029  0.6458819712781151  0.34688495684821413  1.0000
  C   C3        1.0  0.8672790383926453  0.6316861227135817  0.8354011779747452  1.0000
  C   C4        1.0  0.13272207129318048  0.36831288466687084  0.1645963964328772  1.0000
  C   C5        1.0  0.7676936500649918  0.7396096554317285  0.9519242066875792  1.0000
  C   C6        1.0  0.23230745962084134  0.2603893519487245  0.048073367720043315  1.0000
  C   C7        1.0  0.5391773943805092  0.7253525313066759  0.9204002240948697  1.0000
  C   C8        1.0  0.4608267063830596  0.2746464779458436  0.0795997049814048  1.0000
  C   C9        1.0  0.2462800029358903  0.923370745592159  0.6978935889513096  1.0000
  C   C10       1.0  0.7537210979195308  0.07662821511222971  0.30211086468150944  1.0000
  N   N1        1.0  0.7890773162300418  0.4498824535641362  0.7845511706561011  1.0000
  N   N2        1.0  0.21092528647167796  0.5501165414163369  0.2154495465787605  1.0000
  N   N3        1.0  0.7968447667544536  0.3502124556442043  0.8709540303233894  1.0000
  N   N4        1.0  0.20315655823145554  0.6497891168589904  0.1290481384025313  1.0000
  N   N5        1.0  0.7185760633335079  0.1970994340567174  0.7933485771698088  1.0000
  N   N6        1.0  0.2814236521560574  0.8029008216090293  0.20665503079492004  1.0000
  N   N7        1.0  0.6602439393173682  0.1956108457171766  0.6570947329150698  1.0000
  N   N8        1.0  0.3397571627995362  0.8043881216552152  0.34290873797129257  1.0000
  N   N9        1.0  0.2660434029305492  0.8636783406463879  0.8079576260749165  1.0000
  N   N10       1.0  0.7339580297053911  0.13632451441817042  0.19204683981016046  1.0000
  N   N11       1.0  0.4514275892172819  0.8096719782107088  0.8164795858748802  1.0000
  N   N12       1.0  0.548572021145219  0.19032700822968002  0.183519759437786  1.0000
  N   N13       1.0  0.5438623279337591  0.8311227399976818  0.7198322458479256  1.0000
  N   N14       1.0  0.45613406848200805  0.16887363943984474  0.28016604695653063  1.0000
  N   N15       1.0  0.4148973628947346  0.9041724817868303  0.6439431083343052  1.0000
  N   N16       1.0  0.585097755805215  0.09582647517342482  0.3560566359612097  1.0000
  Cl  Cl1       1.0  0.1676639148867025  0.34212133739114853  0.6022120304785687  1.0000
  Cl  Cl2       1.0  0.8323331476130845  0.6578828441027369  0.3977843213374754  1.0000
  O   O1        1.0  0.19353907867816386  0.16554645720003694  0.5048888908883313  1.0000
  O   O2        1.0  0.8064652424314287  0.834455143847258  0.4951117015204147  1.0000
  O   O3        1.0  0.30054861811089484  0.47290744750870334  0.5754283429485909  1.0000
  O   O4        1.0  0.6994497208432263  0.5270941497944579  0.4245675401228509  1.0000
  O   O5        1.0  0.24431614394875104  0.34270822055039224  0.7511266162244895  1.0000
  O   O6        1.0  0.7556738752412997  0.6573011065128329  0.24887008931715124  1.0000
