data_image0
_chemical_formula_structural       Zn8H60C72Cl4O26
_chemical_formula_sum              "Zn8 H60 C72 Cl4 O26"
_cell_length_a       17.805974439882714
_cell_length_b       18.64705218181987
_cell_length_c       23.395704995305746
_cell_angle_alpha    66.58183044812974
_cell_angle_beta     69.60351056425878
_cell_angle_gamma    89.96246557389838

_space_group_name_H-M_alt    "P 1"
_space_group_IT_number       1

loop_
  _space_group_symop_operation_xyz
  'x, y, z'

loop_
  _atom_site_type_symbol
  _atom_site_label
  _atom_site_symmetry_multiplicity
  _atom_site_fract_x
  _atom_site_fract_y
  _atom_site_fract_z
  _atom_site_occupancy
  Zn  Zn1       1.0  0.1185841498496032  0.531383040284659  0.9413136799419988  1.0000
  Zn  Zn2       1.0  0.9719209237914227  0.5596276346176338  0.050942800518278465  1.0000
  Zn  Zn3       1.0  0.9764452325209235  0.389192018173709  0.05023612093337709  1.0000
  Zn  Zn4       1.0  0.9388270760831857  0.5304824439014976  0.934445645105754  1.0000
  Zn  Zn5       1.0  0.3851817649155365  0.9773547321372646  0.04967655478778001  1.0000
  Zn  Zn6       1.0  0.5298015731301078  0.11616588671246567  0.9366178654457045  1.0000
  Zn  Zn7       1.0  0.5238615487198571  0.9464055878980557  0.9365088596282335  1.0000
  Zn  Zn8       1.0  0.5674568650231677  0.9725232513181576  0.05051302437375694  1.0000
  H   H1        1.0  0.49688777961753056  0.8673493265478951  0.2633754451872365  1.0000
  H   H2        1.0  0.43222709569280937  0.804249293756598  0.3892107034740279  1.0000
  H   H3        1.0  0.2605965995134127  0.8749426872092838  0.25273641591284973  1.0000
  H   H4        1.0  0.2511950494814172  0.6311094801957892  0.7376327389311542  1.0000
  H   H5        1.0  0.017115408634445804  0.6380257800953828  0.7227803215995294  1.0000
  H   H6        1.0  0.08443015526857783  0.7008572038159288  0.5971150815767244  1.0000
  H   H7        1.0  0.6308085021396224  0.02084105729571919  0.7282588719291994  1.0000
  H   H8        1.0  0.7002148350979169  0.08520641373493018  0.6025748653767166  1.0000
  H   H9        1.0  0.6271993272617848  0.25019344250857495  0.7306955638171999  1.0000
  H   H10       1.0  0.8708461330684685  0.2552707691930819  0.25716915878071234  1.0000
  H   H11       1.0  0.8681183002502239  0.48506964060219804  0.2587669743735361  1.0000
  H   H12       1.0  0.80948232475005  0.42112418395587525  0.3849148674011361  1.0000
  H   H13       1.0  0.19907393032487164  0.3023180974092127  0.9106411749277968  1.0000
  H   H14       1.0  0.1271168881466096  0.23055048512046022  0.9870163065440211  1.0000
  H   H15       1.0  0.2163968444971616  0.13884632494190188  0.9843505112945791  1.0000
  H   H16       1.0  0.2881651371656701  0.21140732548063562  0.90832921121838  1.0000
  H   H17       1.0  0.21583472153220376  0.12479765865290911  0.09571530167900733  1.0000
  H   H18       1.0  0.2877222784251856  0.18585703282747795  0.09968354366721138  1.0000
  H   H19       1.0  0.1275392245838987  0.21772568574899506  0.09836801177635832  1.0000
  H   H20       1.0  0.2007237207094335  0.27887300467158826  0.10088998820452842  1.0000
  H   H21       1.0  0.3035528192085124  0.3919611308236596  0.9136551023263736  1.0000
  H   H22       1.0  0.3041445894431475  0.3834107127073522  0.991019818208855  1.0000
  H   H23       1.0  0.3925427302418711  0.290786941981338  0.9901393525588774  1.0000
  H   H24       1.0  0.39273319007836693  0.30031105512453843  0.9123909250695164  1.0000
  H   H25       1.0  0.8902980267460379  0.8002476241198406  0.904720089218067  1.0000
  H   H26       1.0  0.887072629405047  0.7874233273327176  0.9846753051772553  1.0000
  H   H27       1.0  0.7978186109477291  0.8794453817965288  0.9860178305713847  1.0000
  H   H28       1.0  0.8012154553406815  0.8912655010698244  0.9062403565229149  1.0000
  H   H29       1.0  0.6943286105355353  0.7757101659808753  0.09161212073065887  1.0000
  H   H30       1.0  0.622490313850882  0.7141116739439609  0.08807322294056527  1.0000
  H   H31       1.0  0.7822224324914372  0.6823594219883302  0.09047649098297235  1.0000
  H   H32       1.0  0.7105658622414308  0.6222690663583916  0.08528992450099793  1.0000
  H   H33       1.0  0.7891140729908273  0.7124625177670936  0.8967634282815881  1.0000
  H   H34       1.0  0.7161349885742964  0.6392779959489089  0.970156244192829  1.0000
  H   H35       1.0  0.6263523470584288  0.7304534005189396  0.9727506090487167  1.0000
  H   H36       1.0  0.6989947129770753  0.8032788513557206  0.899070508138067  1.0000
  H   H37       1.0  0.16249355103280289  0.7930828475522275  0.9368065346770607  1.0000
  H   H38       1.0  0.246897803181639  0.7568803940700446  0.896227825066859  1.0000
  H   H39       1.0  0.33384443069927267  0.8528071933704522  0.8938573628360873  1.0000
  H   H40       1.0  0.2489446549143466  0.8875372459403933  0.9355842696978699  1.0000
  H   H41       1.0  0.39399136847168137  0.7437977863689722  0.9608453702344663  1.0000
  H   H42       1.0  0.35284574750545517  0.7025740998832359  0.049624663729766025  1.0000
  H   H43       1.0  0.30558457576820786  0.6478591081154333  0.9641084620311632  1.0000
  H   H44       1.0  0.2643477120275008  0.6080154410971444  0.052890548498190526  1.0000
  H   H45       1.0  0.10172267477565808  0.7351894713855314  0.06501457935229385  1.0000
  H   H46       1.0  0.14268277411868976  0.6592160762926226  0.11240289116692287  1.0000
  H   H47       1.0  0.2316642057275544  0.7533475451639119  0.1100830498083596  1.0000
  H   H48       1.0  0.1898293500367672  0.8292719151404312  0.06353309593518472  1.0000
  H   H49       1.0  0.8989754305653362  0.2678425122253144  0.9295014813153771  1.0000
  H   H50       1.0  0.8542356285472152  0.34357624161401634  0.8846686761989417  1.0000
  H   H51       1.0  0.7684628811302687  0.24749322105571983  0.886131903072567  1.0000
  H   H52       1.0  0.8120809092541278  0.17216537537500898  0.9326170578811243  1.0000
  H   H53       1.0  0.6488577941769335  0.29774021857176786  0.9460349151202224  1.0000
  H   H54       1.0  0.6056739024185871  0.25660947835373077  0.034735972859124414  1.0000
  H   H55       1.0  0.735361147757864  0.39229221998678543  0.9462040385730648  1.0000
  H   H56       1.0  0.6927689367959288  0.3494275176547673  0.0349641356232199  1.0000
  H   H57       1.0  0.8388874555509813  0.20530539634923872  0.05776047393407432  1.0000
  H   H58       1.0  0.7558035204678787  0.23918466566660604  0.10115481699826033  1.0000
  H   H59       1.0  0.6665463167939975  0.14641061205711028  0.10235209540631028  1.0000
  H   H60       1.0  0.7497341090336748  0.11099394823496309  0.06071148023374211  1.0000
  C   C1        1.0  0.1416169870180042  0.6349993677746396  0.003311586574803031  1.0000
  C   C2        1.0  0.9083381373571766  0.4115554276941395  0.17565512678290682  1.0000
  C   C3        1.0  0.1455071716359413  0.36485322899439143  0.0005277519194564648  1.0000
  C   C4        1.0  0.8606155278605241  0.3658369136547391  0.990480766592974  1.0000
  C   C5        1.0  0.09109536572679393  0.5932428639799029  0.8128614903559567  1.0000
  C   C6        1.0  0.8608638035345492  0.6432294586269264  0.9886400753294992  1.0000
  C   C7        1.0  0.361332774234988  0.14274255558775906  0.99653642824196  1.0000
  C   C8        1.0  0.5839476566202678  0.09393779613296259  0.8114841186147785  1.0000
  C   C9        1.0  0.35583082541785416  0.8632652214446918  0.9980067775278487  1.0000
  C   C10       1.0  0.6434853810899668  0.8645598465442389  0.9919805337419021  1.0000
  C   C11       1.0  0.4195895899454171  0.9130041281852924  0.1753053534356682  1.0000
  C   C12       1.0  0.6469094495249764  0.13948930936994938  0.9924242829782628  1.0000
  C   C13       1.0  0.3825815504720182  0.8749109795222123  0.25062127003185714  1.0000
  C   C14       1.0  0.4311139946011408  0.854844496141453  0.28907485440998937  1.0000
  C   C15       1.0  0.39517173017109297  0.8198244539286249  0.35883858891500614  1.0000
  C   C16       1.0  0.3097246842208747  0.8032873303168129  0.3925858760224372  1.0000
  C   C17       1.0  0.2618981649909314  0.823801236624412  0.3527055394971442  1.0000
  C   C18       1.0  0.297842040099141  0.859247257284039  0.2828717622327447  1.0000
  C   C19       1.0  0.2737750909458397  0.7676255082694111  0.4635238581982081  1.0000
  C   C20       1.0  0.24312215087847727  0.736952092272787  0.5249501958245234  1.0000
  C   C21       1.0  0.20599914091322086  0.7016642817426015  0.5958330256730522  1.0000
  C   C22       1.0  0.2524085861885865  0.6813432593000995  0.6368513403231972  1.0000
  C   C23       1.0  0.2150027214794505  0.6464585220356652  0.7066275086534122  1.0000
  C   C24       1.0  0.1301430775186319  0.6308215543891648  0.7376445715012637  1.0000
  C   C25       1.0  0.08300430604366231  0.6504967765827914  0.6980251742586887  1.0000
  C   C26       1.0  0.12040240706667045  0.6853157743052234  0.6283695417905835  1.0000
  C   C27       1.0  0.6247688035644856  0.1317931095757103  0.7365995308249254  1.0000
  C   C28       1.0  0.6454740820997175  0.0850003130993784  0.7006928776062294  1.0000
  C   C29       1.0  0.6839116706164106  0.12065582229256219  0.6312144081149071  1.0000
  C   C30       1.0  0.7030236769351603  0.20400800333687386  0.5953833418642205  1.0000
  C   C31       1.0  0.6820951334010203  0.2501157674846723  0.6326894005114951  1.0000
  C   C32       1.0  0.6433052618086348  0.214448267330269  0.7023529480714574  1.0000
  C   C33       1.0  0.740859795591362  0.23908071545007908  0.5246770820481359  1.0000
  C   C34       1.0  0.7722031723981573  0.26726571417794537  0.4633648088054371  1.0000
  C   C35       1.0  0.8065093571641668  0.3021142702132238  0.39252286312331114  1.0000
  C   C36       1.0  0.8244430899717231  0.2557509560518553  0.35534530571251827  1.0000
  C   C37       1.0  0.8571711747831114  0.2912168691183438  0.28540314351225504  1.0000
  C   C38       1.0  0.872722755967196  0.3739000942352035  0.2507936958040419  1.0000
  C   C39       1.0  0.8554897812726168  0.42089887697630246  0.28662863532090915  1.0000
  C   C40       1.0  0.823071337127665  0.3854732115858751  0.3563699287847014  1.0000
  C   C41       1.0  0.19057282904000766  0.2601694702303802  0.9620786774499807  1.0000
  C   C42       1.0  0.24977417053877818  0.19935442507780715  0.9605464104421843  1.0000
  C   C43       1.0  0.30465581454058105  0.20370997791169998  0.9982638810359392  1.0000
  C   C44       1.0  0.24954402853888516  0.18513863995210753  0.07164373164660282  1.0000
  C   C45       1.0  0.19114786152260166  0.24663552769011676  0.07289584044804094  1.0000
  C   C46       1.0  0.2054399695056972  0.30654410564685713  0.00041876331457757824  1.0000
  C   C47       1.0  0.2938133260538862  0.34892297211614215  0.9649635520182472  1.0000
  C   C48       1.0  0.3525629953222945  0.28795353510492555  0.9641137684227844  1.0000
  C   C49       1.0  0.8490996066557699  0.7862543328856261  0.9566797652509891  1.0000
  C   C50       1.0  0.7897746045865972  0.8471021225745544  0.9576978720941369  1.0000
  C   C51       1.0  0.701035797775951  0.8040815381849525  0.9906386449678735  1.0000
  C   C52       1.0  0.6860369321039028  0.743713316045067  0.06315809742265088  1.0000
  C   C53       1.0  0.7446755935859457  0.6825126716462291  0.061892639435519994  1.0000
  C   C54       1.0  0.8009824890925612  0.7016724323332253  0.9885698703301956  1.0000
  C   C55       1.0  0.7491098984484876  0.6995795607337669  0.9486773930424236  1.0000
  C   C56       1.0  0.6896744593137567  0.7599496381715979  0.9502034216304197  1.0000
  C   C57       1.0  0.21910919598436604  0.7711803531390514  0.9395108006522294  1.0000
  C   C58       1.0  0.2769216571155937  0.8342781221092324  0.9382183104554898  1.0000
  C   C59       1.0  0.29684136150426343  0.8003754161596387  0.002419962295356006  1.0000
  C   C60       1.0  0.3368895781352634  0.7261998507622066  0.004881537435188928  1.0000
  C   C61       1.0  0.27828072984576824  0.6630898823982604  0.006869618277455957  1.0000
  C   C62       1.0  0.1984669930010128  0.6943644089981972  0.005087508171840178  1.0000
  C   C63       1.0  0.15899080049508288  0.7139084109123315  0.0658401106307097  1.0000
  C   C64       1.0  0.21753494787189703  0.7764044194755396  0.06449860598296922  1.0000
  C   C65       1.0  0.8407639552843094  0.28803725938637104  0.930115255686495  1.0000
  C   C66       1.0  0.7831170278417046  0.22459863099724933  0.9314276861919596  1.0000
  C   C67       1.0  0.7032356990143427  0.19934538915219946  0.9942401098927506  1.0000
  C   C68       1.0  0.6635828914895895  0.27389359099822025  0.9912386860491722  1.0000
  C   C69       1.0  0.7213397263650805  0.33617045538889556  0.9911045149719017  1.0000
  C   C70       1.0  0.801056663967664  0.3049043258228678  0.9929293709176861  1.0000
  C   C71       1.0  0.7819494002630947  0.22699985283699672  0.056510803763792694  1.0000
  C   C72       1.0  0.7232388240715935  0.16492301419518898  0.05771560096029306  1.0000
  Cl  Cl1       1.0  0.15731819457191415  0.8046427104774024  0.3910595533713775  1.0000
  Cl  Cl2       1.0  0.35709116667514706  0.6999626919115582  0.5999674197977215  1.0000
  Cl  Cl3       1.0  0.704833510944674  0.3520695993616058  0.5913194771378016  1.0000
  Cl  Cl4       1.0  0.8053353183734372  0.15375155088550935  0.39724626886013686  1.0000
  O   O1        1.0  0.0009957707116825896  0.5033411066989828  0.9930950910873477  1.0000
  O   O2        1.0  0.17177914284958723  0.6074577541956856  0.9595752394015876  1.0000
  O   O3        1.0  0.9185952771726491  0.4870436015449824  0.14687017031153726  1.0000
  O   O4        1.0  0.07155382606894989  0.33567418078019523  0.03945583412072304  1.0000
  O   O5        1.0  0.06797979601586232  0.6186418550068141  0.0442851130236193  1.0000
  O   O6        1.0  0.17280882002414444  0.4376861384069031  0.960962395923467  1.0000
  O   O7        1.0  0.9256301992213949  0.36515128663610597  0.14652912756243822  1.0000
  O   O8        1.0  0.9004074785763831  0.33934443033956535  0.028415418777612503  1.0000
  O   O9        1.0  0.01359229188788897  0.5795481801241705  0.8388820673758489  1.0000
  O   O10       1.0  0.8676085323707953  0.4381426106871159  0.949981833037505  1.0000
  O   O11       1.0  0.1389551709836283  0.5780757034689045  0.8445762804659581  1.0000
  O   O12       1.0  0.9002054390734814  0.6354691073916071  0.0266182849575714  1.0000
  O   O13       1.0  0.867807738881531  0.6071752174586819  0.9512371706087424  1.0000
  O   O14       1.0  0.501815239009737  0.002282882814618897  0.9945828231330651  1.0000
  O   O15       1.0  0.3293330567860906  0.06980387509312888  0.031053064879749608  1.0000
  O   O16       1.0  0.5649689634065781  0.14020052528355356  0.840626908741065  1.0000
  O   O17       1.0  0.4270482987419371  0.8798704636317962  0.9526059631451747  1.0000
  O   O18       1.0  0.4363373955089925  0.16892754645433422  0.9602865429121581  1.0000
  O   O19       1.0  0.3300526306582086  0.8952469455078569  0.038816019941784  1.0000
  O   O20       1.0  0.571658023249114  0.01837478116518549  0.8401717527231014  1.0000
  O   O21       1.0  0.6031945938056891  0.8767166977767499  0.9543669934411485  1.0000
  O   O22       1.0  0.4968106219396444  0.9220151873653605  0.1474529610492184  1.0000
  O   O23       1.0  0.6401787286544117  0.8986300499344038  0.030468774892277662  1.0000
  O   O24       1.0  0.370175393283283  0.933294878155884  0.145307987730405  1.0000
  O   O25       1.0  0.618603618034321  0.16610907790516896  0.9460319144446742  1.0000
  O   O26       1.0  0.6326895802478986  0.06797616877503997  0.03626415821715772  1.0000
