data_image0
_chemical_formula_structural       Cd2H48C48N8O12
_chemical_formula_sum              "Cd2 H48 C48 N8 O12"
_cell_length_a       10.127764472899974
_cell_length_b       10.097078668307178
_cell_length_c       13.656737914437826
_cell_angle_alpha    104.78481080126808
_cell_angle_beta     109.50476258083955
_cell_angle_gamma    94.71040736770942

_space_group_name_H-M_alt    "P 1"
_space_group_IT_number       1

loop_
  _space_group_symop_operation_xyz
  'x, y, z'

loop_
  _atom_site_type_symbol
  _atom_site_label
  _atom_site_symmetry_multiplicity
  _atom_site_fract_x
  _atom_site_fract_y
  _atom_site_fract_z
  _atom_site_occupancy
  Cd  Cd1       1.0  0.8509557120796105  0.5821670534518546  0.3988907876958124  1.0000
  Cd  Cd2       1.0  0.14904428231533728  0.4178342922166324  0.6011105528907449  1.0000
  H   H1        1.0  0.23474575795270178  0.8765108335707344  0.3858355631304208  1.0000
  H   H2        1.0  0.7652529817656558  0.12348949574659686  0.6141616125776892  1.0000
  H   H3        1.0  0.16047836636035842  0.003723140348107302  0.4596772584015909  1.0000
  H   H4        1.0  0.8395207724803839  0.9962792810667127  0.5403189520828491  1.0000
  H   H5        1.0  0.08892370977267207  0.9479712418831739  0.3156315540101104  1.0000
  H   H6        1.0  0.9110752280674886  0.05203013754344002  0.6843644072637716  1.0000
  H   H7        1.0  0.7340487050052572  0.09271417828627904  0.33219735178317933  1.0000
  H   H8        1.0  0.26595192379183896  0.9072851064952094  0.6677986241814153  1.0000
  H   H9        1.0  0.919015775178714  0.09112651068264913  0.4017691318292761  1.0000
  H   H10       1.0  0.08098425493480475  0.9088696359526196  0.5982282919708125  1.0000
  H   H11       1.0  0.8543366404307947  0.09183500190318485  0.264792289349387  1.0000
  H   H12       1.0  0.14566733168283008  0.9081653007423611  0.7352061691382943  1.0000
  H   H13       1.0  0.19403340073525044  0.5957371811101027  0.3641645615777946  1.0000
  H   H14       1.0  0.8059671937826709  0.4042672986440722  0.6358360629956507  1.0000
  H   H15       1.0  0.5206342734950056  0.5009854399246907  0.31014953579546045  1.0000
  H   H16       1.0  0.47936507354327057  0.49901800317564254  0.6898505830115196  1.0000
  H   H17       1.0  0.7986237196955415  0.7768946820347866  0.6020620896022777  1.0000
  H   H18       1.0  0.20137707294418314  0.22311084782867846  0.3979373205369469  1.0000
  H   H19       1.0  0.5943692267186053  0.8438580130743675  0.6607987755403002  1.0000
  H   H20       1.0  0.40563261240017573  0.15614751145474062  0.3392008911548388  1.0000
  H   H21       1.0  0.3458332965433542  0.728443123858277  0.5364131309896436  1.0000
  H   H22       1.0  0.6541716834519775  0.2715623806072146  0.46358803719563463  1.0000
  H   H23       1.0  0.0336580153692125  0.28832421025076377  0.1667168233417513  1.0000
  H   H24       1.0  0.9663440763020221  0.7116771125673937  0.8332872258238241  1.0000
  H   H25       1.0  0.011946342011491104  0.44939953368354685  0.2452672645845766  1.0000
  H   H26       1.0  0.98805555153794  0.5506007390253346  0.7547379990152194  1.0000
  H   H27       1.0  0.9728501408796433  0.24630741899771652  0.9775494015566649  1.0000
  H   H28       1.0  0.027150703311946207  0.7536928671665992  0.022454141842423836  1.0000
  H   H29       1.0  0.07878032254036782  0.670085395096166  0.1846255095626574  1.0000
  H   H30       1.0  0.921218631133094  0.32991593966452387  0.8153785017575641  1.0000
  H   H31       1.0  0.7017748231911723  0.6901593717337919  0.9205098276407496  1.0000
  H   H32       1.0  0.29822565471781814  0.30983363142088655  0.07948930055075461  1.0000
  H   H33       1.0  0.7520770452283686  0.7411081303984661  0.21088762155932272  1.0000
  H   H34       1.0  0.2479221494824131  0.2588890351355886  0.7891149176521707  1.0000
  H   H35       1.0  0.6946685417053758  0.3188455837299458  0.17751288534800114  1.0000
  H   H36       1.0  0.3053325377659776  0.681150549449882  0.8224862586527948  1.0000
  H   H37       1.0  0.6296651384020536  0.2565428331542421  0.9739744485222842  1.0000
  H   H38       1.0  0.3703357415081073  0.743452253976841  0.026025178090343114  1.0000
  H   H39       1.0  0.628738022021672  0.44887605799888786  0.8892531584317851  1.0000
  H   H40       1.0  0.3712624172899694  0.5511221523100929  0.11074842290140198  1.0000
  H   H41       1.0  0.6328515307648886  0.8956076387453679  0.880755757263266  1.0000
  H   H42       1.0  0.3671441153106088  0.10438747911803864  0.11924185474739349  1.0000
  H   H43       1.0  0.6586726884940574  0.0404800718805092  0.9950555062426076  1.0000
  H   H44       1.0  0.34131817010285925  0.9595119372951763  0.004941063735103249  1.0000
  H   H45       1.0  0.8159748758749644  0.9456263735535656  0.8146384671556034  1.0000
  H   H46       1.0  0.184019435450459  0.05437815038837361  0.1853584226151739  1.0000
  H   H47       1.0  0.9291848589800722  0.004996671529163202  0.1575452511787603  1.0000
  H   H48       1.0  0.07080905898052953  0.9950057440731334  0.8424555311052586  1.0000
  C   C1        1.0  0.028719433156361208  0.8017735369067511  0.38902910083733383  1.0000
  C   C2        1.0  0.971278468280474  0.19822781943044995  0.6109717266373949  1.0000
  C   C3        1.0  0.13651939717532707  0.9133436856471349  0.3875901775700043  1.0000
  C   C4        1.0  0.8634805900226683  0.08665768032404493  0.6124075039045849  1.0000
  C   C5        1.0  0.8758328161165141  0.28924812895652974  0.37631247398422113  1.0000
  C   C6        1.0  0.12417389055432447  0.7107500818306182  0.6236847921052943  1.0000
  C   C7        1.0  0.8438050258952997  0.1324468543224384  0.3439263775025835  1.0000
  C   C8        1.0  0.1561958453785124  0.8675482571718764  0.6560688581756793  1.0000
  C   C9        1.0  0.41284312986200433  0.6085126796019937  0.41161071717786507  1.0000
  C   C10       1.0  0.5871599596151923  0.39149387345987924  0.588390918928539  1.0000
  C   C11       1.0  0.5322076776926608  0.5780660264153356  0.38573019169728434  1.0000
  C   C12       1.0  0.4677927187034571  0.42193740322956336  0.614271647310396  1.0000
  C   C13       1.0  0.6873927475358528  0.7340045285698977  0.550260687546931  1.0000
  C   C14       1.0  0.3126088920217357  0.2659999499104588  0.44973946176004626  1.0000
  C   C15       1.0  0.5743501502232817  0.7697285570442319  0.5816034662257152  1.0000
  C   C16       1.0  0.4256518898960807  0.23027800947307497  0.4183964496799816  1.0000
  C   C17       1.0  0.4358535824140972  0.7068990923906499  0.5119741940556394  1.0000
  C   C18       1.0  0.5641493075019142  0.2931064146224785  0.48802792466259587  1.0000
  C   C19       1.0  0.22620447701493154  0.43656524381462003  0.251807843056298  1.0000
  C   C20       1.0  0.7737965667378504  0.563436088398433  0.7481952177309665  1.0000
  C   C21       1.0  0.0659692754527299  0.40186689476571774  0.1914956266388685  1.0000
  C   C22       1.0  0.9340330129009189  0.5981354822222613  0.8085064762700753  1.0000
  C   C23       1.0  0.0294327048557932  0.45224446580651545  0.09219966122994797  1.0000
  C   C24       1.0  0.9705683432151633  0.5477568542249217  0.9078055950244917  1.0000
  C   C25       1.0  0.9847606764612635  0.3577840951166849  0.9875856199812175  1.0000
  C   C26       1.0  0.015239322251858294  0.6422172383701863  0.012417916072522007  1.0000
  C   C27       1.0  0.044525285037416006  0.5952040879777628  0.10355703133775758  1.0000
  C   C28       1.0  0.9554724211564077  0.4047962101290852  0.8964464742159846  1.0000
  C   C29       1.0  0.688396553456407  0.6101515498633818  0.0429743233860407  1.0000
  C   C30       1.0  0.3116022334956483  0.38984354793642245  0.9570247901147579  1.0000
  C   C31       1.0  0.7240927858572874  0.6354800065506367  0.1556556855737482  1.0000
  C   C32       1.0  0.27590725145318373  0.36451611978193915  0.8443453973383157  1.0000
  C   C33       1.0  0.6928583449713132  0.39840045240188005  0.13630458027162723  1.0000
  C   C34       1.0  0.3071412888985988  0.6015935940148226  0.8636952723969243  1.0000
  C   C35       1.0  0.6579537189729266  0.3650030991141975  0.024207411570287666  1.0000
  C   C36       1.0  0.34204696281543084  0.6349909379076096  0.9757934294765744  1.0000
  C   C37       1.0  0.6562648527418916  0.47160090020494044  0.9768450854084278  1.0000
  C   C38       1.0  0.34373622816885074  0.5283952289143486  0.023154790414757515  1.0000
  C   C39       1.0  0.6700293007720647  0.8499258108776215  0.033266411890956055  1.0000
  C   C40       1.0  0.3299659447416587  0.15006721894884126  0.9667314335209767  1.0000
  C   C41       1.0  0.6967843760352466  0.9442281473652584  0.9678237958338726  1.0000
  C   C42       1.0  0.303207523283163  0.05576387271822373  0.03217010341018067  1.0000
  C   C43       1.0  0.8530339603581754  0.973504792005635  0.9842085267127204  1.0000
  C   C44       1.0  0.1469576979229075  0.026491397304489805  0.01578684464005419  1.0000
  C   C45       1.0  0.8963330705911544  0.9699616944814625  0.8964620409329241  1.0000
  C   C46       1.0  0.10366253112942302  0.030038646778408  0.1035350969298392  1.0000
  C   C47       1.0  0.9595237479076316  0.0035830888448061004  0.08786548386679974  1.0000
  C   C48       1.0  0.04047060777269706  0.9964162117006763  0.9121318800518806  1.0000
  N   N1        1.0  0.6650728487349511  0.6406118941147059  0.4539988148598795  1.0000
  N   N2        1.0  0.3349287922620264  0.3593925803051192  0.5460020662694801  1.0000
  N   N3        1.0  0.2722026892013645  0.5474420447494951  0.3433322814345913  1.0000
  N   N4        1.0  0.7277979067559457  0.4525624309441414  0.6566690749612506  1.0000
  N   N5        1.0  0.7271159499905411  0.5315053714871425  0.20073325723869567  1.0000
  N   N6        1.0  0.27288388631934174  0.4684897128572275  0.7992675764628104  1.0000
  N   N7        1.0  0.6899561755891954  0.7168953061690504  0.9951559240462586  1.0000
  N   N8        1.0  0.31004490532155426  0.2831008229502459  0.004843951776926786  1.0000
  O   O1        1.0  0.9135573820433932  0.8307149869639616  0.3976855508938326  1.0000
  O   O2        1.0  0.08644091563704852  0.1692884695918053  0.6023128477124402  1.0000
  O   O3        1.0  0.05820433370246293  0.6782900338645848  0.3824275241457968  1.0000
  O   O4        1.0  0.9417965018527852  0.32171027666295526  0.6175716283189344  1.0000
  O   O5        1.0  0.0042111808931651114  0.35328610928014115  0.4106570286379281  1.0000
  O   O6        1.0  0.9957970586495508  0.6467037455377564  0.5893397452572414  1.0000
  O   O7        1.0  0.7694583959447245  0.352225300258077  0.36310962220515813  1.0000
  O   O8        1.0  0.2305493243653913  0.6477780961068549  0.6368932808715329  1.0000
  O   O9        1.0  0.3079426786906367  0.3697840287138803  0.21668237528295714  1.0000
  O   O10       1.0  0.692057318583096  0.6302173088335367  0.7833204289483858  1.0000
  O   O11       1.0  0.6376247635988649  0.8926884175670228  0.11399360206307567  1.0000
  O   O12       1.0  0.3623742243537648  0.10730772222098754  0.8860057606482882  1.0000
