data_image0
_chemical_formula_structural       Ca2H20C20N4Cl4
_chemical_formula_sum              "Ca2 H20 C20 N4 Cl4"
_cell_length_a       3.9494604712552186
_cell_length_b       9.247947576046101
_cell_length_c       16.45803201833434
_cell_angle_alpha    88.46407372496947
_cell_angle_beta     83.14550979374944
_cell_angle_gamma    77.1263217037016

_space_group_name_H-M_alt    "P 1"
_space_group_IT_number       1

loop_
  _space_group_symop_operation_xyz
  'x, y, z'

loop_
  _atom_site_type_symbol
  _atom_site_label
  _atom_site_symmetry_multiplicity
  _atom_site_fract_x
  _atom_site_fract_y
  _atom_site_fract_z
  _atom_site_occupancy
  Ca  Ca1       1.0  0.9845322499748473  0.9993765637047078  0.999589688093529  1.0000
  Ca  Ca2       1.0  0.2345931608571163  0.49913854923111967  0.5003397576542951  1.0000
  H   H1        1.0  0.23942849969407815  0.8781522506182285  0.17959475372032332  1.0000
  H   H2        1.0  0.2967040493135895  0.12101931345199549  0.8201099378229344  1.0000
  H   H3        1.0  0.6694924845385726  0.37810101638601173  0.3203113229640167  1.0000
  H   H4        1.0  0.367260153528228  0.6201681019963061  0.6799896197973965  1.0000
  H   H5        1.0  0.30571430493495905  0.6599099810322285  0.2755101139933132  1.0000
  H   H6        1.0  0.24133083818976064  0.3409419497549138  0.7255870463198093  1.0000
  H   H7        1.0  0.831751059914076  0.15980872499869042  0.22446425881067716  1.0000
  H   H8        1.0  0.21823500543999302  0.8399419198572886  0.774604846676837  1.0000
  H   H9        1.0  0.17632156871648147  0.4234069655491126  0.2288127928905723  1.0000
  H   H10       1.0  0.8246959599356167  0.5787285082707855  0.7729978038802727  1.0000
  H   H11       1.0  0.6553774489899522  0.92336848563496  0.2711443646817315  1.0000
  H   H12       1.0  0.8495879803869992  0.07798224985509708  0.7272092504885208  1.0000
  H   H13       1.0  0.978233935790371  0.41581778990400414  0.0905129402005826  1.0000
  H   H14       1.0  0.4774023487651174  0.5856414489019315  0.9107151413230951  1.0000
  H   H15       1.0  0.3191325347750435  0.9157893009776213  0.40934379887440286  1.0000
  H   H16       1.0  0.639735034908  0.08532231530731592  0.5894120198809958  1.0000
  H   H17       1.0  0.9045870722046203  0.6474732866050131  0.004452193183148296  1.0000
  H   H18       1.0  0.5507678998062598  0.3527790364082862  0.9957335903037644  1.0000
  H   H19       1.0  0.15963474867128685  0.1474519181199696  0.49536933106286807  1.0000
  H   H20       1.0  0.7970183039324324  0.8525817845822417  0.5043423380646033  1.0000
  C   C1        1.0  0.17940243220522933  0.7738031553077888  0.1630289123562321  1.0000
  C   C2        1.0  0.11383970508920511  0.2258885191685707  0.8369611921270348  1.0000
  C   C3        1.0  0.5929244072132889  0.2737320809171493  0.3368609787458113  1.0000
  C   C4        1.0  0.20134979661570884  0.7251290063397987  0.6631588921073117  1.0000
  C   C5        1.0  0.2188544471081213  0.6522389099434635  0.2156582928336235  1.0000
  C   C6        1.0  0.08447791226839017  0.3484620041506261  0.78509302469174  1.0000
  C   C7        1.0  0.6850125879953312  0.15215854047323774  0.28427968250346675  1.0000
  C   C8        1.0  0.12112751365788883  0.8476389710362611  0.7150246002541749  1.0000
  C   C9        1.0  0.14638423754205807  0.5212077042360762  0.1896229133405996  1.0000
  C   C10       1.0  0.8530641297523752  0.480098705491919  0.8115293729804947  1.0000
  C   C11       1.0  0.5862168562305141  0.0211753412360878  0.3103031078472398  1.0000
  C   C12       1.0  0.9160436256971134  0.9794025417076357  0.6886603576698035  1.0000
  C   C13       1.0  0.03541041278622718  0.5168024217175498  0.11259342102595582  1.0000
  C   C14       1.0  0.658723976824319  0.4841475040812141  0.8882605842446196  1.0000
  C   C15       1.0  0.3984195535223164  0.016758206731459804  0.3873021996366361  1.0000
  C   C16       1.0  0.7986952342065124  0.9837603034959203  0.6118272927079216  1.0000
  C   C17       1.0  0.9984518016014904  0.6443187209174539  0.06442302243128491  1.0000
  C   C18       1.0  0.7015909675627724  0.35584582442319157  0.9358069999454556  1.0000
  C   C19       1.0  0.3132450409949638  0.1442859413046946  0.4354097920215168  1.0000
  C   C20       1.0  0.8879914344180689  0.8554630295184823  0.5643083186505535  1.0000
  N   N1        1.0  0.06912847009712647  0.7714195153029735  0.088704183362097  1.0000
  N   N2        1.0  0.9249749908157907  0.22803858813197309  0.9110035859223018  1.0000
  N   N3        1.0  0.40834039763218016  0.27134251163811735  0.4111374449106719  1.0000
  N   N4        1.0  0.08679722358790772  0.7275794758235962  0.5890277932027458  1.0000
  Cl  Cl1       1.0  0.37439447025321454  0.1198199150783381  0.0932772484170172  1.0000
  Cl  Cl2       1.0  0.5933333509430335  0.8786175963820569  0.9059687260378553  1.0000
  Cl  Cl3       1.0  0.717513577652568  0.6197334296909602  0.40667180699433203  1.0000
  Cl  Cl4       1.0  0.7503647021223043  0.37823598472508013  0.5939495895490197  1.0000
