data_image0
_chemical_formula_structural       Ag8H40C56S8O8
_chemical_formula_sum              "Ag8 H40 C56 S8 O8"
_cell_length_a       5.638691674
_cell_length_b       7.547732261
_cell_length_c       31.9178
_cell_angle_alpha    90.0
_cell_angle_beta     90.0
_cell_angle_gamma    90.0

_space_group_name_H-M_alt    "P 1"
_space_group_IT_number       1

loop_
  _space_group_symop_operation_xyz
  'x, y, z'

loop_
  _atom_site_type_symbol
  _atom_site_label
  _atom_site_symmetry_multiplicity
  _atom_site_fract_x
  _atom_site_fract_y
  _atom_site_fract_z
  _atom_site_occupancy
  Ag  Ag1       1.0  0.0002589253118259  0.8093676072169843  0.23609678611934726  1.0000
  Ag  Ag2       1.0  0.4997418129799982  0.19064004263041315  0.7360992925577603  1.0000
  Ag  Ag3       1.0  0.9997567389601514  0.3093604700401259  0.26390478040466536  1.0000
  Ag  Ag4       1.0  0.5002490228374228  0.6906365805971717  0.7639038404902576  1.0000
  Ag  Ag5       1.0  0.999739004349749  0.19063474302536326  0.7639047804046653  1.0000
  Ag  Ag6       1.0  0.5002525697595033  0.8093702570195094  0.263901020747042  1.0000
  Ag  Ag7       1.0  0.0002536049287087  0.6906392303996967  0.7360961595097422  1.0000
  Ag  Ag8       1.0  0.4997595475904006  0.3093631198426507  0.23609647281454466  1.0000
  H   H1        1.0  0.2985444314613162  0.6667433112330983  0.14183120390502774  1.0000
  H   H2        1.0  0.20146872105779323  0.333244465095369  0.6418305772954296  1.0000
  H   H3        1.0  0.701451724739222  0.16674809816760225  0.3581694227045701  1.0000
  H   H4        1.0  0.798548716675228  0.8332463026671777  0.8581678561805643  1.0000
  H   H5        1.0  0.701451724739222  0.333249764700419  0.8581684827901697  1.0000
  H   H6        1.0  0.7985416228310669  0.6667578851469784  0.3581697360093726  1.0000
  H   H7        1.0  0.2985426580002795  0.8332502773709578  0.6418330837338431  1.0000
  H   H8        1.0  0.2014314783759517  0.16676002227896455  0.14183026399062723  1.0000
  H   H9        1.0  0.3857703392490919  0.7743464921509615  0.06989234847013387  1.0000
  H   H10       1.0  0.11425877441937621  0.22564790868381127  0.5698914085557261  1.0000
  H   H11       1.0  0.6142470984839292  0.2743499541842027  0.4301095313586741  1.0000
  H   H12       1.0  0.8857622102357183  0.7256550458606696  0.9301076515298659  1.0000
  H   H13       1.0  0.6142435515618487  0.22565453319012366  0.9301067116154653  1.0000
  H   H14       1.0  0.8857480225474036  0.7743531166572737  0.4301098446634767  1.0000
  H   H15       1.0  0.3857508311776527  0.7256510711568822  0.569893601689337  1.0000
  H   H16       1.0  0.1142357194258636  0.2743526039867277  0.06989015533652317  1.0000
  H   H17       1.0  0.1017771556203755  0.7143059416479218  0.011792479431541396  1.0000
  H   H18       1.0  0.3982342234376972  0.2856977334956882  0.5117905996027261  1.0000
  H   H19       1.0  0.8982420555736894  0.21430277917485097  0.4882078338732612  1.0000
  H   H20       1.0  0.6017796673732434  0.7856876469561342  0.9882087737876686  1.0000
  H   H21       1.0  0.8982278678853675  0.28569640859442563  0.9882075205684584  1.0000
  H   H22       1.0  0.601761932762841  0.7143006420428719  0.4882078338732612  1.0000
  H   H23       1.0  0.1017718352372512  0.7856942714624469  0.5117943592603493  1.0000
  H   H24       1.0  0.3982164888272948  0.21430807877990085  0.011790286297930696  1.0000
  H   H25       1.0  0.7254750279860788  0.5515590452924286  0.026383710656752192  1.0000
  H   H26       1.0  0.7745360541946198  0.4484525792587561  0.5263796376943262  1.0000
  H   H27       1.0  0.2745388628248691  0.0515426338067329  0.47361722925765537  1.0000
  H   H28       1.0  0.2254796100773646  0.94844116781794  0.9736191090864637  1.0000
  H   H29       1.0  0.2745264485975838  0.4484539041600186  0.9736175425624578  1.0000
  H   H30       1.0  0.22546719585008654  0.5515418215760164  0.473618795781661  1.0000
  H   H31       1.0  0.7254714810639983  0.9484517670280397  0.5263830840471471  1.0000
  H   H32       1.0  0.7745129992011002  0.0515572077206201  0.026383084047147093  1.0000
  H   H33       1.0  0.6356829220735278  0.4508029540980588  0.09895136882867918  1.0000
  H   H34       1.0  0.8643228397240463  0.549202045946821  0.5989476091710557  1.0000
  H   H35       1.0  0.3643132341270103  0.950792867558498  0.4010492577809259  1.0000
  H   H36       1.0  0.1356910510869014  0.0491843095598625  0.9010511376097339  1.0000
  H   H37       1.0  0.3643079137438932  0.5492060206506011  0.9010498843905308  1.0000
  H   H38       1.0  0.1356875041648209  0.4507910299866965  0.4010492577809259  1.0000
  H   H39       1.0  0.6356811486124911  0.0492081577825871  0.5989504289142715  1.0000
  H   H40       1.0  0.8642909174253219  0.9507968422622852  0.09894948899987097  1.0000
  C   C1        1.0  0.8971105874302125  0.4838897133211405  0.16704628765140225  1.0000
  C   C2        1.0  0.602905815133596  0.5161099871186892  0.6670440945177913  1.0000
  C   C3        1.0  0.1028873422313694  0.9838902259916795  0.3329546522629983  1.0000
  C   C4        1.0  0.3971027552942203  0.0161054997443557  0.8329549655678006  1.0000
  C   C5        1.0  0.1028837953092889  0.5161113120199516  0.8329527724341899  1.0000
  C   C6        1.0  0.3971133960604618  0.4838936880249278  0.33295339904379506  1.0000
  C   C7        1.0  0.8970875324366929  0.0161094744481431  0.6670462876514023  1.0000
  C   C8        1.0  0.6028898539842373  0.983883601485374  0.16704409451779154  1.0000
  C   C9        1.0  0.9608877933480713  0.552967415334237  0.124788362606445  1.0000
  C   C10       1.0  0.539130382676781  0.44703493490811047  0.6247871093872417  1.0000
  C   C11       1.0  0.03911368323559121  0.0529616030586411  0.375211637393555  1.0000
  C   C12       1.0  0.46089237543935724  0.9470221985660316  0.875213517222363  1.0000
  C   C13       1.0  0.03911368323559121  0.44703493490811047  0.8752091309551415  1.0000
  C   C14       1.0  0.4608799612120791  0.5529687402354995  0.3752125773079625  1.0000
  C   C15       1.0  0.9608718321987127  0.9470380973811816  0.6247867960824391  1.0000
  C   C16       1.0  0.5391037807611809  0.0529695524662159  0.12479055574005567  1.0000
  C   C17       1.0  0.1727155972174543  0.6437721731475676  0.1164704334258602  1.0000
  C   C18       1.0  0.3273064226068527  0.3562248774897299  0.616469806816262  1.0000
  C   C19       1.0  0.8272929732103691  0.1437716604770287  0.38352956657413967  1.0000
  C   C20       1.0  0.6727145620482489  0.856214790950176  0.8835308197933427  1.0000
  C   C21       1.0  0.8272965201324497  0.3562248774897299  0.8835273734405218  1.0000
  C   C22       1.0  0.6726986008988831  0.6437774727526175  0.3835305064885403  1.0000
  C   C23       1.0  0.1727031829901762  0.8562280399627938  0.6164707467306625  1.0000
  C   C24       1.0  0.3272780472302159  0.1437756351808162  0.11647199994987287  1.0000
  C   C25       1.0  0.2217003646012827  0.7027819504685554  0.07600335862747437  1.0000
  C   C26       1.0  0.27832874906719246  0.2972177499712743  0.5760036719322769  1.0000
  C   C27       1.0  0.778320620053819  0.2027787879954843  0.4239953881533153  1.0000
  C   C28       1.0  0.7216922355879092  0.7972103132342383  0.9239950748485197  1.0000
  C   C29       1.0  0.7783241669758995  0.2972203997737993  0.9239938216293095  1.0000
  C   C30       1.0  0.7216674071333529  0.7027872500736054  0.4239963280677229  1.0000
  C   C31       1.0  0.22168440345191703  0.7972222373456006  0.5760061783706902  1.0000
  C   C32       1.0  0.2783021471515923  0.20278276269927187  0.07600523845628257  1.0000
  C   C33       1.0  0.0615603796179442  0.6697746853212083  0.043504251546160284  1.0000
  C   C34       1.0  0.4384722809726044  0.3302289898224018  0.5435039382413576  1.0000
  C   C35       1.0  0.9384623784981941  0.1697715228481371  0.4564948085394391  1.0000
  C   C36       1.0  0.5615611179097755  0.8302162534803232  0.956496061758642  1.0000
  C   C37       1.0  0.9384535111929964  0.3302303147236643  0.9564941819298338  1.0000
  C   C38       1.0  0.5615327425331387  0.6697733604199457  0.4564948085394391  1.0000
  C   C39       1.0  0.0615444184685856  0.8302374519005229  0.5435067579845736  1.0000
  C   C40       1.0  0.43843503829076275  0.169776822453187  0.0435055047653634  1.0000
  C   C41       1.0  0.8503603809567011  0.57901629905205  0.05164077724655409  1.0000
  C   C42       1.0  0.6496613419902318  0.42098737609156  0.551639524027344  1.0000
  C   C43       1.0  0.1496517363932028  0.07901446148024861  0.4483589094486432  1.0000
  C   C44       1.0  0.3503631895869432  0.9209786144532686  0.9483614158870564  1.0000
  C   C45       1.0  0.1496410956269614  0.4209926756966098  0.9483595360582482  1.0000
  C   C46       1.0  0.3503436815155041  0.5790083496444822  0.4483607892774586  1.0000
  C   C47       1.0  0.8503550605735768  0.9209958381696739  0.5516398373321463  1.0000
  C   C48       1.0  0.649625872769434  0.079018436184036  0.05164140385615209  1.0000
  C   C49       1.0  0.7992900233899151  0.521705045149325  0.09207182199274647  1.0000
  C   C50       1.0  0.7007299260959741  0.4782999548955545  0.5920690022495305  1.0000
  C   C51       1.0  0.2007238674210257  0.021695258169941705  0.4079281780072534  1.0000
  C   C52       1.0  0.299294605481208  0.9782911932572561  0.9079309977504693  1.0000
  C   C53       1.0  0.2007043593495865  0.4783105541056473  0.9079284913120558  1.0000
  C   C54       1.0  0.2992768708708056  0.5216931210379627  0.40793037114087116  1.0000
  C   C55       1.0  0.7992793826236806  0.9783137165787181  0.5920702554687336  1.0000
  C   C56       1.0  0.7006944568751763  0.0217005577749916  0.09207150868794398  1.0000
  S   S1        1.0  0.10633672395402272  0.5165127571024186  0.20816754287576333  1.0000
  S   S2        1.0  0.3936675612598819  0.4834829686336165  0.7081659763517505  1.0000
  S   S3        1.0  0.8936505649413178  0.0165122444318797  0.2918330837338415  1.0000
  S   S4        1.0  0.6063285949406563  0.9834914307117375  0.7918352768674524  1.0000
  S   S5        1.0  0.893648791480274  0.4834922429424537  0.7918315172098358  1.0000
  S   S6        1.0  0.6063427826289782  0.516522031411256  0.2918330837338415  1.0000
  S   S7        1.0  0.10631898934362741  0.9834874560079498  0.7081662896565533  1.0000
  S   S8        1.0  0.3936675612598819  0.0165122444318797  0.20816660296135575  1.0000
  O   O1        1.0  0.7082032909182274  0.4028084058717241  0.1718266923158893  1.0000
  O   O2        1.0  0.7918202054897492  0.597187319864311  0.6718263790110865  1.0000
  O   O3        1.0  0.2918017325875155  0.9028128932460577  0.3281708012456974  1.0000
  O   O4        1.0  0.2081812710939133  0.0971775328849347  0.8281767540369314  1.0000
  O   O5        1.0  0.291805279509596  0.5971912945680984  0.8281686081120865  1.0000
  O   O6        1.0  0.2082007791653524  0.4028150303780366  0.3281717411601051  1.0000
  O   O7        1.0  0.7081749155415836  0.09718018268745961  0.6718257524014815  1.0000
  O   O8        1.0  0.7918131116455883  0.9027969944309078  0.17182857214469743  1.0000
