data_image0
_chemical_formula_structural       Co3H33C57N6O18
_chemical_formula_sum              "Co3 H33 C57 N6 O18"
_cell_length_a       10.933099511
_cell_length_b       16.489422563171075
_cell_length_c       16.487455249475005
_cell_angle_alpha    120.0004187005929
_cell_angle_beta     89.99994791847288
_cell_angle_gamma    90.00005736033052

_space_group_name_H-M_alt    "P 1"
_space_group_IT_number       1

loop_
  _space_group_symop_operation_xyz
  'x, y, z'

loop_
  _atom_site_type_symbol
  _atom_site_label
  _atom_site_symmetry_multiplicity
  _atom_site_fract_x
  _atom_site_fract_y
  _atom_site_fract_z
  _atom_site_occupancy
  Co  Co1       1.0  9.453927845e-07  0.32243470621921233  0.9999785655135868  1.0000
  Co  Co2       1.0  4.725423040000001e-07  8.388453451865739e-05  0.3226151155763333  1.0000
  Co  Co3       1.0  1.3912099209999996e-07  0.6775450599897468  0.677446465200113  1.0000
  H   H1        1.0  0.9999978921729565  0.5016991540702094  0.7884254659673856  1.0000
  H   H2        1.0  0.9999993862629851  0.21141061024771804  0.713219068345893  1.0000
  H   H3        1.0  0.9999988799985859  0.2866116192882231  0.4981298122112818  1.0000
  H   H4        1.0  1.2737284294000002e-06  0.49832677906528733  0.2869539460068751  1.0000
  H   H5        1.0  7.869684353e-07  0.7134743657153279  0.21178558786869678  1.0000
  H   H6        1.0  2.3317392461e-06  0.7885496206259931  0.5020511080080398  1.0000
  H   H7        1.0  9.354982281999998e-07  0.1510991048194867  0.15122765027751234  1.0000
  H   H8        1.0  0.9999999553262809  0.8486164007800525  0.999958746199397  1.0000
  H   H9        1.0  3.4632719800000006e-07  0.9998609118488843  0.8486871444924944  1.0000
  H   H10       1.0  0.5915295487963519  0.2500981862190417  0.8479304328220039  1.0000
  H   H11       1.0  0.4085096339017014  0.15203483170390805  0.40242486864330834  1.0000
  H   H12       1.0  0.5913152653503958  0.5977582419713772  0.7492722906569541  1.0000
  H   H13       1.0  0.4084716704723378  0.2500985324243532  0.8479300787337607  1.0000
  H   H14       1.0  0.5914906813162304  0.15203456920529132  0.4024239103058207  1.0000
  H   H15       1.0  0.4086845303066795  0.5977582419713772  0.7492722906569541  1.0000
  H   H16       1.0  0.5915718059458045  0.7498373444179124  0.5975850665928634  1.0000
  H   H17       1.0  0.4086320040440157  0.4020549299075639  0.15170015455980485  1.0000
  H   H18       1.0  0.5914096217847344  0.8483240787295614  0.2507105156536086  1.0000
  H   H19       1.0  0.40842886482600704  0.7498373444179124  0.5975850665928634  1.0000
  H   H20       1.0  0.5913688389177737  0.4020549299075639  0.15170015455980485  1.0000
  H   H21       1.0  0.40859138273102513  0.8483240787295614  0.2507105156536086  1.0000
  H   H22       1.0  0.81743162948478  0.2522344843845234  0.8550938077698832  1.0000
  H   H23       1.0  0.18261668938514933  0.14491072946584188  0.39732895895268433  1.0000
  H   H24       1.0  0.8172091309549501  0.6027085681064791  0.7472799610839759  1.0000
  H   H25       1.0  0.1825695765951565  0.2522344843845234  0.8550938077698832  1.0000
  H   H26       1.0  0.8173836182892131  0.14491072946584188  0.39732895895268433  1.0000
  H   H27       1.0  0.1827906851123515  0.6027082219011676  0.747280315172219  1.0000
  H   H28       1.0  0.817473883050461  0.7477807870793499  0.6027444421156717  1.0000
  H   H29       1.0  0.18273632151399263  0.39714487654308767  0.14470414664572218  1.0000
  H   H30       1.0  0.8173007410683439  0.8553574063313434  0.2527340891530374  1.0000
  H   H31       1.0  0.18252585271226  0.7477801783754148  0.6027438378664344  1.0000
  H   H32       1.0  0.8172645258004538  0.39714487654308767  0.14470414664572218  1.0000
  H   H33       1.0  0.1827002791380039  0.8553570601260247  0.2527344432412735  1.0000
  C   C1        1.0  5.87478759e-07  0.08538408288324469  0.9999704239682786  1.0000
  C   C2        1.0  4.778726676999994e-07  0.9998645286442736  0.08548303405110859  1.0000
  C   C3        1.0  1.2708728290000003e-07  0.9143931046550691  0.914482112767388  1.0000
  C   C4        1.0  0.999996800736767  0.3600552333833563  0.7613701939346313  1.0000
  C   C5        1.0  0.999995925627019  0.2385254863625904  0.5986591044154325  1.0000
  C   C6        1.0  0.9999961149112194  0.40121325971996685  0.6397738516397382  1.0000
  C   C7        1.0  5.9038631832e-06  0.6399704898088033  0.40148856558384705  1.0000
  C   C8        1.0  6.9794348789e-06  0.5988139410016372  0.2387645603156159  1.0000
  C   C9        1.0  5.2291035857e-06  0.7615548423419013  0.3604081864084065  1.0000
  C   C10       1.0  0.99999602644494  0.42826795864910866  0.7341109168766239  1.0000
  C   C11       1.0  0.9999967505274727  0.2657371099903402  0.694107877007852  1.0000
  C   C12       1.0  0.9999960642685154  0.30576565817778356  0.5715836019442477  1.0000
  C   C13       1.0  6.846352448500002e-06  0.5717502694493604  0.3060386237444489  1.0000
  C   C14       1.0  5.2568715958e-06  0.6942989943327263  0.2660697642733751  1.0000
  C   C15       1.0  6.009111508800001e-06  0.7342829024151242  0.4285933170200593  1.0000
  C   C16       1.0  9.263182647999999e-07  0.0849656516700961  0.0850792846627257  1.0000
  C   C17       1.0  5.517684090000009e-08  0.9147676828017596  0.9999820546713708  1.0000
  C   C18       1.0  2.5566177439999985e-07  0.999884128638655  0.9148536446719645  1.0000
  C   C19       1.0  0.6355966070222294  0.2838074719435966  0.916238455505983  1.0000
  C   C20       1.0  0.364426928140368  0.08374539926679603  0.3678269415830401  1.0000
  C   C21       1.0  0.6354867352283123  0.6323993273484021  0.7156519936453593  1.0000
  C   C22       1.0  0.3644045267693343  0.2838074719435966  0.916238455505983  1.0000
  C   C23       1.0  0.6355732757078982  0.08374539926679603  0.3678269415830401  1.0000
  C   C24       1.0  0.36451325721045447  0.6323989811430837  0.7156523477336023  1.0000
  C   C25       1.0  0.6356168568761902  0.7161126851721632  0.6321806724665748  1.0000
  C   C26       1.0  0.36448811350221183  0.36744518187968817  0.08342488461108388  1.0000
  C   C27       1.0  0.6355334882654445  0.9165930312341716  0.2843356703773524  1.0000
  C   C28       1.0  0.36438270255276  0.7161126851721632  0.6321806724665748  1.0000
  C   C29       1.0  0.6355118974729592  0.36744518187968817  0.08342488461108388  1.0000
  C   C30       1.0  0.3644667155704512  0.9165930312341716  0.2843356703773524  1.0000
  C   C31       1.0  2.6627087380000007e-07  0.17635545924652263  7.337244312626592e-06  1.0000
  C   C32       1.0  3.9792221430000005e-07  0.9998620608732196  0.1764328913836196  1.0000
  C   C33       1.0  0.9999992444757665  0.8234492416509767  0.8235618670718027  1.0000
  C   C34       1.0  0.7623548024545387  0.2837618480247175  0.9185571760665996  1.0000
  C   C35       1.0  0.2376760465288044  0.08145027822088481  0.36541674034709365  1.0000
  C   C36       1.0  0.762233961395026  0.6347406387676314  0.7158005551826748  1.0000
  C   C37       1.0  0.23764632484228804  0.2837618480247175  0.9185571760665996  1.0000
  C   C38       1.0  0.7623241569963711  0.08145027822088481  0.36541674034709365  1.0000
  C   C39       1.0  0.23776603770679125  0.63474029256232  0.715800909270918  1.0000
  C   C40       1.0  0.7623750523503787  0.7162067665235272  0.6346227251712407  1.0000
  C   C41       1.0  0.23773631696077763  0.3651389619790351  0.08120392284073566  1.0000
  C   C42       1.0  0.7622834586206438  0.9188362778982863  0.28421035157069247  1.0000
  C   C43       1.0  0.23762632997400607  0.7162064203182155  0.6346230792594838  1.0000
  C   C44       1.0  0.7622646077937817  0.36513991688828173  0.081204173001737  1.0000
  C   C45       1.0  0.2377176669867325  0.9188362778982863  0.28421035157069247  1.0000
  C   C46       1.0  0.5676204073815684  0.3260572936156905  0.9998116224340023  1.0000
  C   C47       1.0  0.4323819703916883  0.0001789901451161042  0.3265430181415852  1.0000
  C   C48       1.0  0.5676204651905365  0.6738097047746762  0.6734398052722524  1.0000
  C   C49       1.0  0.4323806248741137  0.3260572936156905  0.9998116224340023  1.0000
  C   C50       1.0  0.5676190089380172  0.0001789901451161042  0.3265430181415852  1.0000
  C   C51       1.0  0.43237976802937084  0.6738097047746762  0.6734398052722524  1.0000
  C   C52       1.0  3.071684354e-06  0.39709898488587225  0.865568783373206  1.0000
  C   C53       1.0  3.1329154737e-06  0.1343826744431526  0.531521488535745  1.0000
  C   C54       1.0  7.198263908500001e-06  0.4681565991862301  0.6024550282788823  1.0000
  C   C55       1.0  0.9999820197219194  0.6030062635722615  0.4686459522552937  1.0000
  C   C56       1.0  0.9999988339246286  0.531743861247442  0.13450628560759983  1.0000
  C   C57       1.0  0.9999962335749686  0.8657981507659541  0.3976977078136058  1.0000
  N   N1        1.0  0.8250551780223105  0.3240225373507643  0.9999052719494516  1.0000
  N   N2        1.0  0.17494994348931672  0.00013035113351390987  0.3243170263939917  1.0000
  N   N3        1.0  0.8250497512030108  0.6759358531905023  0.6757136696702731  1.0000
  N   N4        1.0  0.1749449331783097  0.3240225373507643  0.9999052719494516  1.0000
  N   N5        1.0  0.8250501271425392  0.00013035113351390987  0.3243170263939917  1.0000
  N   N6        1.0  0.1749513968562013  0.6759355069851906  0.6757140237585161  1.0000
  O   O1        1.0  0.999998411363386  0.33070355019778225  0.8885685178385572  1.0000
  O   O2        1.0  0.999997777620962  0.11145899570227878  0.44214694484711003  1.0000
  O   O3        1.0  0.9999963114366113  0.5576076550321574  0.6686740349974017  1.0000
  O   O4        1.0  8.4778585787e-06  0.6694852184861305  0.557989626088407  1.0000
  O   O5        1.0  3.2591504606000004e-06  0.4422993781697713  0.11135396337493118  1.0000
  O   O6        1.0  1.8026120756000002e-06  0.8889856144434914  0.3314363994071812  1.0000
  O   O7        1.0  2.813218885e-07  0.2557645674784368  0.07649571509879391  1.0000
  O   O8        1.0  2.783822666000003e-07  0.9234233182899345  0.1794415902236822  1.0000
  O   O9        1.0  0.9999993489283484  0.8205045098387274  0.744119542533369  1.0000
  O   O10       1.0  0.9999991286076552  0.744027810240759  0.8206065466904421  1.0000
  O   O11       1.0  0.9999999194737157  0.17934740565304014  0.9235383221425267  1.0000
  O   O12       1.0  0.9999997645698216  0.07635527392969277  0.25585203180040855  1.0000
  O   O13       1.0  1.4106695864799998e-05  0.4822035983912015  0.9161478152477968  1.0000
  O   O14       1.0  1.3985058636500002e-05  0.08378964574731636  0.5660346798592997  1.0000
  O   O15       1.0  3.10433196304e-05  0.4332693734023111  0.5172955320101239  1.0000
  O   O16       1.0  0.9999334617782765  0.5179210900958467  0.43423238255362423  1.0000
  O   O17       1.0  0.9999870649675843  0.5664684968915311  0.08409011509316142  1.0000
  O   O18       1.0  0.9999843022798772  0.9160877831956712  0.48285269140693304  1.0000
