data_image0
_chemical_formula_structural       Al2H16C32O10F2
_chemical_formula_sum              "Al2 H16 C32 O10 F2"
_cell_length_a       6.6238909870509195
_cell_length_b       15.2127241704831
_cell_length_c       15.31664238790241
_cell_angle_alpha    86.4245937899225
_cell_angle_beta     78.46536637063198
_cell_angle_gamma    77.30103908525541

_space_group_name_H-M_alt    "P 1"
_space_group_IT_number       1

loop_
  _space_group_symop_operation_xyz
  'x, y, z'

loop_
  _atom_site_type_symbol
  _atom_site_label
  _atom_site_symmetry_multiplicity
  _atom_site_fract_x
  _atom_site_fract_y
  _atom_site_fract_z
  _atom_site_occupancy
  Al  Al1       1.0  0.5000016344172735  0.5000191670868545  0.5000510611157123  1.0000
  Al  Al2       1.0  1.1751323810936184e-05  0.4999987224243795  0.5000569040010703  1.0000
  H   H1        1.0  0.23167866092839523  0.4384449174856613  0.6015462538564904  1.0000
  H   H2        1.0  0.7683531855270687  0.5615799239864429  0.39856586550285295  1.0000
  H   H3        1.0  0.8669184122269513  0.46259682007692493  0.9379667656375189  1.0000
  H   H4        1.0  0.13308243761748176  0.5363244193042362  0.0620952796975871  1.0000
  H   H5        1.0  0.711922730782561  0.4573694272076238  0.2315586445968449  1.0000
  H   H6        1.0  0.8006162790929993  0.4588614339233601  0.06838570496015704  1.0000
  H   H7        1.0  0.2882223002743771  0.5432496139975811  0.7685400338088612  1.0000
  H   H8        1.0  0.1995601870983492  0.5419037970661407  0.9317111092995772  1.0000
  H   H9        1.0  0.42360852792714326  0.7690997834160954  0.43921626307405853  1.0000
  H   H10       1.0  0.5371107189756685  0.9128137334228228  0.3878837368703784  1.0000
  H   H11       1.0  0.7882893643206758  0.773700458119869  0.5759978697050414  1.0000
  H   H12       1.0  0.5406847376965018  0.9207959496605226  0.6189074769106353  1.0000
  H   H13       1.0  0.5763588126541563  0.23095881311079577  0.5606913196558381  1.0000
  H   H14       1.0  0.4627743774991017  0.08725503076214378  0.6119217057785775  1.0000
  H   H15       1.0  0.21166677954624197  0.22635949073668368  0.42391914270163494  1.0000
  H   H16       1.0  0.4591832120593011  0.07927349690127268  0.38090406760908013  1.0000
  C   C1        1.0  0.8440216207341606  0.33788271230250183  0.4935830461519115  1.0000
  C   C2        1.0  0.6647655623367044  0.505800071501227  0.6604577353703646  1.0000
  C   C3        1.0  0.15594832273513512  0.6621583486557228  0.5064318565815213  1.0000
  C   C4        1.0  0.33530524396821454  0.4942159938677619  0.3396245999476263  1.0000
  C   C5        1.0  0.6223189721441  0.5057641750672275  0.7598295925522505  1.0000
  C   C6        1.0  0.3777403757106725  0.49424044318960364  0.24024930983142662  1.0000
  C   C7        1.0  0.7793284159894894  0.4840384683432646  0.8117164544283637  1.0000
  C   C8        1.0  0.7337670277638182  0.481560945175481  0.9040792265862831  1.0000
  C   C9        1.0  0.22068211196430812  0.5155666344465429  0.1883626501017659  1.0000
  C   C10       1.0  0.26628474605234237  0.5178352668867063  0.09600432988774799  1.0000
  C   C11       1.0  0.5867523180357922  0.4739797336719036  0.19296826416289994  1.0000
  C   C12       1.0  0.6352790143637251  0.4755446827040899  0.10057275179297415  1.0000
  C   C13       1.0  0.4133492790393872  0.5263725222238519  0.8071209130683172  1.0000
  C   C14       1.0  0.3648311555589173  0.5247994834835055  0.8995148534132793  1.0000
  C   C15       1.0  0.5243201771694076  0.5016535569650243  0.9506882613248349  1.0000
  C   C16       1.0  0.4757808346547208  0.4981697940787269  0.04939915046147551  1.0000
  C   C17       1.0  0.26794495858280976  0.8082206822255101  0.46747380593829735  1.0000
  C   C18       1.0  0.2265211548451732  0.9025945159639049  0.4621509826453475  1.0000
  C   C19       1.0  0.38173505264552454  0.9512240620376103  0.4178726341385896  1.0000
  C   C20       1.0  0.909071924088828  0.8107205495871098  0.5456954819898598  1.0000
  C   C21       1.0  0.8631724480317119  0.9052962404793875  0.5452636967881972  1.0000
  C   C22       1.0  0.661139850222007  0.9568787754146583  0.585743003277251  1.0000
  C   C23       1.0  0.7319835308540946  0.19183928893379937  0.5323974283031915  1.0000
  C   C24       1.0  0.7734019204309065  0.0974533333063121  0.5377012892960592  1.0000
  C   C25       1.0  0.618151397224537  0.0488433504137333  0.5819556241167517  1.0000
  C   C26       1.0  0.09087558571576439  0.189327279817519  0.4541982932136363  1.0000
  C   C27       1.0  0.1367512244554163  0.09477990341174092  0.45460954927516883  1.0000
  C   C28       1.0  0.33875370427026036  0.043187284258948494  0.41409383059010446  1.0000
  C   C29       1.0  0.10988219853736336  0.7627061554364117  0.507512847579207  1.0000
  C   C30       1.0  0.022263225013240743  0.9521645225370248  0.5018538110335908  1.0000
  C   C31       1.0  0.8900437823069468  0.2373396613634995  0.49240262337535495  1.0000
  C   C32       1.0  0.9776574429579625  0.04789612554800019  0.49802528045626804  1.0000
  O   O1        1.0  0.6503884435484013  0.37790881543395477  0.5122007106629667  1.0000
  O   O2        1.0  0.856074159704434  0.4893522053543221  0.6203012424194725  1.0000
  O   O3        1.0  0.9991540653965814  0.6238896087164889  0.5217268503004746  1.0000
  O   O4        1.0  0.49497835644533683  0.47910397177506786  0.37720971525101277  1.0000
  O   O5        1.0  0.34958912305329215  0.6221288658175083  0.48785810932629636  1.0000
  O   O6        1.0  0.1440007015330522  0.5106537481823068  0.3798016132225541  1.0000
  O   O7        1.0  0.0008398111433223586  0.376135258280854  0.4783561088850305  1.0000
  O   O8        1.0  0.5050853080842189  0.5209336560789167  0.6228855979973102  1.0000
  O   O9        1.0  0.25151540883100415  0.46026909517274106  0.5402741899125088  1.0000
  O   O10       1.0  0.7484875344380554  0.5397483514718575  0.45983453210581615  1.0000
  F   F1        1.0  0.9875523924126313  0.46292921715757274  0.773582175168684  1.0000
  F   F2        1.0  0.01247514446976797  0.5364023293428772  0.22648557634713026  1.0000
