data_image0
_chemical_formula_structural       Ba2Cu2H16C20O16
_chemical_formula_sum              "Ba2 Cu2 H16 C20 O16"
_cell_length_a       8.956771442637837
_cell_length_b       9.33707823827721
_cell_length_c       9.337046545446952
_cell_angle_alpha    64.87454777053883
_cell_angle_beta     62.56192167586705
_cell_angle_gamma    62.56192455848242

_space_group_name_H-M_alt    "P 1"
_space_group_IT_number       1

loop_
  _space_group_symop_operation_xyz
  'x, y, z'

loop_
  _atom_site_type_symbol
  _atom_site_label
  _atom_site_symmetry_multiplicity
  _atom_site_fract_x
  _atom_site_fract_y
  _atom_site_fract_z
  _atom_site_occupancy
  Ba  Ba1       1.0  0.2499986249020837  0.0345950357252249  0.9654058853478986  1.0000
  Ba  Ba2       1.0  0.7500006417298267  0.9654067086741094  0.034593614643029104  1.0000
  Cu  Cu1       1.0  0.49999944510024363  6.303332398002964e-07  0.5000019513381204  1.0000
  Cu  Cu2       1.0  0.9999965887607447  0.5000036869943472  0.9999987630169611  1.0000
  H   H1        1.0  0.3546852744068476  0.5593730349041691  0.4933247901373931  1.0000
  H   H2        1.0  0.14531727215693738  0.5066704425858288  0.4406304699489  1.0000
  H   H3        1.0  0.6453157627272361  0.4406236970724323  0.5066760514199727  1.0000
  H   H4        1.0  0.8546862820117556  0.4933262939923607  0.5593703234897378  1.0000
  H   H5        1.0  0.2219370730790119  0.575589607707613  0.7092211442778621  1.0000
  H   H6        1.0  0.2780658203357689  0.29077773846501753  0.4244109359071331  1.0000
  H   H7        1.0  0.778063893139752  0.4244108864864913  0.2907781319787049  1.0000
  H   H8        1.0  0.7219380930951688  0.7092215120222678  0.5755843470895099  1.0000
  H   H9        1.0  0.9747277997675995  0.8130774683582231  0.6083021717733886  1.0000
  H   H10       1.0  0.5252715035710549  0.39170001896778234  0.18692126342357082  1.0000
  H   H11       1.0  0.025272352115401013  0.1869217698297518  0.3916979990007547  1.0000
  H   H12       1.0  0.4747285711726336  0.6083029838363245  0.8130752017833699  1.0000
  H   H13       1.0  0.10872349100938554  0.796917946361269  0.39021414964746987  1.0000
  H   H14       1.0  0.39127836708802033  0.6097829610600699  0.20308169933399967  1.0000
  H   H15       1.0  0.8912783573484759  0.2030800428207939  0.609784727259118  1.0000
  H   H16       1.0  0.6087242987175971  0.3902162829288045  0.7969173531882136  1.0000
  C   C1        1.0  0.24676320738565505  0.8192592128177766  0.5218442499322578  1.0000
  C   C2        1.0  0.2532362815739831  0.47815642806577324  0.18073932380483626  1.0000
  C   C3        1.0  0.7532373871228871  0.18073877226451174  0.47815625623350405  1.0000
  C   C4        1.0  0.7467642357952472  0.521845321632654  0.819257476793723  1.0000
  C   C5        1.0  0.19076889598679253  0.8870689245907715  0.665673894527913  1.0000
  C   C6        1.0  0.3092302062599686  0.3343261709612052  0.11292966546459846  1.0000
  C   C7        1.0  0.8092304384484522  0.1129290587903782  0.3343261006306122  1.0000
  C   C8        1.0  0.6907673545611104  0.6656768260419952  0.8870679179942798  1.0000
  C   C9        1.0  0.2498583073682852  0.6373360739721863  0.5757199824341795  1.0000
  C   C10       1.0  0.2501415844010567  0.42428121982928246  0.3626640283407453  1.0000
  C   C11       1.0  0.7501422871402569  0.36266191111010226  0.42428052373157504  1.0000
  C   C12       1.0  0.7498602639567978  0.5757167693527735  0.6373348485658495  1.0000
  C   C13       1.0  0.10512980358015508  0.7775128471667757  0.5151375650610247  1.0000
  C   C14       1.0  0.394870199650967  0.4848610857860507  0.22248643236213184  1.0000
  C   C15       1.0  0.8948720447776992  0.22248514201528743  0.48486131184557024  1.0000
  C   C16       1.0  0.6051307634558044  0.5151394096073717  0.7775117737612405  1.0000
  C   C17       1.0  0.3924483616549067  0.8567351734872946  0.3610565914251326  1.0000
  C   C18       1.0  0.10755134535882153  0.638939772435286  0.14326628196871385  1.0000
  C   C19       1.0  0.6075517871161011  0.14326406589999152  0.6389425092158162  1.0000
  C   C20       1.0  0.8924500603734913  0.36105946985244947  0.85673225954627  1.0000
  O   O1        1.0  0.27665960973138237  0.969980585414575  0.6613626821607782  1.0000
  O   O2        1.0  0.22333598234246926  0.33863664762280626  0.030020941761875992  1.0000
  O   O3        1.0  0.7233358860166064  0.030021150283403103  0.33863849520804473  1.0000
  O   O4        1.0  0.7766599560310685  0.6613638349694922  0.9699805709985583  1.0000
  O   O5        1.0  0.5259814666235272  0.8725635192940828  0.3670841022209642  1.0000
  O   O6        1.0  0.974014998817964  0.6329140758463583  0.1274417137890183  1.0000
  O   O7        1.0  0.4740174314101609  0.12743571479411736  0.6329176978123454  1.0000
  O   O8        1.0  0.025983013964634042  0.36708766445320146  0.8725594154610762  1.0000
  O   O9        1.0  0.0583229009544652  0.8616656390030002  0.7898580383877915  1.0000
  O   O10       1.0  0.4416795752043469  0.21014178641153342  0.1383286351439566  1.0000
  O   O11       1.0  0.9416777582454118  0.1383285862604211  0.2101418928123735  1.0000
  O   O12       1.0  0.558321824303981  0.7898574582748453  0.8616677661046238  1.0000
  O   O13       1.0  0.39198747578475973  0.8618819823712585  0.22465269034051982  1.0000
  O   O14       1.0  0.10801104068822551  0.7753477606295862  0.13812111857364318  1.0000
  O   O15       1.0  0.6080139361715455  0.1381172575178482  0.77534799144086  1.0000
  O   O16       1.0  0.8919890433914406  0.22465523857656677  0.8618785570329028  1.0000
