data_image0
_chemical_formula_structural       Ni2H36C32S4N8
_chemical_formula_sum              "Ni2 H36 C32 S4 N8"
_cell_length_a       8.779016783195178
_cell_length_b       10.400701720835096
_cell_length_c       10.863905549973959
_cell_angle_alpha    68.3445549433617
_cell_angle_beta     67.74621028302923
_cell_angle_gamma    84.49771113403112

_space_group_name_H-M_alt    "P 1"
_space_group_IT_number       1

loop_
  _space_group_symop_operation_xyz
  'x, y, z'

loop_
  _atom_site_type_symbol
  _atom_site_label
  _atom_site_symmetry_multiplicity
  _atom_site_fract_x
  _atom_site_fract_y
  _atom_site_fract_z
  _atom_site_occupancy
  Ni  Ni1       1.0  6.691778650858278e-07  0.5000013763702994  0.49999854879789735  1.0000
  Ni  Ni2       1.0  0.5000035138434029  0.4999994543397293  0.9999989924871141  1.0000
  H   H1        1.0  0.08086617184645215  0.615996195107755  0.17898143945121342  1.0000
  H   H2        1.0  0.9191349488341345  0.3840059559678437  0.8210176574567354  1.0000
  H   H3        1.0  0.9601226579085136  0.7702970482793178  0.008720494573353207  1.0000
  H   H4        1.0  0.0398771537993028  0.22970404203495332  0.9912775532145371  1.0000
  H   H5        1.0  0.5336709246556381  0.7847909369992152  0.3705256938755213  1.0000
  H   H6        1.0  0.466327631683825  0.2152101162217264  0.6294699955912076  1.0000
  H   H7        1.0  0.6738986407680018  0.6300382409282151  0.5269413195385153  1.0000
  H   H8        1.0  0.32609616963500804  0.36996178621612325  0.4730568267220646  1.0000
  H   H9        1.0  0.5624365547761985  0.9474625439649105  0.13519792413976012  1.0000
  H   H10       1.0  0.43756319513020264  0.05253751058452849  0.8648005192318631  1.0000
  H   H11       1.0  0.5890290428510099  0.8290516140398054  0.049449351213240886  1.0000
  H   H12       1.0  0.4109684309049512  0.17095154619839548  0.950548670469011  1.0000
  H   H13       1.0  0.7131194197250251  0.06676590750304001  0.8745155512398737  1.0000
  H   H14       1.0  0.2868793548067075  0.9332383013996761  0.1254826059450734  1.0000
  H   H15       1.0  0.8613358707448882  0.9399582058646916  0.8708619519149038  1.0000
  H   H16       1.0  0.1386653035401153  0.06004496887891969  0.12913583579194918  1.0000
  H   H17       1.0  0.8536551495426891  0.05542583829875981  0.9593857965869855  1.0000
  H   H18       1.0  0.14634229519987946  0.9445763345618942  0.0406162751484302  1.0000
  H   H19       1.0  0.3315762635253848  0.48326070959551976  0.8078504020796299  1.0000
  H   H20       1.0  0.6684258571208872  0.5167373234172744  0.192151721867063  1.0000
  H   H21       1.0  0.19378566831051097  0.6372932261310709  0.6492936355455255  1.0000
  H   H22       1.0  0.8062140443854846  0.36270582894400155  0.35070794426190577  1.0000
  H   H23       1.0  0.27707513160001435  0.9686405602772797  0.7685100700097602  1.0000
  H   H24       1.0  0.7229282816250233  0.03135850930321031  0.23149127582227877  1.0000
  H   H25       1.0  0.4136213231710926  0.800135626603492  0.9220321650074434  1.0000
  H   H26       1.0  0.586378414115913  0.1998634647620392  0.07797215565206986  1.0000
  H   H27       1.0  0.07241732525906738  0.8612211595736879  0.5702540375456024  1.0000
  H   H28       1.0  0.9275788678897569  0.13878003720336812  0.42975338039126826  1.0000
  H   H29       1.0  0.06866762969323761  0.9857753243094509  0.6469088763464653  1.0000
  H   H30       1.0  0.931333371159134  0.014223816246229102  0.35309871625156575  1.0000
  H   H31       1.0  0.2262354056224822  0.08385144230254582  0.3841113044982548  1.0000
  H   H32       1.0  0.7737618537158326  0.9161476232636191  0.6158919539883737  1.0000
  H   H33       1.0  0.36097398091887106  0.9455733507342433  0.3969918449256866  1.0000
  H   H34       1.0  0.6390219240392554  0.05442364249939399  0.6030125872593356  1.0000
  H   H35       1.0  0.36109358829000365  0.06821238748234748  0.47552991075131945  1.0000
  H   H36       1.0  0.6389062562058286  0.9317887512192018  0.5244717915060021  1.0000
  C   C1        1.0  0.8380219610692733  0.6363189262838915  0.7272528382726762  1.0000
  C   C2        1.0  0.1619816129690008  0.3636832143006217  0.27274457995608253  1.0000
  C   C3        1.0  0.6573605919416395  0.36908134742149207  0.7657296795947628  1.0000
  C   C4        1.0  0.34264732440224327  0.6309114382005563  0.23426702791187626  1.0000
  C   C5        1.0  0.9598882003557705  0.6560997595892958  0.2177581150803861  1.0000
  C   C6        1.0  0.040110466967135494  0.34390240197740246  0.7822426605067531  1.0000
  C   C7        1.0  0.8911179624442696  0.7434791167339371  0.12265573086385467  1.0000
  C   C8        1.0  0.10888184106654113  0.2565219614835074  0.8773414033066725  1.0000
  C   C9        1.0  0.73580079276433  0.7951354190702774  0.17415049151459538  1.0000
  C   C10       1.0  0.26419660279621127  0.2048666812094453  0.8258460985166705  1.0000
  C   C11       1.0  0.6562943467638362  0.7513076025474776  0.32279601304475136  1.0000
  C   C12       1.0  0.34370532494713757  0.2486913920434902  0.6772009986758928  1.0000
  C   C13       1.0  0.7328617368003805  0.6637154365600466  0.41126622659584194  1.0000
  C   C14       1.0  0.2671355969587381  0.336285627954851  0.5887307590191636  1.0000
  C   C15       1.0  0.6571240545520922  0.892334917636447  0.07576963414917501  1.0000
  C   C16       1.0  0.3428732256026166  0.10766512321044533  0.9242286606669264  1.0000
  C   C17       1.0  0.7780953535919436  0.9941912391078633  0.9380250511625688  1.0000
  C   C18       1.0  0.22189968320034836  0.005811955815062201  0.0619764764335926  1.0000
  C   C19       1.0  0.31794062150763114  0.5919271765952415  0.79569239941393  1.0000
  C   C20       1.0  0.682062853518822  0.4080729287500731  0.20430855083437646  1.0000
  C   C21       1.0  0.24104751451892528  0.6789769739509738  0.7070113670213514  1.0000
  C   C22       1.0  0.7589548079256047  0.32102419054994163  0.29299139740884766  1.0000
  C   C23       1.0  0.22442970253352  0.8182648997942439  0.6934938577360652  1.0000
  C   C24       1.0  0.7755713235576351  0.18173616712925172  0.3065019802861854  1.0000
  C   C25       1.0  0.2869497145480863  0.861679156066465  0.773695558826169  1.0000
  C   C26       1.0  0.7130513279370732  0.1383219350506693  0.22630210643080054  1.0000
  C   C27       1.0  0.36322660319940786  0.7687665952290106  0.8593242354328007  1.0000
  C   C28       1.0  0.6367766864227917  0.23123040282181517  0.14067790156671825  1.0000
  C   C29       1.0  0.14953877803625903  0.9186699989835887  0.594085073115373  1.0000
  C   C30       1.0  0.8504597038823861  0.08132905528862011  0.405916889222979  1.0000
  C   C31       1.0  0.28206425908955873  0.009471608276548698  0.45479715819997296  1.0000
  C   C32       1.0  0.7179304768926473  0.9905264199190574  0.5452072609322297  1.0000
  S   S1        1.0  0.7462424928994693  0.6659321708018383  0.8744415187683569  1.0000
  S   S2        1.0  0.25375973495562937  0.334067909546974  0.12555798677615115  1.0000
  S   S3        1.0  0.7660901670770955  0.3249731652337076  0.630084344657305  1.0000
  S   S4        1.0  0.2339118671767508  0.6750237957237886  0.3699154340210524  1.0000
  N   N1        1.0  0.9055845788467778  0.6147011026068085  0.620076048298152  1.0000
  N   N2        1.0  0.09441795801540563  0.38530415656614286  0.3799214793276631  1.0000
  N   N3        1.0  0.5794209978541717  0.39923953744131785  0.8661123069221827  1.0000
  N   N4        1.0  0.4205845761154663  0.6007543670175722  0.13389116538406395  1.0000
  N   N5        1.0  0.8835931257068526  0.6172644963075272  0.3601482170494135  1.0000
  N   N6        1.0  0.11640539342219823  0.3827355574390411  0.6398506088531304  1.0000
  N   N7        1.0  0.3795748363383566  0.6353384452723034  0.8706248384597327  1.0000
  N   N8        1.0  0.6204298076640171  0.3646606251110498  0.12937612484138578  1.0000
