data_image0
_chemical_formula_structural       Co2H8C32S4N6O10F24
_chemical_formula_sum              "Co2 H8 C32 S4 N6 O10 F24"
_cell_length_a       8.42911121821983
_cell_length_b       12.244771060298934
_cell_length_c       12.296036785850237
_cell_angle_alpha    106.81555837439386
_cell_angle_beta     111.45174182986509
_cell_angle_gamma    90.58627170154809

_space_group_name_H-M_alt    "P 1"
_space_group_IT_number       1

loop_
  _space_group_symop_operation_xyz
  'x, y, z'

loop_
  _atom_site_type_symbol
  _atom_site_label
  _atom_site_symmetry_multiplicity
  _atom_site_fract_x
  _atom_site_fract_y
  _atom_site_fract_z
  _atom_site_occupancy
  Co  Co1       1.0  0.4999960480721129  0.9999982702318777  0.4999993062547364  1.0000
  Co  Co2       1.0  1.221321745983206e-06  0.5000002315108816  9.177309010979063e-07  1.0000
  H   H1        1.0  0.6813864818218178  0.4939489272454267  0.2163775850158701  1.0000
  H   H2        1.0  0.31860908479928446  0.5060496167481077  0.783628641642608  1.0000
  H   H3        1.0  0.9702457608948624  0.6318783974813797  0.3937636746169631  1.0000
  H   H4        1.0  0.029749941238968326  0.3681150142681418  0.6062385831240962  1.0000
  H   H5        1.0  0.46685596392056555  0.15563475846454372  0.22137998637824557  1.0000
  H   H6        1.0  0.5331429207188381  0.8443690307313005  0.7786220976645101  1.0000
  H   H7        1.0  0.7666074256262194  0.7664652840240508  0.8577225252087574  1.0000
  H   H8        1.0  0.23339414150165547  0.233533366036454  0.14227618103254264  1.0000
  C   C1        1.0  0.8811290359537977  0.8622752953524182  0.5097412418303976  1.0000
  C   C2        1.0  0.11886584492845031  0.13772072347226333  0.4902599895244891  1.0000
  C   C3        1.0  0.7878751839078931  0.7562580199473955  0.4141711337290916  1.0000
  C   C4        1.0  0.21212259611387208  0.2437406292414366  0.5858275038570968  1.0000
  C   C5        1.0  0.5553033185379378  0.6448511986990795  0.27307673457620046  1.0000
  C   C6        1.0  0.4446890944760398  0.3551466374943501  0.7269179649851054  1.0000
  C   C7        1.0  0.6898991138133117  0.5808705137694333  0.2750138628861906  1.0000
  C   C8        1.0  0.31009109199623464  0.4191281336760754  0.7249846373897672  1.0000
  C   C9        1.0  0.8398591282608482  0.6528277364377432  0.36634569636854064  1.0000
  C   C10       1.0  0.1601400648750513  0.34717178091814554  0.6336527204932879  1.0000
  C   C11       1.0  0.3776991428399869  0.6213101660305541  0.20495059023893708  1.0000
  C   C12       1.0  0.6223061718402647  0.37868757966290906  0.7950511549962941  1.0000
  C   C13       1.0  0.5525523229345239  0.18211596104164576  0.41581521921506953  1.0000
  C   C14       1.0  0.44745347733953644  0.8178843770726445  0.5841866132107969  1.0000
  C   C15       1.0  0.47537269614526423  0.11650223938639928  0.2916119436550916  1.0000
  C   C16       1.0  0.5246268701194623  0.8834980711215651  0.7083916830561778  1.0000
  C   C17       1.0  0.4069152532003316  0.001553783893022899  0.2569769195372516  1.0000
  C   C18       1.0  0.5930776058537149  0.998445739482527  0.7430208375535017  1.0000
  C   C19       1.0  0.6016236980193312  0.31218107346783347  0.44852692130176314  1.0000
  C   C20       1.0  0.398386535545953  0.6878208854482751  0.5514829454216186  1.0000
  C   C21       1.0  0.3008192988193201  0.9387575028185253  0.12007030465708379  1.0000
  C   C22       1.0  0.6991692644870683  0.061246358777296485  0.879926142846536  1.0000
  C   C23       1.0  0.7843671041050656  0.6727117525843197  0.9840952158736871  1.0000
  C   C24       1.0  0.21563842311268644  0.32728775875190047  0.015903860759216605  1.0000
  C   C25       1.0  0.8283997518549739  0.7013242217812419  0.8958199472561291  1.0000
  C   C26       1.0  0.171612795183492  0.29867780870416993  0.10418478445143367  1.0000
  C   C27       1.0  0.9528640739264065  0.6487946736591753  0.8561039279689526  1.0000
  C   C28       1.0  0.047141692990145104  0.3512056756637847  0.14389708643808777  1.0000
  C   C29       1.0  0.6393867101788687  0.7270949923863623  0.01854843091270195  1.0000
  C   C30       1.0  0.36062416099893124  0.2729122634580321  0.9814534300036971  1.0000
  C   C31       1.0  0.00015367242667709745  0.6877861318963668  0.7623153342719962  1.0000
  C   C32       1.0  0.9998464148720458  0.31221167241440645  0.23768195665601155  1.0000
  S   S1        1.0  0.9246813436213589  0.0690657204557965  0.6439039315071613  1.0000
  S   S2        1.0  0.0753243170264355  0.9309337460457742  0.3560984172010395  1.0000
  S   S3        1.0  0.14981252630361294  0.9858737934652451  0.671864214817191  1.0000
  S   S4        1.0  0.850191135563712  0.0141222460744288  0.3281358133682559  1.0000
  N   N1        1.0  0.7990158308776859  0.9545663608287358  0.5361492509346848  1.0000
  N   N2        1.0  0.20098842285219837  0.045433153953155204  0.46384953014023733  1.0000
  N   N3        1.0  0.05170701291548595  0.8660312590938514  0.5644644296255593  1.0000
  N   N4        1.0  0.948291521642837  0.1339648054371452  0.4355335983091494  1.0000
  N   N5        1.0  0.22943515309042087  0.601436159365754  0.14855984790529675  1.0000
  N   N6        1.0  0.7705498315338276  0.398563463144434  0.8514304097057991  1.0000
  O   O1        1.0  0.6148333997809631  0.7527035475585181  0.35740289310300016  1.0000
  O   O2        1.0  0.38516339839790703  0.24729868119616336  0.6425868396452544  1.0000
  O   O3        1.0  0.5768569075153993  0.1485161204599308  0.5088909357408371  1.0000
  O   O4        1.0  0.4231433132133591  0.8514816390161924  0.4911096272624747  1.0000
  O   O5        1.0  0.4118979987194252  0.941776211430941  0.32730874329400456  1.0000
  O   O6        1.0  0.5880940724405479  0.058225907811113614  0.6726888054294022  1.0000
  O   O7        1.0  0.8467741009548465  0.6016627667603346  0.04151607009087154  1.0000
  O   O8        1.0  0.15322625940017082  0.39833586432850865  0.958483976630099  1.0000
  O   O9        1.0  0.03584346314375608  0.5693526205199716  0.8875208728666949  1.0000
  O   O10       1.0  0.964162337130297  0.43064771759431864  0.11248095955916432  1.0000
  F   F1        1.0  0.6378542869938786  0.33958722662537616  0.35981892261405335  1.0000
  F   F2        1.0  0.36215209894650263  0.6604156702837614  0.640185451058919  1.0000
  F   F3        1.0  0.4658841491650919  0.3678916740584767  0.4606457560863859  1.0000
  F   F4        1.0  0.5341320308780767  0.6321127402005047  0.5393743782666222  1.0000
  F   F5        1.0  0.7381013572779767  0.3557169009779173  0.5566229208597308  1.0000
  F   F6        1.0  0.26190980589033336  0.644278246275043  0.4433793969559334  1.0000
  F   F7        1.0  0.1335291206641999  0.9600182040779117  0.09248690995406866  1.0000
  F   F8        1.0  0.8664612247716054  0.039981314980316505  0.9075110740395546  1.0000
  F   F9        1.0  0.3582532543768693  0.9753666498371987  0.045084896071813436  1.0000
  F   F10       1.0  0.6417357216120793  0.0246389101494131  0.9549137909424277  1.0000
  F   F11       1.0  0.300550124228792  0.8235601522386202  0.091653098702686  1.0000
  F   F12       1.0  0.699441394622362  0.17643939699993183  0.9083427267924409  1.0000
  F   F13       1.0  0.5691667241308451  0.8022108581085091  0.9577349184285355  1.0000
  F   F14       1.0  0.43084999553500586  0.19779379929538973  0.042267515068303396  1.0000
  F   F15       1.0  0.51079233570308  0.6441352602396506  0.9932566174868643  1.0000
  F   F16       1.0  0.4892142232210761  0.35586849707354423  0.0067480579226001  1.0000
  F   F17       1.0  0.6971253634953457  0.7858615515799982  0.141929856651828  1.0000
  F   F18       1.0  0.30288444053586266  0.21414655690545467  0.8580728284619074  1.0000
  F   F19       1.0  0.979059489728151  0.5969560605278302  0.6608606777689161  1.0000
  F   F20       1.0  0.020935363992819617  0.4030408859528834  0.33913594720951334  1.0000
  F   F21       1.0  0.9018982839468778  0.7672835347828836  0.7234965164779867  1.0000
  F   F22       1.0  0.09809481688864002  0.23271173917004265  0.27649593739418793  1.0000
  F   F23       1.0  0.16759820263428796  0.7355846982226097  0.8119519480651792  1.0000
  F   F24       1.0  0.8323970032504494  0.2644148855135883  0.1880414920285888  1.0000
