data_image0
_chemical_formula_structural       Zn16H48C108S16O60
_chemical_formula_sum              "Zn16 H48 C108 S16 O60"
_cell_length_a       19.636149199665173
_cell_length_b       19.643885777454543
_cell_length_c       33.27969955365265
_cell_angle_alpha    79.30537597962427
_cell_angle_beta     79.3217260092837
_cell_angle_gamma    64.04001422695094

_space_group_name_H-M_alt    "P 1"
_space_group_IT_number       1

loop_
  _space_group_symop_operation_xyz
  'x, y, z'

loop_
  _atom_site_type_symbol
  _atom_site_label
  _atom_site_symmetry_multiplicity
  _atom_site_fract_x
  _atom_site_fract_y
  _atom_site_fract_z
  _atom_site_occupancy
  Zn  Zn1       1.0  0.056169924269376295  0.4002626110014162  0.4790001355669418  1.0000
  Zn  Zn2       1.0  0.9843237432508121  0.48297558203638835  0.5596004665602053  1.0000
  Zn  Zn3       1.0  0.056586324770954405  0.5642840367078892  0.4821767192984651  1.0000
  Zn  Zn4       1.0  0.9002903650154224  0.5564860993960395  0.4783748740783835  1.0000
  Zn  Zn5       1.0  0.6923384563076312  0.35129780046205633  0.2712796809567024  1.0000
  Zn  Zn6       1.0  0.6862521666175354  0.1933879767388619  0.2671648500126267  1.0000
  Zn  Zn7       1.0  0.7696949922782965  0.2653377050352503  0.1896926894579281  1.0000
  Zn  Zn8       1.0  0.8467874610898108  0.19628779282438558  0.2722465693851106  1.0000
  Zn  Zn9       1.0  0.26786109268608277  0.7674844771817676  0.6890258696969551  1.0000
  Zn  Zn10      1.0  0.34989095836593986  0.6958058608155184  0.7702382037622897  1.0000
  Zn  Zn11      1.0  0.19240402688448202  0.8485346323568523  0.7719929140962234  1.0000
  Zn  Zn12      1.0  0.19199832843111864  0.6880865298368165  0.7665050383654658  1.0000
  Zn  Zn13      1.0  0.5604644630240827  0.06041520673404221  0.9827320215416436  1.0000
  Zn  Zn14      1.0  0.4010905567397174  0.05600723939885905  0.9779747700681583  1.0000
  Zn  Zn15      1.0  0.5550678784681224  0.901171591829119  0.9781062403382775  1.0000
  Zn  Zn16      1.0  0.4844717400491235  0.9818032976991237  0.060247569944813464  1.0000
  H   H1        1.0  0.9543123927998353  0.2529640229161031  0.3483455170115874  1.0000
  H   H2        1.0  0.7411724447008795  0.45080827308755284  0.3562404522712442  1.0000
  H   H3        1.0  0.0026601017534347  0.30164570327575296  0.3966356695662228  1.0000
  H   H4        1.0  0.09269650433692792  0.6038119620229381  0.6995649562499153  1.0000
  H   H5        1.0  0.21456814602195354  0.6878728340135253  0.597147919811917  1.0000
  H   H6        1.0  0.04434878190794931  0.55634277070142  0.6506297998067723  1.0000
  H   H7        1.0  0.4627483412581911  0.2414896304360283  0.3424736688230254  1.0000
  H   H8        1.0  0.4802516400989988  0.6974728455145681  0.5998031291813959  1.0000
  H   H9        1.0  0.20639357422840732  0.9792558886982192  0.602342489682421  1.0000
  H   H10       1.0  0.9475582758389013  0.9700433476455783  0.34439226944886053  1.0000
  H   H11       1.0  0.5567153872246423  0.04390186130704157  0.15220920956869577  1.0000
  H   H12       1.0  0.6390770285196441  0.16579918333273705  0.04903487558143379  1.0000
  H   H13       1.0  0.6053589560383371  0.09313952835970704  0.200051041257673  1.0000
  H   H14       1.0  0.5484057005296492  0.7691975754944167  0.14789138549327419  1.0000
  H   H15       1.0  0.16344922025812286  0.14514965067488111  0.04086034421838751  1.0000
  H   H16       1.0  0.4975930427495002  0.7934832042118387  0.9018995678948372  1.0000
  H   H17       1.0  0.30132650603319894  0.007912994161358647  0.8934689151645755  1.0000
  H   H18       1.0  0.4483797419301682  0.7463422409017967  0.8533002006157132  1.0000
  H   H19       1.0  0.30068331689559363  0.28147118810009175  0.9018028585067767  1.0000
  H   H20       1.0  0.7855919481171656  0.011220072207805475  0.9065137377624382  1.0000
  H   H21       1.0  0.7865352895751843  0.5721194732025341  0.3584306204549605  1.0000
  H   H22       1.0  0.11191671227327052  0.7441150385551722  0.5327058664956752  1.0000
  H   H23       1.0  0.7825848275807419  0.15151413132132757  0.07196654282192583  1.0000
  H   H24       1.0  0.17748518203445943  0.9660545893632462  0.8897641578094948  1.0000
  H   H25       1.0  0.23003271357225696  0.5776791019006993  0.40209995260548936  1.0000
  H   H26       1.0  0.32947093954872747  0.5538609335706824  0.39887713976896316  1.0000
  H   H27       1.0  0.27669771326559817  0.5375820748649289  0.4465133920035099  1.0000
  H   H28       1.0  0.824897781516171  0.477958093519682  0.6532816883780938  1.0000
  H   H29       1.0  0.7575970929150203  0.5341488988568914  0.6912908728138092  1.0000
  H   H30       1.0  0.8216103484561118  0.567206274371607  0.657520351172522  1.0000
  H   H31       1.0  0.060496887751945415  0.32662347829998595  0.6567182860255015  1.0000
  H   H32       1.0  0.03900380853389151  0.25709128376434626  0.6926982108583601  1.0000
  H   H33       1.0  0.9752039029549026  0.3180631225960795  0.6562427640282918  1.0000
  H   H34       1.0  0.7919283805937172  0.7222156423916812  0.39380217760803043  1.0000
  H   H35       1.0  0.7281584058869085  0.820392096649499  0.38477338856735344  1.0000
  H   H36       1.0  0.7505198329785474  0.776251915118209  0.435346102461537  1.0000
  H   H37       1.0  0.7703454896287881  0.426557537657544  0.09437027690781723  1.0000
  H   H38       1.0  0.7107808403977389  0.49115791805052583  0.056978091104745915  1.0000
  H   H39       1.0  0.6828578944680218  0.4244387509159536  0.09170511708305903  1.0000
  H   H40       1.0  0.0752531992424821  0.14330767941973482  0.24220262370549508  1.0000
  H   H41       1.0  0.16157243263989332  0.066821775883767  0.22501874598815158  1.0000
  H   H42       1.0  0.07415098335038553  0.05613038630917801  0.23760349875983877  1.0000
  H   H43       1.0  0.4944154001178377  0.4842176678869378  0.8160979716801293  1.0000
  H   H44       1.0  0.5222785273578411  0.42818877474497447  0.8638892204942296  1.0000
  H   H45       1.0  0.4567712844257486  0.526167563944213  0.8621332593713332  1.0000
  H   H46       1.0  0.9744851574074576  0.7077842633064294  0.8075384008545471  1.0000
  H   H47       1.0  0.9176571518629262  0.695590038566948  0.8544122873465625  1.0000
  H   H48       1.0  0.016779378228655197  0.6710795631555513  0.8535020442350145  1.0000
  C   C1        1.0  0.06076440536781291  0.31601089380162506  0.5627327078240469  1.0000
  C   C2        1.0  0.0695913878432677  0.5693148213456567  0.5687917891478874  1.0000
  C   C3        1.0  0.18258940958268974  0.4409671827576178  0.4391988746113213  1.0000
  C   C4        1.0  0.9347371672175341  0.6869386132360586  0.4380752102579138  1.0000
  C   C5        1.0  0.9313526435853562  0.4312797834253815  0.4307096604812912  1.0000
  C   C6        1.0  0.8171694067029733  0.5603518857095154  0.5616670476293777  1.0000
  C   C7        1.0  0.5645746022160766  0.3132187954977894  0.3131019664676202  1.0000
  C   C8        1.0  0.6801087910568244  0.1820888977356175  0.18084229648182057  1.0000
  C   C9        1.0  0.6876163846000196  0.4325812301677274  0.18699983127628172  1.0000
  C   C10       1.0  0.9368496291149029  0.1901698431392874  0.19029518453898928  1.0000
  C   C11       1.0  0.8167256982888631  0.3214526454581659  0.3200254444730958  1.0000
  C   C12       1.0  0.8092904913146484  0.06633205400780179  0.30948129682181497  1.0000
  C   C13       1.0  0.43482900469712865  0.6858665662684585  0.686977502445295  1.0000
  C   C14       1.0  0.3190912816354513  0.8190643323356144  0.8187522036276107  1.0000
  C   C15       1.0  0.1913307377475206  0.9342333915842078  0.6890475313512852  1.0000
  C   C16       1.0  0.0641117024426379  0.8084398976957418  0.809964066109707  1.0000
  C   C17       1.0  0.18319016510322683  0.6792772894987139  0.6797638623208329  1.0000
  C   C18       1.0  0.31449381268043214  0.5668445803926686  0.8120942645478734  1.0000
  C   C19       1.0  0.43831772952469095  0.18453694211622457  0.9380703313629083  1.0000
  C   C20       1.0  0.4301950014193778  0.9316467307164022  0.9298118185150486  1.0000
  C   C21       1.0  0.6843721049845684  0.9388836124784138  0.9385957525692207  1.0000
  C   C22       1.0  0.5620367724428023  0.8146954541994449  0.06100624291760678  1.0000
  C   C23       1.0  0.568543356499987  0.07123837821293916  0.06908469445229311  1.0000
  C   C24       1.0  0.3164775405987684  0.0604946032127884  0.06133876969541059  1.0000
  C   C25       1.0  0.8993815574133068  0.40299054301084425  0.4033246335734119  1.0000
  C   C26       1.0  0.8453213800343633  0.34964804205906563  0.34924959750745194  1.0000
  C   C27       1.0  0.824865285172031  0.44577467592644376  0.3923055332383214  1.0000
  C   C28       1.0  0.9188341031239061  0.3068086932110038  0.36077607136710543  1.0000
  C   C29       1.0  0.7986254967076933  0.41883033633023814  0.3650981538396677  1.0000
  C   C30       1.0  0.9454260092024142  0.3336172056791329  0.38754880535983455  1.0000
  C   C31       1.0  0.10228479574110591  0.5954369688125428  0.5968365620595292  1.0000
  C   C32       1.0  0.15545084133401593  0.6494255433218968  0.6509583801225531  1.0000
  C   C33       1.0  0.15108091751714173  0.6320659099794244  0.5812023997302658  1.0000
  C   C34       1.0  0.10826984318857312  0.6115780574098579  0.666430363222517  1.0000
  C   C35       1.0  0.17677513298011863  0.6593679313562292  0.6084774551020897  1.0000
  C   C36       1.0  0.08185041554263252  0.5851323114199192  0.6393992196465418  1.0000
  C   C37       1.0  0.3028157795103397  0.4578255000894059  0.403138749129262  1.0000
  C   C38       1.0  0.4453501263907072  0.2983488771296551  0.35063822469925293  1.0000
  C   C39       1.0  0.2576846883714695  0.4171717998499816  0.4149331099518959  1.0000
  C   C40       1.0  0.4901871474804836  0.33851322687773694  0.3383390402297692  1.0000
  C   C41       1.0  0.37701069787927116  0.34118722262185486  0.3741360390525442  1.0000
  C   C42       1.0  0.37091645472903423  0.41329792470563126  0.37962189445987343  1.0000
  C   C43       1.0  0.7280847753559955  0.5735390775333187  0.629656484954303  1.0000
  C   C44       1.0  0.525096478189056  0.6691043201244329  0.6198789083860632  1.0000
  C   C45       1.0  0.7429685384117166  0.583193991536305  0.5868019447933648  1.0000
  C   C46       1.0  0.5097725929684814  0.6600050695578047  0.6623663739367275  1.0000
  C   C47       1.0  0.604390279752451  0.6373633896193243  0.6075546693031129  1.0000
  C   C48       1.0  0.6482271552740216  0.6048399535867406  0.6409807006842383  1.0000
  C   C49       1.0  0.0756530139040379  0.22736830729353133  0.6310508690086891  1.0000
  C   C50       1.0  0.17680990512234024  0.024391080166914485  0.6221456570401924  1.0000
  C   C51       1.0  0.0860872950798353  0.24204578520783576  0.58818756976148  1.0000
  C   C52       1.0  0.16649277663018583  0.009499854675915678  0.664651287677678  1.0000
  C   C53       1.0  0.14422263053372572  0.10349511041561497  0.6095548857107574  1.0000
  C   C54       1.0  0.1094255976639218  0.1476041548280733  0.6427464902505307  1.0000
  C   C55       1.0  0.8390802569524  0.8018195097420959  0.3966108698809947  1.0000
  C   C56       1.0  0.9029904697814929  0.9496332595994161  0.34952191027429075  1.0000
  C   C57       1.0  0.9090207414740379  0.760585334914879  0.41231033341944817  1.0000
  C   C58       1.0  0.8337555033705756  0.9911464354131142  0.3339062883632876  1.0000
  C   C59       1.0  0.9057969290182941  0.880444084105548  0.37213841810218906  1.0000
  C   C60       1.0  0.838403630157501  0.8704032018571866  0.3735652195154841  1.0000
  C   C61       1.0  0.6493277112468407  0.15659117649131096  0.15144429757015843  1.0000
  C   C62       1.0  0.5961090922464933  0.10134636866479238  0.09788365151337791  1.0000
  C   C63       1.0  0.6588319911672471  0.17811889817853918  0.10867794290314237  1.0000
  C   C64       1.0  0.5855434640257046  0.0812300738404161  0.14044869069756769  1.0000
  C   C65       1.0  0.6325397932669433  0.14979100949278026  0.08220890741827697  1.0000
  C   C66       1.0  0.6122268400294076  0.10866754840651528  0.1668763344046482  1.0000
  C   C67       1.0  0.6728688157293022  0.5209850940409951  0.11852484542502136  1.0000
  C   C68       1.0  0.576758599525519  0.7242486532385753  0.12790493928064003  1.0000
  C   C69       1.0  0.6629855161701387  0.5063951399258285  0.16140079788403477  1.0000
  C   C70       1.0  0.5865930488871528  0.7394845597932118  0.08541113078403838  1.0000
  C   C71       1.0  0.6078476379594876  0.6450351954063506  0.14031700456253296  1.0000
  C   C72       1.0  0.6409225162602965  0.6009396220845604  0.10704890887414817  1.0000
  C   C73       1.0  0.08365765235051731  0.1232578580551973  0.17964550121716624  1.0000
  C   C74       1.0  0.17091574126462922  0.12706879416271022  0.07328203472393108  1.0000
  C   C75       1.0  0.012011120153907503  0.16459871564769207  0.16588453594465588  1.0000
  C   C76       1.0  0.24214239429186085  0.08587710890230935  0.0867533256518698  1.0000
  C   C77       1.0  0.11275659048787653  0.14108781143506385  0.10680337681041148  1.0000
  C   C78       1.0  0.1406814430955379  0.11030823191087791  0.1453393742694402  1.0000
  C   C79       1.0  0.34766815267133205  0.850294949791689  0.8463738004514951  1.0000
  C   C80       1.0  0.40166994917694865  0.9031228710675804  0.9007368652455269  1.0000
  C   C81       1.0  0.3055206301884185  0.9248246080523829  0.8573386326765016  1.0000
  C   C82       1.0  0.44393912673404406  0.82948452711306  0.8893253951109513  1.0000
  C   C83       1.0  0.33276029554269826  0.9503812699719064  0.8847120243284008  1.0000
  C   C84       1.0  0.41677433387138774  0.803561981578298  0.8623887390271747  1.0000
  C   C85       1.0  0.409624014757931  0.45037098165557415  0.8531899740812959  1.0000
  C   C86       1.0  0.34537233474946316  0.3015987901882013  0.8973721174192235  1.0000
  C   C87       1.0  0.3402805956310004  0.49222354152473025  0.8369592917187845  1.0000
  C   C88       1.0  0.41413228006571506  0.2596010565785107  0.9134406039916385  1.0000
  C   C89       1.0  0.3431038544571622  0.3710767364189564  0.8753522431827959  1.0000
  C   C90       1.0  0.4101674405852478  0.38106226408632426  0.8750844252670688  1.0000
  C   C91       1.0  0.9450664903370695  0.7915698415734482  0.848732579166885  1.0000
  C   C92       1.0  0.8031237261702915  0.9535725194212648  0.8994977008099453  1.0000
  C   C93       1.0  0.9894373366504822  0.8325777820306968  0.8348472622508681  1.0000
  C   C94       1.0  0.7588080130825008  0.9132045539616771  0.9133402375592681  1.0000
  C   C95       1.0  0.871047890101572  0.9099453169805544  0.8759057949675365  1.0000
  C   C96       1.0  0.877402052017935  0.836875112679138  0.8722087538573432  1.0000
  C   C97       1.0  0.7691393994168437  0.5174861493879989  0.4107004689400283  1.0000
  C   C98       1.0  0.18214257416366314  0.6382326962219765  0.5363228282216781  1.0000
  C   C99       1.0  0.6908732728600526  0.2356854416880197  0.09001023650761647  1.0000
  C   C100      1.0  0.2350200610631248  0.9817321559499137  0.8382612624387062  1.0000
  C   C101      1.0  0.28407184402907154  0.5357441385151844  0.4131232563910174  1.0000
  C   C102      1.0  0.7858573190309388  0.5362625751864839  0.6596699990838173  1.0000
  C   C103      1.0  0.03556502717248831  0.28513420793485283  0.6609126967061201  1.0000
  C   C104      1.0  0.7739649233509952  0.7791870125901997  0.4027499102290831  1.0000
  C   C105      1.0  0.7110014090755783  0.46300409339536963  0.08872072520570382  1.0000
  C   C106      1.0  0.09985710752702201  0.09584305280228024  0.22338907212378695  1.0000
  C   C107      1.0  0.474395948762769  0.47313688671455645  0.8486591973928836  1.0000
  C   C108      1.0  0.9642025251223034  0.7123224583993133  0.8407039855564946  1.0000
  S   S1        1.0  0.29775281067890097  0.32730866661438524  0.3979509497628158  1.0000
  S   S2        1.0  0.4497242419157245  0.4280829856601543  0.35538362892610553  1.0000
  S   S3        1.0  0.6617341983067605  0.6285694372940044  0.5612685834469601  1.0000
  S   S4        1.0  0.5912240870394285  0.6129720788180606  0.6875337007920379  1.0000
  S   S5        1.0  0.1360238397847198  0.1604850499602364  0.5631287056660312  1.0000
  S   S6        1.0  0.11774179257208323  0.09110050584108358  0.6894982305798862  1.0000
  S   S7        1.0  0.9718234830078815  0.8043616317630511  0.3991086817981183  1.0000
  S   S8        1.0  0.7718989354976105  0.9465143486597545  0.346568839362078  1.0000
  S   S9        1.0  0.6158045258087697  0.5879398478746364  0.1866868507273907  1.0000
  S   S10       1.0  0.6333714175677089  0.657808506868186  0.06042719662065821  1.0000
  S   S11       1.0  0.014751138209845702  0.186875677444462  0.11252178295335818  1.0000
  S   S12       1.0  0.23886687700401416  0.06412597396052888  0.13999627060353248  1.0000
  S   S13       1.0  0.2780222229708613  0.4477427517959497  0.8481571986660725  1.0000
  S   S14       1.0  0.4760510133003494  0.30421077685531367  0.9019991477440924  1.0000
  S   S15       1.0  0.9492099829245009  0.9238464251465358  0.8500907569891111  1.0000
  S   S16       1.0  0.7992009184413221  0.8224264832542119  0.8978123799832288  1.0000
  O   O1        1.0  0.9997866019386948  0.500475629193147  0.49950431487350505  1.0000
  O   O2        1.0  0.08013820114841512  0.31539338509239917  0.5237782102229642  1.0000
  O   O3        1.0  0.04037997347789001  0.5226903582997623  0.5851929086506118  1.0000
  O   O4        1.0  0.1547095475819305  0.5062362892092692  0.4521993446485125  1.0000
  O   O5        1.0  0.021278488385888705  0.3751335530815965  0.5814767083728611  1.0000
  O   O6        1.0  0.15121845918465476  0.39404787557056425  0.4452265905739877  1.0000
  O   O7        1.0  0.07248955878789332  0.5971606665699413  0.5310606766102453  1.0000
  O   O8        1.0  0.0033604057597926987  0.6586466103813963  0.4470859462670447  1.0000
  O   O9        1.0  0.8953485734019182  0.5016225365476289  0.43589050049740746  1.0000
  O   O10       1.0  0.8868584545170107  0.6572487169223037  0.4495084674967273  1.0000
  O   O11       1.0  0.9920364689077701  0.38346015186183274  0.4458416856172036  1.0000
  O   O12       1.0  0.8763514458783991  0.5316433387028211  0.5807921179527965  1.0000
  O   O13       1.0  0.8162450332536012  0.5715668085460736  0.5225512764508267  1.0000
  O   O14       1.0  0.748563058323164  0.2516494058609382  0.2500753251898543  1.0000
  O   O15       1.0  0.5954211005013194  0.36052152217481404  0.30414764958521084  1.0000
  O   O16       1.0  0.6539654786695053  0.1758698725133812  0.21866853321377283  1.0000
  O   O17       1.0  0.7220078190343601  0.37290891469108806  0.16839352126814333  1.0000
  O   O18       1.0  0.5920657693560187  0.2462255964508343  0.3022096669273465  1.0000
  O   O19       1.0  0.6725753381588647  0.4345181657271127  0.22610986765398167  1.0000
  O   O20       1.0  0.7309244552207446  0.20654228757156554  0.165448056381976  1.0000
  O   O21       1.0  0.8791224459891682  0.22714500788237055  0.17009878070476248  1.0000
  O   O22       1.0  0.8604815637775404  0.25550922702242906  0.3092042344491547  1.0000
  O   O23       1.0  0.934884780776358  0.17354589989416516  0.2294170327686159  1.0000
  O   O24       1.0  0.751622958819766  0.36554685373906876  0.3083867037879103  1.0000
  O   O25       1.0  0.7435525943636991  0.09345686717175282  0.29687616598187816  1.0000
  O   O26       1.0  0.8556808338620102  0.09793396745825332  0.30310234878041337  1.0000
  O   O27       1.0  0.25031613587034235  0.7502337524186231  0.7493918085197038  1.0000
  O   O28       1.0  0.37645790835405535  0.7230484546357943  0.6675306984381351  1.0000
  O   O29       1.0  0.36741205925600445  0.7590511116376109  0.803149422382802  1.0000
  O   O30       1.0  0.17624701418133532  0.9334846329454649  0.7281959890120575  1.0000
  O   O31       1.0  0.43487740376225054  0.668731305056717  0.7260779676271837  1.0000
  O   O32       1.0  0.22542080410887178  0.8763450303146599  0.6689634278365019  1.0000
  O   O33       1.0  0.24861526973197104  0.8544132860540472  0.8138102435361745  1.0000
  O   O34       1.0  0.09281817161846118  0.8575204560891407  0.8009355916676666  1.0000
  O   O35       1.0  0.16683340748731723  0.6627808642683632  0.718172888158982  1.0000
  O   O36       1.0  0.09437333444054732  0.7408994827779624  0.7994901343288845  1.0000
  O   O37       1.0  0.22042114119019374  0.7187759845340693  0.6633901181240274  1.0000
  O   O38       1.0  0.35894753274954644  0.6007918121579506  0.8052518776167119  1.0000
  O   O39       1.0  0.24901919055135832  0.5918140973699906  0.7993424687485485  1.0000
  O   O40       1.0  0.4999720333842248  0.0002360661589833133  0.9998141057939876  1.0000
  O   O41       1.0  0.505265306939208  0.15638147664452615  0.9492755577265797  1.0000
  O   O42       1.0  0.3865983853993812  0.9974773947371248  0.9407827825067867  1.0000
  O   O43       1.0  0.6527729509322171  0.8922590494986127  0.9464946045943207  1.0000
  O   O44       1.0  0.39083971656677363  0.1541085629555354  0.9461274347004006  1.0000
  O   O45       1.0  0.6579220660530255  0.004995862501999597  0.9504200466292047  1.0000
  O   O46       1.0  0.4956099272638638  0.8876129980558006  0.9411204476758357  1.0000
  O   O47       1.0  0.5759822116771505  0.8152337427194426  0.021799343553105605  1.0000
  O   O48       1.0  0.5319469983607519  0.031099565231016806  0.08546660975296312  1.0000
  O   O49       1.0  0.528999729652007  0.8729240678578306  0.08084920347368305  1.0000
  O   O50       1.0  0.5842914665128732  0.08816792284479649  0.0306539630174498  1.0000
  O   O51       1.0  0.3158079157178761  0.07688279468795402  0.022366220750811294  1.0000
  O   O52       1.0  0.37525129682654784  0.02411593908485088  0.08071901472941792  1.0000
  O   O53       1.0  0.7534461287396043  0.5835887116524535  0.3843676936687429  1.0000
  O   O54       1.0  0.735048102163752  0.5181034029264423  0.4450182707771687  1.0000
  O   O55       1.0  0.15407386085151836  0.7097013490643962  0.51533884513087  1.0000
  O   O56       1.0  0.23315932901024183  0.5855055619504697  0.5199485785027704  1.0000
  O   O57       1.0  0.7615146329264846  0.2071565130705225  0.06815277572197687  1.0000
  O   O58       1.0  0.6552631364871715  0.3038911175509256  0.09097062203755261  1.0000
  O   O59       1.0  0.16813850209361902  0.9998753277936958  0.8639296417753144  1.0000
  O   O60       1.0  0.2364911261122273  0.014829787257433173  0.8037612785364701  1.0000
