data_image0
_chemical_formula_structural       Ce2H32C18O16
_chemical_formula_sum              "Ce2 H32 C18 O16"
_cell_length_a       8.729289836313674
_cell_length_b       9.817337612282513
_cell_length_c       11.796512274157445
_cell_angle_alpha    73.74756757988969
_cell_angle_beta     69.77991098348578
_cell_angle_gamma    84.91651830377072

_space_group_name_H-M_alt    "P 1"
_space_group_IT_number       1

loop_
  _space_group_symop_operation_xyz
  'x, y, z'

loop_
  _atom_site_type_symbol
  _atom_site_label
  _atom_site_symmetry_multiplicity
  _atom_site_fract_x
  _atom_site_fract_y
  _atom_site_fract_z
  _atom_site_occupancy
  Ce  Ce1       1.0  0.7468217091531029  0.4916476082809994  0.5057575676666417  1.0000
  Ce  Ce2       1.0  0.2542486112942797  0.5079071955912157  0.4938948139141671  1.0000
  H   H1        1.0  0.19264634449442747  0.4467492305652172  0.8392430393138709  1.0000
  H   H2        1.0  0.25009752397232177  0.2668353592695923  0.8619227022628877  1.0000
  H   H3        1.0  0.3988912048540029  0.28661217252694376  0.0002796936384114932  1.0000
  H   H4        1.0  0.3897686648688463  0.472459996829585  0.9560536637565987  1.0000
  H   H5        1.0  0.08760971922864512  0.2788949266135178  0.10586493801131519  1.0000
  H   H6        1.0  0.08765223861001199  0.46530372274634163  0.057837335320655776  1.0000
  H   H7        1.0  0.28941899906855173  0.46323919606168573  0.17709822580735582  1.0000
  H   H8        1.0  0.25072808929892426  0.28099710237665226  0.2410885632772306  1.0000
  H   H9        1.0  0.9759003147953392  0.8639895086793107  0.6075609127132323  1.0000
  H   H10       1.0  0.02905048937101639  0.0314967256696121  0.6112663716807987  1.0000
  H   H11       1.0  0.729754681951583  0.9768683111276815  0.7195763503027733  1.0000
  H   H12       1.0  0.7103371584897501  0.9662127512242269  0.5770888347560542  1.0000
  H   H13       1.0  0.5354697680600323  0.6951141106116341  0.6528474454731422  1.0000
  H   H14       1.0  0.512018677196437  0.7548130746298586  0.5226940364655589  1.0000
  H   H15       1.0  0.9956127562325606  0.7401466784441484  0.3541635670833684  1.0000
  H   H16       1.0  0.9335801315415397  0.7017979032195285  0.25585526297323447  1.0000
  H   H17       1.0  0.8082183417219041  0.5529967593314568  0.16073262916359704  1.0000
  H   H18       1.0  0.7512428531224771  0.7331020544883986  0.13817699645129258  1.0000
  H   H19       1.0  0.6014084211657362  0.7135002012634717  0.0004011524166997038  1.0000
  H   H20       1.0  0.6106685795178778  0.5277144263368996  0.044523228308918236  1.0000
  H   H21       1.0  0.9127476955115057  0.7212041166377219  0.8936413430998797  1.0000
  H   H22       1.0  0.9125508411587829  0.5348026973345413  0.9415597834623243  1.0000
  H   H23       1.0  0.7095022798090227  0.5369709597777614  0.8236255740774466  1.0000
  H   H24       1.0  0.7481527057647881  0.719219593220139  0.7594151382693324  1.0000
  H   H25       1.0  0.02361088207563  0.13599609521945413  0.39237494553461966  1.0000
  H   H26       1.0  0.9701922388270247  0.9686316955496966  0.38865772176603725  1.0000
  H   H27       1.0  0.2695928296852089  0.023291889892767908  0.2804970429795119  1.0000
  H   H28       1.0  0.2888304177786979  0.033847394627748904  0.4230631195009948  1.0000
  H   H29       1.0  0.46467271355855644  0.30341062809748115  0.3466809116471764  1.0000
  H   H30       1.0  0.48955720682951664  0.24532566167089703  0.4766347031954935  1.0000
  H   H31       1.0  0.0044465859751099  0.2593272273177689  0.6460748929302368  1.0000
  H   H32       1.0  0.06732225948975672  0.29809167134915543  0.7437916973799473  1.0000
  C   C1        1.0  0.43719747939599785  0.414417444545805  0.737613284729619  1.0000
  C   C2        1.0  0.2904017715756027  0.3730003356586735  0.855529937799659  1.0000
  C   C3        1.0  0.3201504476956316  0.37557630690259475  0.9749608950159327  1.0000
  C   C4        1.0  0.1621510648547968  0.3735453454143923  0.08471567293837268  1.0000
  C   C5        1.0  0.19720430898175323  0.3808542284359646  0.20082360214016148  1.0000
  C   C6        1.0  0.0525425352491666  0.4116141155943185  0.3058299695143631  1.0000
  C   C7        1.0  0.9619507157378065  0.9787337962888428  0.5714500133154773  1.0000
  C   C8        1.0  0.7803533092334263  0.016038557070110905  0.6165634744209924  1.0000
  C   C9        1.0  0.754203598783377  0.17458852988945497  0.5849055853931303  1.0000
  C   C10       1.0  0.5635322803136165  0.5858291517735668  0.2623762048899322  1.0000
  C   C11       1.0  0.710610836388497  0.6270397657045736  0.14459148427011556  1.0000
  C   C12       1.0  0.6804256821647953  0.6245934244631999  0.025329187936193882  1.0000
  C   C13       1.0  0.837882935248352  0.6266402233824806  0.915185356233401  1.0000
  C   C14       1.0  0.8018873296033604  0.6193828505129986  0.7994905591770587  1.0000
  C   C15       1.0  0.9460574856830134  0.5882635485109873  0.694331988204425  1.0000
  C   C16       1.0  0.0373817430310197  0.021221864409518808  0.42853885638258055  1.0000
  C   C17       1.0  0.2189903351902416  0.9839491806019471  0.38349835044941455  1.0000
  C   C18       1.0  0.245590393084413  0.825411191878665  0.41512229628914094  1.0000
  O   O1        1.0  0.417523920662525  0.43884219580749584  0.6302873021576687  1.0000
  O   O2        1.0  0.5771001458792214  0.4279808153704535  0.7430433347702702  1.0000
  O   O3        1.0  0.9086483908852755  0.4143840874022688  0.30278652592923544  1.0000
  O   O4        1.0  0.07894309302044179  0.43731490850854016  0.39886179677495903  1.0000
  O   O5        1.0  0.8397430291947146  0.2529254645505077  0.6116999329504155  1.0000
  O   O6        1.0  0.6508717028175822  0.23228292978424755  0.5322575712453529  1.0000
  O   O7        1.0  0.596178575869331  0.7210592378259194  0.5633815476639015  1.0000
  O   O8        1.0  0.8956791918037155  0.7157804696641394  0.33950869553339647  1.0000
  O   O9        1.0  0.5823632569470618  0.5626905496212233  0.36980964132001054  1.0000
  O   O10       1.0  0.4241400161736165  0.5710942686178343  0.2564849795861832  1.0000
  O   O11       1.0  0.0899207406799576  0.5832882974480144  0.6977060080778512  1.0000
  O   O12       1.0  0.9189381708320568  0.5644748968725255  0.6009458115762385  1.0000
  O   O13       1.0  0.1602279220292289  0.7467388361467047  0.38851264096236793  1.0000
  O   O14       1.0  0.34926459962480283  0.7680916970074989  0.46750250570881496  1.0000
  O   O15       1.0  0.40506140379848443  0.27960589550828274  0.43630372047143606  1.0000
  O   O16       1.0  0.10456178563809002  0.284231555306242  0.6601070864967723  1.0000
