data_image0
_chemical_formula_structural       AlH12C21NO12
_chemical_formula_sum              "Al1 H12 C21 N1 O12"
_cell_length_a       4.18286195000325
_cell_length_b       13.469510474526418
_cell_length_c       13.469529271957885
_cell_angle_alpha    119.99934574464454
_cell_angle_beta     90.00005927088573
_cell_angle_gamma    89.99986673137022

_space_group_name_H-M_alt    "P 1"
_space_group_IT_number       1

loop_
  _space_group_symop_operation_xyz
  'x, y, z'

loop_
  _atom_site_type_symbol
  _atom_site_label
  _atom_site_symmetry_multiplicity
  _atom_site_fract_x
  _atom_site_fract_y
  _atom_site_fract_z
  _atom_site_occupancy
  Al  Al1       1.0  1.4683756078000003e-06  0.49999720621817545  0.49999588387972693  1.0000
  H   H1        1.0  0.19114800739946253  0.029557888294256412  0.8937340876945541  1.0000
  H   H2        1.0  0.8088012442639754  0.02955444755845346  0.6358215416533852  1.0000
  H   H3        1.0  0.8088732488687002  0.10626694821174702  0.9704407300916386  1.0000
  H   H4        1.0  0.19117087235256494  0.36417080066143376  0.9704476451665087  1.0000
  H   H5        1.0  0.8089224267488293  0.36415473049873964  0.8937102706986265  1.0000
  H   H6        1.0  0.1910636398378571  0.10628901351186923  0.6358539978579145  1.0000
  H   H7        1.0  0.9761695919681161  0.7446521383592141  0.5108292340785922  1.0000
  H   H8        1.0  0.023752679561575004  0.7446581445311009  0.7338224036704659  1.0000
  H   H9        1.0  0.9762592981355738  0.26617824839181736  0.2553433005192929  1.0000
  H   H10       1.0  0.023817332653941006  0.48915313035117697  0.2553429749171698  1.0000
  H   H11       1.0  0.9762688705788704  0.4891337761035501  0.7337818728966354  1.0000
  H   H12       1.0  0.0237276852572137  0.2662090082859833  0.5108603935694802  1.0000
  C   C1        1.0  0.5000036436116275  0.41082146407502756  0.3216650087460451  1.0000
  C   C2        1.0  0.4999993028548035  0.4108294369950869  0.5891631810013607  1.0000
  C   C3        1.0  0.49996728949252406  0.6783359373794154  0.5891620877774741  1.0000
  C   C4        1.0  0.3153182087881206  0.8660627860176221  0.7529039469870042  1.0000
  C   C5        1.0  0.32691999912321995  0.9850938939580657  0.8147283512462522  1.0000
  C   C6        1.0  0.4999650211344503  0.04524877400865524  0.7726285133641895  1.0000
  C   C7        1.0  0.6730272869981208  0.9850973305650967  0.6703545024591903  1.0000
  C   C8        1.0  0.6846081962354945  0.8660587866015134  0.6131493659676082  1.0000
  C   C9        1.0  0.4999693423447482  0.8049506973916107  0.65247064473688  1.0000
  C   C10       1.0  0.6731126750653403  0.185259833001524  0.01490116160749722  1.0000
  C   C11       1.0  0.6846908523330698  0.24709037547908252  0.13394081982195877  1.0000
  C   C12       1.0  0.5000419074226131  0.34751470573328896  0.1950530812899913  1.0000
  C   C13       1.0  0.31539536524702794  0.3868348120495853  0.13394199045574598  1.0000
  C   C14       1.0  0.32697356598658445  0.3296315583148868  0.014910645268336988  1.0000
  C   C15       1.0  0.5000172807324292  0.22737416125043092  0.9547485875928458  1.0000
  C   C16       1.0  0.673111097852548  0.3296335516097172  0.8147275353341144  1.0000
  C   C17       1.0  0.6846866026076699  0.3868306858073041  0.7528890171944055  1.0000
  C   C18       1.0  0.5000091910484201  0.3475264024473502  0.6524749477212168  1.0000
  C   C19       1.0  0.3152914515631124  0.24710362420656637  0.613168808798946  1.0000
  C   C20       1.0  0.3268914751327827  0.18528723662615224  0.6703820854161863  1.0000
  C   C21       1.0  0.4999859015225994  0.22736484047168645  0.7726213260742013  1.0000
  N   N1        1.0  0.49999338563449686  0.1666654289418261  0.833333931497421  1.0000
  O   O1        1.0  0.7376157866531943  0.6266208752840327  0.6037965603801041  1.0000
  O   O2        1.0  0.7376446174325865  0.47717138285836563  0.3733744666842895  1.0000
  O   O3        1.0  0.7376308021759144  0.3961946888163012  0.5228247630179439  1.0000
  O   O4        1.0  0.26235971035750794  0.6266231867179785  0.5228199570172763  1.0000
  O   O5        1.0  0.26237710061836594  0.4771698810179714  0.6037945626689023  1.0000
  O   O6        1.0  0.2623889573299111  0.39619311867338786  0.37337227359375186  1.0000
  O   O7        1.0  0.869902410920979  0.8122816407059545  0.5165944804027234  1.0000
  O   O8        1.0  0.12999559262876662  0.8122776606359281  0.795677600839049  1.0000
  O   O9        1.0  0.8700330904098978  0.2043131876171742  0.18771139182063482  1.0000
  O   O10       1.0  0.13007224219956734  0.48339689040182066  0.1877269111934723  1.0000
  O   O11       1.0  0.8700737594701949  0.48337583177495  0.795654058825285  1.0000
  O   O12       1.0  0.1299350974997537  0.2043381170636492  0.5166257632862425  1.0000
