data_image0
_chemical_formula_structural       Ni2H32C48S4N8O8
_chemical_formula_sum              "Ni2 H32 C48 S4 N8 O8"
_cell_length_a       8.270021205356146
_cell_length_b       9.600077945150359
_cell_length_c       14.8855
_cell_angle_alpha    92.06406847092413
_cell_angle_beta     95.79697967328075
_cell_angle_gamma    105.2922514810491

_space_group_name_H-M_alt    "P 1"
_space_group_IT_number       1

loop_
  _space_group_symop_operation_xyz
  'x, y, z'

loop_
  _atom_site_type_symbol
  _atom_site_label
  _atom_site_symmetry_multiplicity
  _atom_site_fract_x
  _atom_site_fract_y
  _atom_site_fract_z
  _atom_site_occupancy
  Ni  Ni1       1.0  8.965609765885961e-07  0.9999999033592744  4.5114278180444644e-07  1.0000
  Ni  Ni2       1.0  0.5000000951548884  0.5000004927811189  0.9999990090940971  1.0000
  H   H1        1.0  0.10089692517443889  0.7406055941932479  0.07854394135686961  1.0000
  H   H2        1.0  0.8991065719827702  0.2593943091660336  0.9214582680263776  1.0000
  H   H3        1.0  0.16892825271362003  0.6154163560310835  0.4599789390322259  1.0000
  H   H4        1.0  0.8310715982367824  0.3845835473281909  0.5400210503590089  1.0000
  H   H5        1.0  0.9446958868337701  0.0770799056716811  0.18976318321320923  1.0000
  H   H6        1.0  0.055302748714375106  0.9229199976875931  0.8102367379753801  1.0000
  H   H7        1.0  0.9790268427726687  0.9922480835723135  0.3465708702253778  1.0000
  H   H8        1.0  0.020973347537108097  0.0077529019899174  0.6534291633469209  1.0000
  H   H9        1.0  0.43081619301577945  0.360912522031505  0.8123894910069256  1.0000
  H   H10       1.0  0.5691827818917332  0.6390884635307329  0.18760778718393575  1.0000
  H   H11       1.0  0.0802180813402913  0.7677483265786619  0.5547860503243883  1.0000
  H   H12       1.0  0.9197812329265957  0.2322537411865255  0.4452132874316348  1.0000
  H   H13       1.0  0.1449000414384614  0.6430677238066806  0.2288278216253019  1.0000
  H   H14       1.0  0.8551001488713155  0.3569332617555503  0.771173555536393  1.0000
  H   H15       1.0  0.1420132536548948  0.7468434120421961  0.7917293539376687  1.0000
  H   H16       1.0  0.8579872760142565  0.2531586557229986  0.2082707238156942  1.0000
  H   H17       1.0  0.3220962035181927  0.4214812571755218  0.6583482002990878  1.0000
  H   H18       1.0  0.6779006799441589  0.5785208105896728  0.34164965746225573  1.0000
  H   H19       1.0  0.263393802636962  0.6783204851581033  0.9388662831472914  1.0000
  H   H20       1.0  0.7366100338796214  0.3216805004041277  0.0611332832382203  1.0000
  H   H21       1.0  0.629796626155894  0.7898923635018491  0.3373000278104925  1.0000
  H   H22       1.0  0.3702028854351411  0.2101064576544687  0.6626999173996779  1.0000
  H   H23       1.0  0.4402497578821993  0.0936159668673753  0.18350150160611636  1.0000
  H   H24       1.0  0.5597513084704744  0.9063839364919062  0.8164992277824511  1.0000
  H   H25       1.0  0.3389355445313669  0.2784886981540424  0.2599050175872577  1.0000
  H   H26       1.0  0.6610645037431837  0.7215079585963622  0.7400949074634229  1.0000
  H   H27       1.0  0.5673844733057649  0.8876726473509677  0.19098421555703035  1.0000
  H   H28       1.0  0.43262125733183154  0.1123305026171835  0.8090161791879497  1.0000
  H   H29       1.0  0.27912585097293163  0.39162219536594006  0.4017449585048568  1.0000
  H   H30       1.0  0.7208689963331807  0.6083733791815078  0.5982539777595122  1.0000
  H   H31       1.0  0.6673576661107745  0.7065465027043132  0.4525166293364081  1.0000
  H   H32       1.0  0.3326359657930738  0.2934490718431277  0.5474835823147188  1.0000
  C   C1        1.0  0.37856728313044397  0.1633596186878989  0.9777160973956711  1.0000
  C   C2        1.0  0.6214356773432428  0.8366424490772886  0.022284116762968213  1.0000
  C   C3        1.0  0.1487220342646296  0.3214196894912931  0.0716404628978538  1.0000
  C   C4        1.0  0.8512793714474185  0.678581296070945  0.9283582952876799  1.0000
  C   C5        1.0  0.07576630768506476  0.7939073364754136  0.1393842372764311  1.0000
  C   C6        1.0  0.9242340799488673  0.2060904024779475  0.860616403750015  1.0000
  C   C7        1.0  0.0646561572309565  0.8105343027195602  0.2998382822527788  1.0000
  C   C8        1.0  0.9353449091217173  0.18946560063971415  0.7001624471357887  1.0000
  C   C9        1.0  0.22499655824243803  0.5893103740792682  0.7134381791602564  1.0000
  C   C10       1.0  0.7750020773057003  0.4106895292800061  0.2865617420283328  1.0000
  C   C11       1.0  0.1729861061721465  0.6312403276805227  0.6219789345047746  1.0000
  C   C12       1.0  0.8270119926924692  0.36876174008466467  0.3780223504327084  1.0000
  C   C13       1.0  0.08940159133709359  0.7578375118908267  0.3917041383888106  1.0000
  C   C14       1.0  0.9105998143749545  0.2421634736714111  0.6082973069755226  1.0000
  C   C15       1.0  0.9877695392420165  0.9811912159521298  0.20209401156709114  1.0000
  C   C16       1.0  0.0122324031535541  0.0188076052041879  0.7979053982536541  1.0000
  C   C17       1.0  0.006794711511254504  0.9337604247162119  0.28868081399460277  1.0000
  C   C18       1.0  0.9932066942007866  0.066240560846019  0.7113192877803345  1.0000
  C   C19       1.0  0.366201648392078  0.4455959856849177  0.804254586227863  1.0000
  C   C20       1.0  0.6337954323944218  0.5544028354714001  0.19574387898763493  1.0000
  C   C21       1.0  0.0993990834451779  0.7393134438615903  0.22349184805538166  1.0000
  C   C22       1.0  0.9006019829074957  0.26068645949768404  0.7765095531278947  1.0000
  C   C23       1.0  0.2045476539878806  0.6606232201886542  0.7931396675905021  1.0000
  C   C24       1.0  0.7954513209196321  0.3393777653735767  0.2068596259844568  1.0000
  C   C25       1.0  0.3045639711802153  0.47789433296145484  0.7197214144848021  1.0000
  C   C26       1.0  0.6954337883250332  0.522106652600776  0.28027713909282437  1.0000
  C   C27       1.0  0.27153593523807723  0.622679020081101  0.8752407569047378  1.0000
  C   C28       1.0  0.7284654704739709  0.37732196548113  0.12475867307549753  1.0000
  C   C29       1.0  0.5376506689340204  0.9369691564861853  0.4174313144822079  1.0000
  C   C30       1.0  0.46234573313373056  0.0630275002642122  0.5825690777552595  1.0000
  C   C31       1.0  0.4667711367395242  0.0579195023032426  0.41438059804752925  1.0000
  C   C32       1.0  0.533226480730498  0.9420771544471619  0.5856198623925764  1.0000
  C   C33       1.0  0.5708315562814336  0.8771774430658965  0.5049018184184108  1.0000
  C   C34       1.0  0.4291676159502273  0.12282029588746467  0.49509808261069577  1.0000
  C   C35       1.0  0.43293085125380776  0.11546889119490089  0.32866508269178507  1.0000
  C   C36       1.0  0.5670671055755889  0.8845288477584602  0.6713360937240794  1.0000
  C   C37       1.0  0.5730918489193542  0.8800095682065461  0.33644172531190014  1.0000
  C   C38       1.0  0.42690800203104823  0.1199903351527283  0.6635582640793347  1.0000
  C   C39       1.0  0.4688699935020679  0.0511827888907277  0.24848384328613804  1.0000
  C   C40       1.0  0.5311298574483415  0.9488171144685466  0.7515168178997912  1.0000
  C   C41       1.0  0.36429271675940095  0.2361107125282444  0.3253773282797354  1.0000
  C   C42       1.0  0.6357040246677244  0.7638870264251167  0.674621764549393  1.0000
  C   C43       1.0  0.5387515069135915  0.9357278696935509  0.2528423077037019  1.0000
  C   C44       1.0  0.461248344036818  0.0642720336657234  0.7471576816875329  1.0000
  C   C45       1.0  0.3307946904345229  0.2982940944853495  0.4038993707952373  1.0000
  C   C46       1.0  0.6692004962309639  0.701702562265055  0.5961002814448834  1.0000
  C   C47       1.0  0.6372288817275161  0.7582422557970574  0.5124137063343853  1.0000
  C   C48       1.0  0.3627663049379705  0.2417544009533472  0.4875852741110407  1.0000
  S   S1        1.0  0.2874459379194221  0.9920814243168081  0.9817743957198743  1.0000
  S   S2        1.0  0.7125566831948973  0.0079195612454228  0.018227117847097008  1.0000
  S   S3        1.0  0.2552812470485009  0.49048901098471726  0.0883290363210349  1.0000
  S   S4        1.0  0.7447170491402701  0.5095098101716005  0.9116681535076978  1.0000
  N   N1        1.0  0.4445565438583543  0.2879655494557909  0.9735150687235363  1.0000
  N   N2        1.0  0.555444183134952  0.7120332717005269  0.02648427289457089  1.0000
  N   N3        1.0  0.07186398298691188  0.19828447254310075  0.059142004056177214  1.0000
  N   N4        1.0  0.9281376200492842  0.8017132664102602  0.9408573615835041  1.0000
  N   N5        1.0  0.021814422150597965  0.9133803786142919  0.12853028477861272  1.0000
  N   N6        1.0  0.9781871808855984  0.0866173603390621  0.8714704244504716  1.0000
  N   N7        1.0  0.3542995005308924  0.519614339188891  0.8807277391821202  1.0000
  N   N8        1.0  0.6457003504195171  0.4803855641703905  0.11927090661971111  1.0000
  O   O1        1.0  0.19738613541657904  0.5650625346060563  0.5530917228711587  1.0000
  O   O2        1.0  0.8026128394909335  0.4349384509561744  0.44690824249850186  1.0000
  O   O3        1.0  0.153787425040413  0.6459680277336801  0.39396480013189733  1.0000
  O   O4        1.0  0.8462136413122605  0.3540318756256013  0.606036601051379  1.0000
  O   O5        1.0  0.10482921765259323  0.740517935753658  0.6208740176276136  1.0000
  O   O6        1.0  0.8951716513759324  0.2594852142144859  0.37912610430680627  1.0000
  O   O7        1.0  0.050304999893604894  0.8165816528479368  0.45926211006749906  1.0000
  O   O8        1.0  0.9496972818613328  0.1834182505113446  0.540738015729012  1.0000
