data_image0
_chemical_formula_structural       CdNiH12C14N8
_chemical_formula_sum              "Cd1 Ni1 H12 C14 N8"
_cell_length_a       7.334812325563875
_cell_length_b       7.360111617333867
_cell_length_c       8.795938881409104
_cell_angle_alpha    114.72030820370064
_cell_angle_beta     105.62729850075816
_cell_angle_gamma    89.97757500939078

_space_group_name_H-M_alt    "P 1"
_space_group_IT_number       1

loop_
  _space_group_symop_operation_xyz
  'x, y, z'

loop_
  _atom_site_type_symbol
  _atom_site_label
  _atom_site_symmetry_multiplicity
  _atom_site_fract_x
  _atom_site_fract_y
  _atom_site_fract_z
  _atom_site_occupancy
  Cd  Cd1       1.0  0.5000039466690467  4.918096429700742e-06  2.6247105893091944e-06  1.0000
  Ni  Ni1       1.0  0.9999999853040435  0.4999933300554034  0.9999961583796944  1.0000
  H   H1        1.0  0.8219206750230797  0.8893121287127884  0.7793989536901336  1.0000
  H   H2        1.0  0.1780866891177837  0.11065884642460593  0.22060208260099048  1.0000
  H   H3        1.0  0.516799851880208  0.6141991742609038  0.22845077165084138  1.0000
  H   H4        1.0  0.4831898754244578  0.38594434129581867  0.7715508976390238  1.0000
  H   H5        1.0  0.2112749912829557  0.6549114358874207  0.3098447449816817  1.0000
  H   H6        1.0  0.7887171591094599  0.3451881821468846  0.6901625672568699  1.0000
  H   H7        1.0  0.22725579009637192  0.8132592935806144  0.6266221749276041  1.0000
  H   H8        1.0  0.7727590545038724  0.18675695207999612  0.373386272804943  1.0000
  H   H9        1.0  0.881425565048808  0.5839977752026898  0.38856542590812637  1.0000
  H   H10       1.0  0.11868147943131653  0.19572187344585504  0.6114339687234889  1.0000
  H   H11       1.0  0.11905533862511673  0.4161083755283884  0.6121372490522887  1.0000
  H   H12       1.0  0.8808167415326127  0.8036742716517369  0.3878449484187456  1.0000
  C   C1        1.0  0.6886421750340972  0.8359064005475008  0.6723338753120061  1.0000
  C   C2        1.0  0.3113448711635841  0.16404967473291523  0.3276559981186438  1.0000
  C   C3        1.0  0.6932742844727642  0.7490787562825504  0.4986141530785276  1.0000
  C   C4        1.0  0.30672695961924035  0.2509724113609694  0.5013885481687126  1.0000
  C   C5        1.0  0.5186617219132899  0.6826829058795456  0.36548823846945316  1.0000
  C   C6        1.0  0.4813210282011583  0.3174304254312261  0.6345137033591611  1.0000
  C   C7        1.0  0.3494904568014193  0.7053111092178387  0.41077289344899276  1.0000
  C   C8        1.0  0.6505148598391628  0.2947611412020946  0.5892427121466993  1.0000
  C   C9        1.0  0.3574423760714467  0.7932808615936583  0.586865617956903  1.0000
  C   C10       1.0  0.6425465237750388  0.20670085258213086  0.4131370965098852  1.0000
  C   C11       1.0  0.1548655448431333  0.6489367184187173  0.94996224264203  1.0000
  C   C12       1.0  0.8455164245422611  0.6993525786034597  0.05060526187523357  1.0000
  C   C13       1.0  0.8451353517919314  0.35104796480491995  0.05002842923364889  1.0000
  C   C14       1.0  0.1544890209444816  0.3006456418568036  0.9493935064818328  1.0000
  N   N1        1.0  0.5245991320482446  0.8571944337189238  0.7149262863710317  1.0000
  N   N2        1.0  0.47541478484890837  0.14273111251289813  0.2850762833795386  1.0000
  N   N3        1.0  0.25794381794912624  0.7394456569439712  0.9174120430091292  1.0000
  N   N4        1.0  0.7425795719889268  0.822586732959728  0.08332831895790355  1.0000
  N   N5        1.0  0.7420431299444489  0.26052862282723055  0.0825637256533796  1.0000
  N   N6        1.0  0.2574622547510543  0.17741105363456466  0.9166993586294863  1.0000
  N   N7        1.0  0.8749442132754055  0.7324099004374249  0.46495684261169856  1.0000
  N   N8        1.0  0.1250499352818082  0.267806201983298  0.5350349444752779  1.0000
