data_image0
_chemical_formula_structural       Na4H36C28S4Br4N4Cl4O14
_chemical_formula_sum              "Na4 H36 C28 S4 Br4 N4 Cl4 O14"
_cell_length_a       6.331809628623012
_cell_length_b       6.3324202061284725
_cell_length_c       30.71703111396748
_cell_angle_alpha    93.61581591581967
_cell_angle_beta     92.8851106704154
_cell_angle_gamma    116.65884233759137

_space_group_name_H-M_alt    "P 1"
_space_group_IT_number       1

loop_
  _space_group_symop_operation_xyz
  'x, y, z'

loop_
  _atom_site_type_symbol
  _atom_site_label
  _atom_site_symmetry_multiplicity
  _atom_site_fract_x
  _atom_site_fract_y
  _atom_site_fract_z
  _atom_site_occupancy
  Na  Na1       1.0  0.46834337883001365  0.9204812728499407  0.263409814841765  1.0000
  Na  Na2       1.0  0.15704726625308038  0.20516519066327993  0.23668068108951706  1.0000
  Na  Na3       1.0  0.5316426227206179  0.0795132500431919  0.7365900227528286  1.0000
  Na  Na4       1.0  0.8429419197953719  0.7948364637001432  0.763319921942575  1.0000
  H   H1        1.0  0.41820266149782276  0.0510574384101901  0.4723660391294687  1.0000
  H   H2        1.0  0.07888322670721234  0.9463496977079087  0.027719191072108604  1.0000
  H   H3        1.0  0.5817864126867107  0.9489263990041438  0.5276334143357744  1.0000
  H   H4        1.0  0.9211511782116304  0.05366065535135789  0.9722805163953795  1.0000
  H   H5        1.0  0.956535615493678  0.3826131343858279  0.4603385175195954  1.0000
  H   H6        1.0  0.4226555490541912  0.49686882468078847  0.0397596172082544  1.0000
  H   H7        1.0  0.04345645482268879  0.6173779581281167  0.5396643048698024  1.0000
  H   H8        1.0  0.5773469073370876  0.5031132185212357  0.9602403367307988  1.0000
  H   H9        1.0  0.8428811730897151  0.21082468339722743  0.38282677042126784  1.0000
  H   H10       1.0  0.32852138778777373  0.46088221425925013  0.11729801539606655  1.0000
  H   H11       1.0  0.15710953457040225  0.7891805830623395  0.617175191637074  1.0000
  H   H12       1.0  0.6714818058635926  0.5391016504445147  0.8827029434919426  1.0000
  H   H13       1.0  0.4627656636448804  0.8263435335226816  0.4163645658320264  1.0000
  H   H14       1.0  0.9103776306119399  0.047145498293730305  0.08379338355113222  1.0000
  H   H15       1.0  0.5372219172001778  0.1736509855343158  0.5836352943936093  1.0000
  H   H16       1.0  0.08966481677994413  0.9528790520553302  0.9162065756790769  1.0000
  H   H17       1.0  0.4286288920867846  0.8979059398309557  0.36226991609430576  1.0000
  H   H18       1.0  0.036307828233049115  0.06701441295641081  0.13784263408534517  1.0000
  H   H19       1.0  0.5713650895276885  0.10209208709178341  0.6377294184357327  1.0000
  H   H20       1.0  0.9637265319575119  0.9330031256064119  0.8621587698650475  1.0000
  H   H21       1.0  0.19696151661120354  0.6514116262902975  0.3821977036926044  1.0000
  H   H22       1.0  0.7697509099621981  0.8156121091260856  0.11799469147442211  1.0000
  H   H23       1.0  0.8030253399282541  0.3485846408362434  0.6178015116717788  1.0000
  H   H24       1.0  0.230286891366184  0.1844052363204938  0.8820028525080803  1.0000
  H   H25       1.0  0.7440625150737077  0.7926782524294962  0.1964347200986367  1.0000
  H   H26       1.0  0.09613660003795137  0.5478754868808053  0.30364760374403943  1.0000
  H   H27       1.0  0.2559370017301106  0.20732512315052523  0.803565396489546  1.0000
  H   H28       1.0  0.9038398680633792  0.45212267496142294  0.6963534344594678  1.0000
  H   H29       1.0  0.6952147241410457  0.0083211911868233  0.18733346428067685  1.0000
  H   H30       1.0  0.32089624021010366  0.5081026415680299  0.3127492468903129  1.0000
  H   H31       1.0  0.30477765463326284  0.9916768550257161  0.81266617305414  1.0000
  H   H32       1.0  0.6790753122332375  0.4918920703869746  0.6872536413831655  1.0000
  H   H33       1.0  0.6855628259150636  0.44653257569760285  0.27541512898920223  1.0000
  H   H34       1.0  0.6711815647513503  0.41014836923798015  0.224663531287618  1.0000
  H   H35       1.0  0.31442165875034794  0.5534726442918513  0.7245854408016186  1.0000
  H   H36       1.0  0.32881083993192556  0.589856816117127  0.7753368262226134  1.0000
  C   C1        1.0  0.06462044613505918  0.034675538988025806  0.3840865321341768  1.0000
  C   C2        1.0  0.1508000719386757  0.6810911294149946  0.11602058940395923  1.0000
  C   C3        1.0  0.9353569840925716  0.965327874844242  0.6159129421834919  1.0000
  C   C4        1.0  0.8492319716973854  0.31892459148223656  0.8839797869664283  1.0000
  C   C5        1.0  0.229948185190942  0.9868422305533926  0.40887245921945253  1.0000
  C   C6        1.0  0.07835725338757263  0.8218031793257269  0.09124644602010792  1.0000
  C   C7        1.0  0.7700514363871275  0.013157498187020193  0.5911256701018601  1.0000
  C   C8        1.0  0.9216517132738176  0.1781930340949032  0.9087530861789619  1.0000
  C   C9        1.0  0.29203987268844855  0.0859693603993463  0.452472742315095  1.0000
  C   C10       1.0  0.1335414094094033  0.8399989600143127  0.04761688463781159  1.0000
  C   C11       1.0  0.7079500882587053  0.914005466173549  0.5475240323493367  1.0000
  C   C12       1.0  0.8664961800072463  0.1600185245152446  0.9523835882671818  1.0000
  C   C13       1.0  0.1921076732743004  0.22329435905313497  0.4709255072866086  1.0000
  C   C14       1.0  0.25252030071960263  0.7217062613075244  0.029160472367308902  1.0000
  C   C15       1.0  0.8078869255083061  0.77669841204343  0.5290754137603102  1.0000
  C   C16       1.0  0.7474918739853466  0.2782970681297385  0.9708394998334243  1.0000
  C   C17       1.0  0.0324484263641125  0.2729778346542204  0.4461218171346674  1.0000
  C   C18       1.0  0.3271092578436665  0.5869221210218569  0.0539715441077746  1.0000
  C   C19       1.0  0.9675467319038588  0.7270132965484494  0.5538820268243329  1.0000
  C   C20       1.0  0.6729037694868865  0.4130757980525814  0.9460267602515133  1.0000
  C   C21       1.0  0.9695721311656202  0.1768821285292432  0.4026692262859228  1.0000
  C   C22       1.0  0.2746503435508174  0.5676696854120209  0.09744707348142613  1.0000
  C   C23       1.0  0.030424237640609492  0.8231176696981067  0.5973301595166235  1.0000
  C   C24       1.0  0.7253507607754699  0.43232294671068433  0.9025513346030252  1.0000
  C   C25       1.0  0.3360482050218749  0.8330775773528103  0.3915385693471052  1.0000
  C   C26       1.0  0.9420096497556472  0.9452260345215888  0.10859328219630981  1.0000
  C   C27       1.0  0.663940908026113  0.1669169687753751  0.6084619643812418  1.0000
  C   C28       1.0  0.0580193789292665  0.05479675592215468  0.8914061419082274  1.0000
  S   S1        1.0  0.9586937653315246  0.9093696694561828  0.3285815819748522  1.0000
  S   S2        1.0  0.0808211335156344  0.630484204944743  0.1715140160461388  1.0000
  S   S3        1.0  0.041296168568273096  0.09063022138403201  0.6714193404826647  1.0000
  S   S4        1.0  0.9191865411267416  0.3695261360605143  0.8284836795143633  1.0000
  Br  Br1       1.0  0.6230227485743712  0.47638011803095287  0.36260669665176704  1.0000
  Br  Br2       1.0  0.6140113118785208  0.26066621309197296  0.1374372537201864  1.0000
  Br  Br3       1.0  0.3769720303461739  0.5236232690574739  0.6373933520432689  1.0000
  Br  Br4       1.0  0.3859985356806632  0.7393388837046403  0.862562376424073  1.0000
  N   N1        1.0  0.8733476636256228  0.6289270859778  0.32562232048064743  1.0000
  N   N2        1.0  0.8032569287925  0.5477364933038303  0.17444364902525686  1.0000
  N   N3        1.0  0.1266328204165958  0.3710799670217996  0.6743791863659823  1.0000
  N   N4        1.0  0.1967537372552712  0.4522667936085724  0.8255553242369302  1.0000
  Cl  Cl1       1.0  0.2626914584058682  0.3277931303442331  0.5257239681010192  1.0000
  Cl  Cl2       1.0  0.30181047994779686  0.736968928427089  0.9743226149230042  1.0000
  Cl  Cl3       1.0  0.7373060246446597  0.6721890789028463  0.4742791723032057  1.0000
  Cl  Cl4       1.0  0.6982057530630997  0.26302895206775645  0.025675083826719507  1.0000
  O   O1        1.0  0.15915132607133126  0.9940105786216759  0.30122094672650224  1.0000
  O   O2        1.0  0.19249812332486013  0.858144180546219  0.198905968841558  1.0000
  O   O3        1.0  0.8408284418933291  0.005987482826291994  0.6987781841241018  1.0000
  O   O4        1.0  0.8075085291452383  0.1418573698050452  0.8010935813887414  1.0000
  O   O5        1.0  0.7741528715491697  0.9799669859466179  0.3171705309746572  1.0000
  O   O6        1.0  0.16304233362093604  0.4575312601030318  0.18292588243080846  1.0000
  O   O7        1.0  0.22583782315646056  0.0200347109416654  0.6828310709959882  1.0000
  O   O8        1.0  0.8369658769610595  0.5424774564619952  0.8170750614776099  1.0000
  O   O9        1.0  0.7420864576760096  0.9367047302333731  0.21094201494994994  1.0000
  O   O10       1.0  0.22570831539806588  0.531404651348005  0.2891405543158073  1.0000
  O   O11       1.0  0.25790507906395976  0.06329514131704168  0.789058604702781  1.0000
  O   O12       1.0  0.7742672141227233  0.4685882430505188  0.7108617223376967  1.0000
  O   O13       1.0  0.5853942252585114  0.3353419732622172  0.2500442824260034  1.0000
  O   O14       1.0  0.41459268073565886  0.6646614175532263  0.7499553276779596  1.0000
