data_image0
_chemical_formula_structural       Al4H20C64I16N16O20
_chemical_formula_sum              "Al4 H20 C64 I16 N16 O20"
_cell_length_a       6.709840079020242
_cell_length_b       25.43972661602966
_cell_length_c       28.175471386097648
_cell_angle_alpha    89.99982995612318
_cell_angle_beta     89.99973970851393
_cell_angle_gamma    89.9999424402501

_space_group_name_H-M_alt    "P 1"
_space_group_IT_number       1

loop_
  _space_group_symop_operation_xyz
  'x, y, z'

loop_
  _atom_site_type_symbol
  _atom_site_label
  _atom_site_symmetry_multiplicity
  _atom_site_fract_x
  _atom_site_fract_y
  _atom_site_fract_z
  _atom_site_occupancy
  Al  Al1       1.0  0.21537444813643702  0.7518228835135332  0.2500000097539257  1.0000
  Al  Al2       1.0  0.7846150966188503  0.2481781876473193  0.750000163699262  1.0000
  Al  Al3       1.0  0.7153744469866652  0.7481784960795538  0.2500000879055335  1.0000
  Al  Al4       1.0  0.28461658812444307  0.25181943039373783  0.7499997306324032  1.0000
  H   H1        1.0  0.24742720734943188  0.6088905872694356  0.45143745242190647  1.0000
  H   H2        1.0  0.7525846926297179  0.39110812537044387  0.54856343085914  1.0000
  H   H3        1.0  0.7525661055026446  0.39111100286678646  0.9514358387304185  1.0000
  H   H4        1.0  0.24742940063992339  0.6088877097753668  0.0485653994785054  1.0000
  H   H5        1.0  0.7474215761249212  0.891110388048034  0.0485640288034688  1.0000
  H   H6        1.0  0.2525798914126085  0.10888753842111498  0.9514372094031529  1.0000
  H   H7        1.0  0.25259102681999224  0.10889212956560361  0.5485612523396312  1.0000
  H   H8        1.0  0.7474074600371451  0.8911105139399567  0.4514375014318474  1.0000
  H   H9        1.0  0.6915863719387544  0.6195445077266797  0.33641160569876394  1.0000
  H   H10       1.0  0.30842254734411506  0.3804561703442245  0.663588922662683  1.0000
  H   H11       1.0  0.30840755403496434  0.3804554940196284  0.8364094562947526  1.0000
  H   H12       1.0  0.6915939135017196  0.6195455771379773  0.1635914269890009  1.0000
  H   H13       1.0  0.1915771863627711  0.8804596317692627  0.1635910031935737  1.0000
  H   H14       1.0  0.8084183197751926  0.11954261864676141  0.8364102350105966  1.0000
  H   H15       1.0  0.8084184096040871  0.1195397572000871  0.6635897013916789  1.0000
  H   H16       1.0  0.19157411585124604  0.8804589554443324  0.3364104720630009  1.0000
  H   H17       1.0  0.4562849023888517  0.6805870130580304  0.2499999697511583  1.0000
  H   H18       1.0  0.5437106037521744  0.3194128788420798  0.750001268456181  1.0000
  H   H19       1.0  0.9562862063544983  0.8194150686120454  0.2500016310771613  1.0000
  H   H20       1.0  0.043709299780729786  0.18058678871741315  0.7499999620461749  1.0000
  C   C1        1.0  0.4683097575803785  0.8120002660299052  0.3151720766996604  1.0000
  C   C2        1.0  0.5316753161115173  0.18799962587027613  0.6848302262694758  1.0000
  C   C3        1.0  0.5316785954036902  0.18800059150980536  0.8151698379693214  1.0000
  C   C4        1.0  0.4683109493656018  0.8119996934813969  0.18482891581036395  1.0000
  C   C5        1.0  0.9683200467733143  0.6880006321844264  0.18482880074006397  1.0000
  C   C6        1.0  0.03167993041540029  0.31200004588745145  0.815172082545061  1.0000
  C   C7        1.0  0.0316900642879574  0.3120022249392847  0.6848289216470247  1.0000
  C   C8        1.0  0.968317364628156  0.6880000254729098  0.3151733813063444  1.0000
  C   C9        1.0  0.12885856515788416  0.6496222773343096  0.3906753932349503  1.0000
  C   C10       1.0  0.8711548251572763  0.3503760422169935  0.6093269097203518  1.0000
  C   C11       1.0  0.8711388395218124  0.35037793962365543  0.8906758849187142  1.0000
  C   C12       1.0  0.12886262799795384  0.6496211661005306  0.10932712787952427  1.0000
  C   C13       1.0  0.6288563997222454  0.8503830633146167  0.10932693140569678  1.0000
  C   C14       1.0  0.37114059677325173  0.14961722167237923  0.8906735969629904  1.0000
  C   C15       1.0  0.3711536017066308  0.14961925512609042  0.6093246217610258  1.0000
  C   C16       1.0  0.6288508465529858  0.8503818160356506  0.3906734221719218  1.0000
  C   C17       1.0  0.1256436108938317  0.6111591495076638  0.4259557792640294  1.0000
  C   C18       1.0  0.8743638180526644  0.3888372046188239  0.5740440392667807  1.0000
  C   C19       1.0  0.874357619668416  0.3888429172365377  0.925955454129884  1.0000
  C   C20       1.0  0.1256453382020624  0.6111569746599417  0.074047203747817  1.0000
  C   C21       1.0  0.6256226161333556  0.8888422614138848  0.07404228999095608  1.0000
  C   C22       1.0  0.3743788514069095  0.11115605814183033  0.9259585932964995  1.0000
  C   C23       1.0  0.37438057879816  0.11115742108367505  0.5740404349722394  1.0000
  C   C24       1.0  0.6256164177200529  0.8888428639073925  0.42595760896596596  1.0000
  C   C25       1.0  0.9685757859830559  0.5751527133075243  0.4295709089848002  1.0000
  C   C26       1.0  0.03142419121692091  0.4248467855081444  0.5704289095459883  1.0000
  C   C27       1.0  0.031422397765524586  0.42484894849992144  0.9295714367930967  1.0000
  C   C28       1.0  0.9685775794037139  0.5751517295684678  0.0704315760038696  1.0000
  C   C29       1.0  0.4685592465142392  0.9248477917338107  0.0704292583335615  1.0000
  C   C30       1.0  0.5314407306770264  0.0751509209081433  0.9295716249541995  1.0000
  C   C31       1.0  0.531445504827282  0.07515229569087722  0.5704283878633801  1.0000
  C   C32       1.0  0.46855596272887107  0.9248487754702169  0.42957036590853187  1.0000
  C   C33       1.0  0.8087108631967085  0.5787349862878984  0.3975402967594661  1.0000
  C   C34       1.0  0.19128762366127464  0.42126451252919855  0.6024588119348806  1.0000
  C   C35       1.0  0.19127598353592387  0.42126560126111906  0.8975374598213007  1.0000
  C   C36       1.0  0.8087210129535976  0.5787342906387283  0.1024637783851929  1.0000
  C   C37       1.0  0.30869821834821215  0.9212663607275221  0.10245969574933869  1.0000
  C   C38       1.0  0.691301758838449  0.07873588968830351  0.897541187533669  1.0000
  C   C39       1.0  0.6913074375922504  0.07873755256396461  0.6024597002977856  1.0000
  C   C40       1.0  0.3086940299509279  0.921263518594806  0.3975404731486946  1.0000
  C   C41       1.0  0.8131821857624076  0.6165955137512288  0.3618503347211117  1.0000
  C   C42       1.0  0.18683418526937598  0.3834051643195411  0.6381494837988554  1.0000
  C   C43       1.0  0.18681425570690635  0.3834036184365672  0.861849024226302  1.0000
  C   C44       1.0  0.8131901925135879  0.6165950942016991  0.1381536336521449  1.0000
  C   C45       1.0  0.31317643840326076  0.8834077971263457  0.1381532019299456  1.0000
  C   C46       1.0  0.6868190677282087  0.11659445328851352  0.8618487461115051  1.0000
  C   C47       1.0  0.6868240937943781  0.1165948199138001  0.6381506253686027  1.0000
  C   C48       1.0  0.31317141236134916  0.8834062512471733  0.36184883824395087  1.0000
  C   C49       1.0  0.9732381586887014  0.6518321143465543  0.3571333284829875  1.0000
  C   C50       1.0  0.026773741288913296  0.34816777755127504  0.6428675547964815  1.0000
  C   C51       1.0  0.026759859387063  0.3481686056467482  0.8571319380780551  1.0000
  C   C52       1.0  0.9732416081381744  0.6518312862505768  0.1428703648818441  1.0000
  C   C53       1.0  0.4732368877358013  0.8481703544893692  0.14287002783902378  1.0000
  C   C54       1.0  0.5267586184089835  0.15182914432534034  0.8571308554502082  1.0000
  C   C55       1.0  0.5267575968071937  0.1518302816594854  0.6428682467675841  1.0000
  C   C56       1.0  0.4732319479535647  0.8481715756744989  0.3571312168472645  1.0000
  C   C57       1.0  0.0176700554357936  0.46534296067821407  0.5329114781534371  1.0000
  C   C58       1.0  0.982337373502851  0.5346569312215622  0.46708869529126656  1.0000
  C   C59       1.0  0.9823353819638286  0.5346556773758665  0.0329135280924859  1.0000
  C   C60       1.0  0.017660124170198802  0.46534460760906887  0.9670884199516081  1.0000
  C   C61       1.0  0.5176711106399025  0.0346547505441066  0.9670876521770565  1.0000
  C   C62       1.0  0.4823258858511466  0.9653439620977908  0.0329135860310288  1.0000
  C   C63       1.0  0.4823234063624752  0.9653440366892172  0.4670869786407081  1.0000
  C   C64       1.0  0.5176735901552264  0.0346566413878335  0.5329110652969717  1.0000
  I   I1        1.0  0.3698433333772754  0.7027155656267894  0.39524973250606615  1.0000
  I   I2        1.0  0.6301789990711484  0.2972776438115474  0.6047486663460119  1.0000
  I   I3        1.0  0.6301465359128713  0.29728424325292485  0.8952499285301271  1.0000
  I   I4        1.0  0.36988026751267705  0.7027066076559195  0.10475627853269029  1.0000
  I   I5        1.0  0.8698652351753893  0.7972936217536103  0.10475622471450659  1.0000
  I   I6        1.0  0.1301257999029346  0.20270705631634203  0.8952467880874975  1.0000
  I   I7        1.0  0.13016422440824021  0.20271657339466032  0.6047483652274933  1.0000
  I   I8        1.0  0.8698640694528025  0.7972947180055103  0.395245419654607  1.0000
  I   I9        1.0  0.561169960863687  0.528433380123069  0.4025352738162268  1.0000
  I   I10       1.0  0.4388419391374896  0.4715633670903685  0.5974634799556142  1.0000
  I   I11       1.0  0.43882275595491654  0.4715660118000217  0.9025288285508211  1.0000
  I   I12       1.0  0.5611652984493388  0.5284370247910174  0.097471344900562  1.0000
  I   I13       1.0  0.061149824844619595  0.9715656947869109  0.0974632229995294  1.0000
  I   I14       1.0  0.9388620751243124  0.028440879572663405  0.9025376602709514  1.0000
  I   I15       1.0  0.9388589031713367  0.02844255883020001  0.5974616641233154  1.0000
  I   I16       1.0  0.061129151241964094  0.9715585123320737  0.4025377994934303  1.0000
  N   N1        1.0  0.8382606112477972  0.5330008303939098  0.5004749104353152  1.0000
  N   N2        1.0  0.16174532735414723  0.46699748916393  0.49952419825641664  1.0000
  N   N3        1.0  0.16175287111644107  0.4670022379388712  0.0004699035592779  1.0000
  N   N4        1.0  0.8382441253785444  0.532998440134108  0.9995306248088767  1.0000
  N   N5        1.0  0.3382644319831839  0.9669976881134663  0.9995249995839542  1.0000
  N   N6        1.0  0.6617370355695513  0.03300102453055591  0.0004744640284073  1.0000
  N   N7        1.0  0.6617443953242271  0.032999027361306305  0.49952485460840274  1.0000
  N   N8        1.0  0.33826005291744815  0.9670008645389816  0.500475318837978  1.0000
  N   N9        1.0  0.8568345606089237  0.4973026677999997  0.5344033953735732  1.0000
  N   N10       1.0  0.14317137799302063  0.5026956517578397  0.4655957133181587  1.0000
  N   N11       1.0  0.14318724338968278  0.5026991100581597  0.0343997331714192  1.0000
  N   N12       1.0  0.8568127338055191  0.4973015680148834  0.9656004402764251  1.0000
  N   N13       1.0  0.3568327572796761  0.0026949250357262014  0.9655946430004504  1.0000
  N   N14       1.0  0.6431687102703235  0.9973033945217297  0.0344051755310772  1.0000
  N   N15       1.0  0.6431692387541476  0.9973011154852217  0.4655958318873914  1.0000
  N   N16       1.0  0.3568352094955572  0.0026975971582743003  0.5344036317232863  1.0000
  O   O1        1.0  0.635046536493924  0.7968890191309866  0.20123779569220798  1.0000
  O   O2        1.0  0.36494449862794204  0.20310812117207894  0.7987609580908597  1.0000
  O   O3        1.0  0.36494389997152155  0.20310906717740815  0.701238188644254  1.0000
  O   O4        1.0  0.6350456447890594  0.7968904316400797  0.29876162989240374  1.0000
  O   O5        1.0  0.13505918571473788  0.7031112092399071  0.2987631023006969  1.0000
  O   O6        1.0  0.864940791488671  0.29689064809283394  0.7012360063896422  1.0000
  O   O7        1.0  0.8649354287055289  0.2968873435639098  0.7987640996223816  1.0000
  O   O8        1.0  0.13506007742576293  0.7031125483344525  0.2012382033408784  1.0000
  O   O9        1.0  0.29750555861996014  0.8008472950415637  0.29817371453426483  1.0000
  O   O10       1.0  0.7024795150709123  0.1991533830305912  0.7018285884338198  1.0000
  O   O11       1.0  0.7024831052080244  0.1991524389576895  0.7981719632363278  1.0000
  O   O12       1.0  0.2975094202367288  0.8008494183734528  0.20182892005141173  1.0000
  O   O13       1.0  0.7975169983186631  0.6991552351383349  0.20182664550252838  1.0000
  O   O14       1.0  0.20247403679039877  0.30084426367889716  0.798173173033298  1.0000
  O   O15       1.0  0.20248684051463783  0.30084363540965603  0.7018269588745412  1.0000
  O   O16       1.0  0.7975131366733805  0.6991550772317154  0.29817427933186014  1.0000
  O   O17       1.0  0.4629198844471675  0.718583489400672  0.2500002698821788  1.0000
  O   O18       1.0  0.5370771120493458  0.28141600941435746  0.7500002584875674  1.0000
  O   O19       1.0  0.9629093644329102  0.7814189830431959  0.2500002587210304  1.0000
  O   O20       1.0  0.0370771996259265  0.21858169503219224  0.7499999147343672  1.0000
