data_image0
_chemical_formula_structural       Na2P4H76C46N2O12
_chemical_formula_sum              "Na2 P4 H76 C46 N2 O12"
_cell_length_a       8.154568245
_cell_length_b       12.086836497967894
_cell_length_c       14.6767
_cell_angle_alpha    90.0
_cell_angle_beta     90.0
_cell_angle_gamma    106.04929040931971

_space_group_name_H-M_alt    "P 1"
_space_group_IT_number       1

loop_
  _space_group_symop_operation_xyz
  'x, y, z'

loop_
  _atom_site_type_symbol
  _atom_site_label
  _atom_site_symmetry_multiplicity
  _atom_site_fract_x
  _atom_site_fract_y
  _atom_site_fract_z
  _atom_site_occupancy
  Na  Na1       1.0  0.7094137049763916  0.3758950388728053  0.3799464457269011  1.0000
  Na  Na2       1.0  0.2905885878992436  0.624104740994909  0.8799437203186002  1.0000
  P   P1        1.0  0.4978243586085113  0.4539330976152272  0.66051769130663  1.0000
  P   P2        1.0  0.5021739025679254  0.5460658213518599  0.160519054010777  1.0000
  P   P3        1.0  0.6564575185791384  0.6745698745947166  0.5885451089141327  1.0000
  P   P4        1.0  0.3435379372045801  0.3254281834717503  0.0885478343224264  1.0000
  H   H1        1.0  0.163364160403944  0.04505781678886928  0.6001417212316085  1.0000
  H   H2        1.0  0.8366372589449184  0.954942823979465  0.1001430839357624  1.0000
  H   H3        1.0  0.1252289673348272  0.0995691833151895  0.7604352477055443  1.0000
  H   H4        1.0  0.874772636826421  0.9004349010556324  0.2604372917617752  1.0000
  H   H5        1.0  0.8326312102451681  0.05155589468872529  0.8274509937520023  1.0000
  H   H6        1.0  0.16737057872846606  0.9484516332845911  0.3274516751040791  1.0000
  H   H7        1.0  0.09063405900734982  0.5982837486194157  0.21800404723132513  1.0000
  H   H8        1.0  0.909369107395058  0.40171517034767845  0.7180020031751011  1.0000
  H   H9        1.0  0.8745652798487171  0.5189052676075079  0.1940211355413695  1.0000
  H   H10       1.0  0.12543491319365066  0.48109537316082646  0.6940102339081662  1.0000
  H   H11       1.0  0.2855568624297078  0.5666284327241371  0.5447730075561948  1.0000
  H   H12       1.0  0.7144438513597181  0.43337048624294977  0.04477437026034179  1.0000
  H   H13       1.0  0.126777086677663  0.6173707763244494  0.4887529212970207  1.0000
  H   H14       1.0  0.8732252061979721  0.3826290035432648  0.9887542840011746  1.0000
  H   H15       1.0  0.21006435840714488  0.6757329513359309  0.5964065491561428  1.0000
  H   H16       1.0  0.7899323236830683  0.324265106730536  0.0964065491561428  1.0000
  H   H17       1.0  0.4745214312500394  0.845530963845377  0.7518849605156461  1.0000
  H   H18       1.0  0.5254810464379814  0.15447225962482486  0.2518829164594223  1.0000
  H   H19       1.0  0.4474608520909555  0.9709934551883704  0.7000524641097812  1.0000
  H   H20       1.0  0.5525351412848778  0.02900890738121119  0.2000497387014804  1.0000
  H   H21       1.0  0.5297533898669187  0.9772031313796248  0.8135214319295228  1.0000
  H   H22       1.0  0.47024856707405155  0.0228018138918173  0.313520069225369  1.0000
  H   H23       1.0  0.044190545366006924  0.9792245260416335  0.4546178636887035  1.0000
  H   H24       1.0  0.9558029785517801  0.0207718102235859  0.9546205890970043  1.0000
  H   H25       1.0  0.8202742200470325  0.9512788309294109  0.4369265570598273  1.0000
  H   H26       1.0  0.1797151042042202  0.04871922713704888  0.9369238316515263  1.0000
  H   H27       1.0  0.9058451585527861  0.8390216942374309  0.4722294521247931  1.0000
  H   H28       1.0  0.0941462655317338  0.1609755029284088  0.9722274080685691  1.0000
  H   H29       1.0  0.26729944397315103  0.8726002621237327  0.5229833681958453  1.0000
  H   H30       1.0  0.7326939119773  0.1273986568433543  0.0229847308999993  1.0000
  H   H31       1.0  0.19864704422983684  0.809333536264944  0.41490389528981086  1.0000
  H   H32       1.0  0.8013517376936505  0.19066366090090264  0.9149052579939647  1.0000
  H   H33       1.0  0.40473763765674414  0.9089750352324372  0.4274523564561504  1.0000
  H   H34       1.0  0.5952593972131978  0.09102388373464979  0.9274530378082273  1.0000
  H   H35       1.0  0.33698259741179015  0.2608640803746098  0.4908746516587499  1.0000
  H   H36       1.0  0.6630228536362779  0.7391374212943518  0.990872607602526  1.0000
  H   H37       1.0  0.2831825440228499  0.10942477364342547  0.4659242200222095  1.0000
  H   H38       1.0  0.7168225542454962  0.8905758671249087  0.9659235386701395  1.0000
  H   H39       1.0  0.3335749943789067  0.2128396000400414  0.3748492508533942  1.0000
  H   H40       1.0  0.6664336148415939  0.7871636234301602  0.8748472067971702  1.0000
  H   H41       1.0  0.05475452218410477  0.21469484088188295  0.2964283524225451  1.0000
  H   H42       1.0  0.9452493497777467  0.7853057998864512  0.7964283524225448  1.0000
  H   H43       1.0  0.9476948113583177  0.19600382746327227  0.1891460614443332  1.0000
  H   H44       1.0  0.05230731354998136  0.8039985351063095  0.689145380092256  1.0000
  H   H45       1.0  0.8283518054336056  0.1500971626604581  0.2917195282318232  1.0000
  H   H46       1.0  0.17165048744202943  0.8499026172072561  0.7917188468797463  1.0000
  H   H47       1.0  0.5320091959616561  0.09975685965093109  0.5652966947610807  1.0000
  H   H48       1.0  0.4679887124350515  0.9002411984155356  0.06529328800071  1.0000
  H   H49       1.0  0.561041301730384  0.2511746438665483  0.5845142300380883  1.0000
  H   H50       1.0  0.43895538035982895  0.7488234141999185  0.0845094605735639  1.0000
  H   H51       1.0  0.07713085676417818  0.4009300289798076  0.1724706507593652  1.0000
  H   H52       1.0  0.9228721416709006  0.5990714726891468  0.6724679253510641  1.0000
  H   H53       1.0  0.14958658432249186  0.42666493129303257  0.2872559907881183  1.0000
  H   H54       1.0  0.8504186819131903  0.5733331267734272  0.7872532653798172  1.0000
  H   H55       1.0  0.525227581639669  0.7567695269470818  0.3537634481865837  1.0000
  H   H56       1.0  0.47477331696213537  0.24323283562249284  0.8537634481865837  1.0000
  H   H57       1.0  0.318475901726856  0.6584684502490744  0.3476142457091881  1.0000
  H   H58       1.0  0.6815255176220063  0.3415321905192599  0.8476149270612581  1.0000
  H   H59       1.0  0.4858869118437426  0.6167380143667884  0.4024719453283083  1.0000
  H   H60       1.0  0.5141164393710511  0.3832643482027862  0.9024726266803853  1.0000
  H   H61       1.0  0.06915309375030179  0.26971499967619644  0.4501802176238526  1.0000
  H   H62       1.0  0.9308448146464058  0.7302830583902702  0.9501747668072509  1.0000
  H   H63       1.0  0.1078140538378562  0.3310972140719741  0.5620752621502092  1.0000
  H   H64       1.0  0.8921894653442735  0.668902565795733  0.06207117403776149  1.0000
  H   H65       1.0  0.09795786115606116  0.4209640473697717  0.4658962845871314  1.0000
  H   H66       1.0  0.9020424998536356  0.5790340106966951  0.9658921964746836  1.0000
  H   H67       1.0  0.8297997622745754  0.1904725409626664  0.6066840638563136  1.0000
  H   H68       1.0  0.17019779334241744  0.8095246562031732  0.10667725033556508  1.0000
  H   H69       1.0  0.8164619652865356  0.1423533615596142  0.4912500766521077  1.0000
  H   H70       1.0  0.18353752219639566  0.8576455574074726  0.9912446258355061  1.0000
  H   H71       1.0  0.7742357331307231  0.6495848167238236  0.2902151028500981  1.0000
  H   H72       1.0  0.22576355269477225  0.3504046323364135  0.7902103333855734  1.0000
  H   H73       1.0  0.9905265045860431  0.7268291250921521  0.3163074805644328  1.0000
  H   H74       1.0  0.009473167709266768  0.27317323747742245  0.8163033924519851  1.0000
  H   H75       1.0  0.8453074670590793  0.6625275966849243  0.4065191766541502  1.0000
  H   H76       1.0  0.15469779917660278  0.33747046138154246  0.9065137258375484  1.0000
  C   C1        1.0  0.5364819888653826  0.7748432746192435  0.5425640641288538  1.0000
  C   C2        1.0  0.463515751563996  0.22515736614909085  0.0425640641288538  1.0000
  C   C3        1.0  0.38016838641196665  0.7364901518796642  0.4811612964767277  1.0000
  C   C4        1.0  0.6198305803239066  0.26351048888867007  0.9811612964767276  1.0000
  C   C5        1.0  0.5717602060947514  0.5192031392229453  0.5518897299801748  1.0000
  C   C6        1.0  0.4282275390702779  0.4807940579428943  0.0518910926843219  1.0000
  C   C7        1.0  0.0363565754500783  0.0215922485169813  0.6306308638862959  1.0000
  C   C8        1.0  0.963642038506073  0.978407531350733  0.1306308638862959  1.0000
  C   C9        1.0  0.015109174242382997  0.05284294111960009  0.7204541892932352  1.0000
  C   C10       1.0  0.9848889189667105  0.9471585605493544  0.2204555519973823  1.0000
  C   C11       1.0  0.5311227013468383  0.603252867013417  0.6925868894233743  1.0000
  C   C12       1.0  0.46887713891580757  0.3967469128542972  0.19259165888789903  1.0000
  C   C13       1.0  0.8514845143266498  0.0254456397040101  0.7581206947065766  1.0000
  C   C14       1.0  0.1485111262694545  0.9745558619649444  0.2581241014669544  1.0000
  C   C15       1.0  0.8972005533355514  0.9612265376242703  0.5780304836918402  1.0000
  C   C16       1.0  0.1027970022814415  0.038770659541569295  0.0780311650439103  1.0000
  C   C17       1.0  0.9825913160912378  0.5265500651367461  0.2413703352933538  1.0000
  C   C18       1.0  0.01741588201037554  0.4734497147309681  0.7413662471809062  1.0000
  C   C19       1.0  0.24249937730884594  0.6431745506874904  0.5308911403789693  1.0000
  C   C20       1.0  0.7575004629538001  0.3568252291802239  0.0308931844351932  1.0000
  C   C21       1.0  0.5310894342347722  0.9389980835471404  0.7459306247317199  1.0000
  C   C22       1.0  0.4689105908402595  0.0610051399230542  0.24593062473172003  1.0000
  C   C23       1.0  0.9185036206270353  0.9315271879436862  0.48036479590098924  1.0000
  C   C24       1.0  0.0814909616299175  0.0684717310234007  0.9803647959009893  1.0000
  C   C25       1.0  0.3089235513463536  0.838420785602814  0.4604638644927022  1.0000
  C   C26       1.0  0.6910722572170939  0.16157813336427299  0.9604645458447718  1.0000
  C   C27       1.0  0.36303645246132993  0.19521782519478134  0.4453146824558657  1.0000
  C   C28       1.0  0.6369677722802436  0.8047836764741729  0.9453140011037886  1.0000
  C   C29       1.0  0.9351925498629398  0.2157218953247124  0.2616487357512227  1.0000
  C   C30       1.0  0.0648113220989117  0.7842787454436149  0.7616480543991528  1.0000
  C   C31       1.0  0.7086077540803827  0.9659899007694577  0.7080086122902287  1.0000
  C   C32       1.0  0.2913978817800711  0.0340150445019916  0.20800793093815165  1.0000
  C   C33       1.0  0.5944641124493657  0.18718648328597  0.5394843527495965  1.0000
  C   C34       1.0  0.4055381804262693  0.8128132965817443  0.0394795832850718  1.0000
  C   C35       1.0  0.0381301211793428  0.4176065349413918  0.2420537314246403  1.0000
  C   C36       1.0  0.9618735828151728  0.58239668852881  0.7420503246642622  1.0000
  C   C37       1.0  0.7332948000318638  0.9311776622908852  0.6183365470439526  1.0000
  C   C38       1.0  0.2667008405642477  0.0688238393780694  0.1183351843398057  1.0000
  C   C39       1.0  0.43151166107114847  0.6891449221363785  0.3913004967056607  1.0000
  C   C40       1.0  0.5684904638371577  0.3108574404331961  0.8913004967056606  1.0000
  C   C41       1.0  0.044937391293302695  0.3357710435524055  0.4960563341895677  1.0000
  C   C42       1.0  0.9550620961896286  0.6642278754146815  0.996050883372966  1.0000
  C   C43       1.0  0.7844107258807185  0.2049752728520318  0.537984015480319  1.0000
  C   C44       1.0  0.21559034068842203  0.7950245070156823  0.0379772019595706  1.0000
  C   C45       1.0  0.8830271693054356  0.6528459082824724  0.3358997594827144  1.0000
  C   C46       1.0  0.11697897045701917  0.3471512888833743  0.835892945961966  1.0000
  N   N1        1.0  0.5885220119212846  0.8810577498407638  0.5658145223381297  1.0000
  N   N2        1.0  0.4114769548145887  0.1189428909275705  0.0658131596339757  1.0000
  O   O1        1.0  0.9318408385605892  0.5481870804861018  0.33169036636301286  1.0000
  O   O2        1.0  0.06817512849887211  0.4518161429841001  0.831683552842257  1.0000
  O   O3        1.0  0.5803202038704923  0.47665829135162596  0.4758140453916723  1.0000
  O   O4        1.0  0.4196582515896451  0.5233371840129735  0.9758188148562039  1.0000
  O   O5        1.0  0.4922852184444437  0.6486886191756369  0.7615397194192184  1.0000
  O   O6        1.0  0.5077149745979239  0.35131202159269737  0.2615397194192184  1.0000
  O   O7        1.0  0.5393757828505628  0.1997160309481885  0.4483855362581507  1.0000
  O   O8        1.0  0.4606308945039998  0.800285470720766  0.948382129497773  1.0000
  O   O9        1.0  0.8993146286838183  0.3241290844321512  0.2723909325665872  1.0000
  O   O10       1.0  0.10068591713826434  0.6758724172368032  0.7723882071582864  1.0000
  O   O11       1.0  0.8661465459234137  0.31936744308821113  0.5071521527318836  1.0000
  O   O12       1.0  0.13385381508629018  0.6806306149782557  0.007145339211128  1.0000
