data_image0
_chemical_formula_structural       Zn4H24C32N16O12
_chemical_formula_sum              "Zn4 H24 C32 N16 O12"
_cell_length_a       8.961277038723168
_cell_length_b       10.048739541051923
_cell_length_c       10.88365874048066
_cell_angle_alpha    89.99985926037255
_cell_angle_beta     110.6466841825725
_cell_angle_gamma    89.99973402023485

_space_group_name_H-M_alt    "P 1"
_space_group_IT_number       1

loop_
  _space_group_symop_operation_xyz
  'x, y, z'

loop_
  _atom_site_type_symbol
  _atom_site_label
  _atom_site_symmetry_multiplicity
  _atom_site_fract_x
  _atom_site_fract_y
  _atom_site_fract_z
  _atom_site_occupancy
  Zn  Zn1       1.0  0.21837302433954156  0.7393485379784791  0.348615099861206  1.0000
  Zn  Zn2       1.0  0.2816240871769793  0.23934898293305912  0.6513846943102377  1.0000
  Zn  Zn3       1.0  0.7816259609844566  0.2606501280239825  0.6513860215012099  1.0000
  Zn  Zn4       1.0  0.7183760951859242  0.7606506782173668  0.348615859281402  1.0000
  H   H1        1.0  0.13895733010107847  0.028763947511102096  0.4331189852795772  1.0000
  H   H2        1.0  0.36103533289234246  0.5287643329617991  0.5668763088613458  1.0000
  H   H3        1.0  0.8610404718186615  0.9712357136463509  0.5668799514038196  1.0000
  H   H4        1.0  0.6389624644872356  0.47123333789508587  0.4331235453082056  1.0000
  H   H5        1.0  0.7275735116976065  0.6700138289759962  0.7962431138584092  1.0000
  H   H6        1.0  0.7724291973696752  0.17000852014523096  0.20375732728270168  1.0000
  H   H7        1.0  0.2724278722372944  0.32999080792234275  0.20375595447195835  1.0000
  H   H8        1.0  0.22756979249802356  0.8299911410081151  0.7962428765957268  1.0000
  H   H9        1.0  0.8807343453287119  0.9627783881383748  0.9502765843673513  1.0000
  H   H10       1.0  0.619267476738699  0.4627770993454943  0.049722929588362726  1.0000
  H   H11       1.0  0.11926702952938231  0.0372212730091448  0.04972431893749977  1.0000
  H   H12       1.0  0.38073389357216303  0.5372225618008244  0.9502788911983086  1.0000
  H   H13       1.0  0.8979035994914851  0.7861144083569015  0.9475460435899232  1.0000
  H   H14       1.0  0.6020911299308835  0.2861151733907547  0.052451792887097747  1.0000
  H   H15       1.0  0.10209300538935649  0.2138842576525802  0.052453460864249686  1.0000
  H   H16       1.0  0.3979078599332838  0.7138854829122748  0.9475484109891635  1.0000
  H   H17       1.0  0.7268848976291054  0.9472077206474481  0.09790290027045495  1.0000
  H   H18       1.0  0.773111077106215  0.44720654772451224  0.9020940155484422  1.0000
  H   H19       1.0  0.2731164772289887  0.0527919405000645  0.9020980030343961  1.0000
  H   H20       1.0  0.22688791276148382  0.5527931134288337  0.09790618832998627  1.0000
  H   H21       1.0  0.7010181751709086  0.7746826858685338  0.07315482497274668  1.0000
  H   H22       1.0  0.7989837904286505  0.27468134152372403  0.9268451596474916  1.0000
  H   H23       1.0  0.29898319513995375  0.22531697527779215  0.9268469958139247  1.0000
  H   H24       1.0  0.2010175844294437  0.7253183196237954  0.07315574365735958  1.0000
  C   C1        1.0  0.24371103110581774  0.9860856906333383  0.5074561491551888  1.0000
  C   C2        1.0  0.25628434604913514  0.48608566148519117  0.4925388989482683  1.0000
  C   C3        1.0  0.7562879678634218  0.013911980223021198  0.49254221976394036  1.0000
  C   C4        1.0  0.743715840868063  0.5139120093670614  0.5074607371658925  1.0000
  C   C5        1.0  0.42981378379425916  0.8473453810621476  0.612579912405813  1.0000
  C   C6        1.0  0.07018495927091811  0.34734340832081045  0.387417357724665  1.0000
  C   C7        1.0  0.5701852060663768  0.15265627039056537  0.387420291468274  1.0000
  C   C8        1.0  0.9298164201379465  0.6526552576782124  0.61258262810054  1.0000
  C   C9        1.0  0.4498545947604669  0.9655889299776915  0.6854110551934409  1.0000
  C   C10       1.0  0.05014332208256891  0.4655842453687312  0.3145829467793816  1.0000
  C   C11       1.0  0.5501432162466742  0.034412721481516  0.314586046521981  1.0000
  C   C12       1.0  0.9498580527790565  0.5344144206290976  0.6854179565276364  1.0000
  C   C13       1.0  0.5758812123315098  0.978274675620767  0.8097978623356848  1.0000
  C   C14       1.0  0.9241169449270289  0.4782707682531962  0.19019594749009622  1.0000
  C   C15       1.0  0.4241213550076495  0.02172896612258059  0.19020339067369452  1.0000
  C   C16       1.0  0.07588205858591121  0.5217278977540404  0.8098015039450455  1.0000
  C   C17       1.0  0.6431925920882051  0.7516611069964866  0.7593827454629218  1.0000
  C   C18       1.0  0.8568071520533209  0.251656349275251  0.24061664014674009  1.0000
  C   C19       1.0  0.35680759026409004  0.24834153960299682  0.24061780812220945  1.0000
  C   C20       1.0  0.1431918423651481  0.7483423167295982  0.7593826462520423  1.0000
  C   C21       1.0  0.8209417736046306  0.8684701606176828  0.9541878874565127  1.0000
  C   C22       1.0  0.6790547603978752  0.36846863597400403  0.04580937177627218  1.0000
  C   C23       1.0  0.179056023764339  0.1315304956882599  0.04581196670653038  1.0000
  C   C24       1.0  0.3209442294698306  0.6315310251793418  0.9541908321021563  1.0000
  C   C25       1.0  0.7851477492648725  0.8564390253933214  0.08061363006953565  1.0000
  C   C26       1.0  0.7148512551892383  0.3564360566325319  0.919384381066507  1.0000
  C   C27       1.0  0.2148524330909538  0.14356262605647876  0.9193869235177626  1.0000
  C   C28       1.0  0.2851489271701269  0.6435645996675845  0.08061617252296564  1.0000
  C   C29       1.0  0.9312430463984429  0.8276041074701085  0.1988319217679545  1.0000
  C   C30       1.0  0.5687561628678424  0.32760105509554893  0.8011662151314949  1.0000
  C   C31       1.0  0.0687571405116927  0.17239555368151116  0.801167714341872  1.0000
  C   C32       1.0  0.4312440194985854  0.672397610905193  0.1988343384623191  1.0000
  N   N1        1.0  0.2988688386448572  0.8622183102059251  0.5000799708478353  1.0000
  N   N2        1.0  0.20112859264174432  0.3622164984440983  0.499919637146398  1.0000
  N   N3        1.0  0.7011313346164982  0.13778334124148728  0.4999224177031038  1.0000
  N   N4        1.0  0.7988715988227001  0.6377811724093475  0.5000790814859426  1.0000
  N   N5        1.0  0.3301014333831701  0.052554356676331786  0.6168151192601596  1.0000
  N   N6        1.0  0.1698946517624691  0.5525530254343706  0.3831783678170452  1.0000
  N   N7        1.0  0.6698975655789994  0.9474453044794019  0.38318324965462824  1.0000
  N   N8        1.0  0.8301055306039659  0.44744564056637154  0.6168221857767617  1.0000
  N   N9        1.0  0.5228662119423291  0.7367750553792192  0.6489356248907467  1.0000
  N   N10       1.0  0.9771348304208873  0.2367724980294099  0.3510641753526969  1.0000
  N   N11       1.0  0.477133974957198  0.26322759122146516  0.35106401121256414  1.0000
  N   N12       1.0  0.0228653564963111  0.7632251728228424  0.6489354607614641  1.0000
  N   N13       1.0  0.6759304216541083  0.8633654954914431  0.836559483413218  1.0000
  N   N14       1.0  0.8240673456590955  0.3633610750195899  0.1634372303212216  1.0000
  N   N15       1.0  0.3240685681994576  0.13663814626064408  0.1634407204565277  1.0000
  N   N16       1.0  0.17593283670026952  0.6366395812805266  0.8365633232682509  1.0000
  O   O1        1.0  0.6042071122593172  0.07098161608646338  0.8899663469929562  1.0000
  O   O2        1.0  0.895791566633484  0.5709731055789647  0.11002578737578966  1.0000
  O   O3        1.0  0.3957954868998854  0.9290250111143051  0.11002848363718692  1.0000
  O   O4        1.0  0.1042098173261579  0.4290245652715684  0.8899732809697621  1.0000
  O   O5        1.0  0.9171787985445404  0.7924841672518425  0.30676893242529224  1.0000
  O   O6        1.0  0.582820664718483  0.29248233531916407  0.6932284401649509  1.0000
  O   O7        1.0  0.0828225808607925  0.20751549389687088  0.6932310533977384  1.0000
  O   O8        1.0  0.4171783296999934  0.707516330685685  0.3067708462338245  1.0000
  O   O9        1.0  0.06976226163217092  0.8377504474607631  0.19043297423329614  1.0000
  O   O10       1.0  0.4302365404926221  0.3377478753727203  0.8095661727103403  1.0000
  O   O11       1.0  0.9302391132259231  0.16224921368674927  0.8095679290715548  1.0000
  O   O12       1.0  0.5697624448313762  0.6622507906297415  0.19043494865207575  1.0000
