data_image0
_chemical_formula_structural       Zn4H28C32Br8N20
_chemical_formula_sum              "Zn4 H28 C32 Br8 N20"
_cell_length_a       5.594504895362415
_cell_length_b       10.722387629560199
_cell_length_c       19.46273181722153
_cell_angle_alpha    89.99920483856613
_cell_angle_beta     90.00098951445624
_cell_angle_gamma    89.99913444387379

_space_group_name_H-M_alt    "P 1"
_space_group_IT_number       1

loop_
  _space_group_symop_operation_xyz
  'x, y, z'

loop_
  _atom_site_type_symbol
  _atom_site_label
  _atom_site_symmetry_multiplicity
  _atom_site_fract_x
  _atom_site_fract_y
  _atom_site_fract_z
  _atom_site_occupancy
  Zn  Zn1       1.0  0.6924315771159896  0.20599757905318938  0.10943365809176696  1.0000
  Zn  Zn2       1.0  0.1923819596482801  0.7940086495922644  0.3905757368464647  1.0000
  Zn  Zn3       1.0  0.30759998974350816  0.29399550463587326  0.6094218013979926  1.0000
  Zn  Zn4       1.0  0.8075824420205959  0.7059998715977331  0.8905690551027516  1.0000
  H   H1        1.0  0.9798520478283661  0.011051982354835796  0.9886025345664463  1.0000
  H   H2        1.0  0.47975764552395367  0.9889541655940803  0.5113989296565717  1.0000
  H   H3        1.0  0.0201811015859263  0.48893330066451324  0.48859970481962006  1.0000
  H   H4        1.0  0.5201694245704543  0.5110490995471011  0.011404220382757997  1.0000
  H   H5        1.0  0.2956848536073409  0.0357520072728903  0.07808315468195558  1.0000
  H   H6        1.0  0.7955759058928963  0.9642543435705236  0.4219154433971539  1.0000
  H   H7        1.0  0.7043537466737674  0.4642204250907228  0.5780745288901128  1.0000
  H   H8        1.0  0.20434035073770218  0.5357524461039773  0.9219214726260315  1.0000
  H   H9        1.0  0.6327974772597782  0.3154681009421978  0.9665537818640431  1.0000
  H   H10       1.0  0.13273113592324387  0.6845389069357779  0.5334449508889277  1.0000
  H   H11       1.0  0.3672647197362835  0.18450282210139332  0.46654159700151604  1.0000
  H   H12       1.0  0.8672187226223116  0.815471257227898  0.03344348012191739  1.0000
  H   H13       1.0  0.3328665716176075  0.3008618002796196  0.8717570558052753  1.0000
  H   H14       1.0  0.8328118388927591  0.6991455017651164  0.6282411178450643  1.0000
  H   H15       1.0  0.6672095295243279  0.19911433703757814  0.3717544540226568  1.0000
  H   H16       1.0  0.16714735277433587  0.8008631784478697  0.12823888928366495  1.0000
  H   H17       1.0  0.8129217477436368  0.0634910117984475  0.8819719828910163  1.0000
  H   H18       1.0  0.3128728832778975  0.9365173794308748  0.6180291756616113  1.0000
  H   H19       1.0  0.18712637428438234  0.4364997872330962  0.38197293789612974  1.0000
  H   H20       1.0  0.6870999879770352  0.5634915609901442  0.11803180688605144  1.0000
  H   H21       1.0  0.8112607163983867  0.34718191832784845  0.7078514654356025  1.0000
  H   H22       1.0  0.31124318547806235  0.6528227553553166  0.7921460884354232  1.0000
  H   H23       1.0  0.18878040399793147  0.1528142520200788  0.20785508548623707  1.0000
  H   H24       1.0  0.68873668696299  0.847191072782856  0.292143501691548  1.0000
  H   H25       1.0  0.5629999022307572  0.0186792277553067  0.8076335672921215  1.0000
  H   H26       1.0  0.06297748803693538  0.9813395194819277  0.6923725298771116  1.0000
  H   H27       1.0  0.43701152945435934  0.4813283885717041  0.3076297588274953  1.0000
  H   H28       1.0  0.937001686406006  0.518677784649597  0.19237569899571838  1.0000
  C   C1        1.0  0.1324021201574865  0.15306370187359872  0.9225464977465162  1.0000
  C   C2        1.0  0.6323578818033723  0.8469479720775439  0.5774589125343326  1.0000
  C   C3        1.0  0.8676395289801633  0.3469260629276647  0.42254170830485543  1.0000
  C   C4        1.0  0.3676178873253093  0.6530610699989906  0.0774557019289333  1.0000
  C   C5        1.0  0.12332823006724417  0.0785515964406329  0.9815179234988631  1.0000
  C   C6        1.0  0.6232424947484958  0.9214592163055498  0.518486928330887  1.0000
  C   C7        1.0  0.8767152137781479  0.4214301366655279  0.48151210194237837  1.0000
  C   C8        1.0  0.3766903680261888  0.5785503965961426  0.018486380472253896  1.0000
  C   C9        1.0  0.29793304183979785  0.09243865896949191  0.0316382841236447  1.0000
  C   C10       1.0  0.7978482249126697  0.9075704719962443  0.46836135264708634  1.0000
  C   C11       1.0  0.7021045246272449  0.40753868789487774  0.5316290479036068  1.0000
  C   C12       1.0  0.20208872757456928  0.5924388641250999  0.968365914940996  1.0000
  C   C13       1.0  0.48558799438765016  0.24872138834617635  0.9689156226346253  1.0000
  C   C14       1.0  0.9855329944524057  0.7512912428419087  0.5310827870074417  1.0000
  C   C15       1.0  0.5144618338965117  0.2512494744956654  0.4689067390760541  1.0000
  C   C16       1.0  0.014427445364695798  0.7487245772532914  0.031082257750163902  1.0000
  C   C17       1.0  0.31946458757508367  0.2398506196432351  0.9163373260941368  1.0000
  C   C18       1.0  0.8194053738456971  0.7601577202549311  0.5836633507541079  1.0000
  C   C19       1.0  0.6805784720164851  0.2601262466602563  0.416331246307159  1.0000
  C   C20       1.0  0.1805403853235674  0.7398511637233938  0.08366421790601919  1.0000
  C   C21       1.0  0.9443171483649946  0.13732772913410682  0.8714637380962741  1.0000
  C   C22       1.0  0.4442657053301531  0.8626936198027408  0.6285324136845389  1.0000
  C   C23       1.0  0.055728547813060886  0.36265774208202123  0.3714594677747839  1.0000
  C   C24       1.0  0.5556935041968457  0.6373327727407485  0.12854411806408444  1.0000
  C   C25       1.0  0.7030060376544042  0.2656844834916755  0.7198842479507161  1.0000
  C   C26       1.0  0.202999707101597  0.7343173097097592  0.7801132882641467  1.0000
  C   C27       1.0  0.2970233013188874  0.23431604329682898  0.2198882975881701  1.0000
  C   C28       1.0  0.7969865846044822  0.7656837683035888  0.2801144176842101  1.0000
  C   C29       1.0  0.5743105775732998  0.0966063096726444  0.7721074553904186  1.0000
  C   C30       1.0  0.0742925861383625  0.9034058203519066  0.727897155939125  1.0000
  C   C31       1.0  0.42570584620668933  0.40339661645468555  0.27210726293407106  1.0000
  C   C32       1.0  0.9256887462006558  0.5966059150552212  0.227898653180162  1.0000
  Br  Br1       1.0  0.8279901403132185  0.0090543758806021  0.15083642531965316  1.0000
  Br  Br2       1.0  0.327950158979462  0.9909451925099048  0.3491705524031373  1.0000
  Br  Br3       1.0  0.17206896556176327  0.49094231556955503  0.6508111116792817  1.0000
  Br  Br4       1.0  0.6720296025827109  0.5090587882665362  0.8491708584910355  1.0000
  Br  Br5       1.0  0.9628061082496158  0.3685800948239546  0.07915378577626338  1.0000
  Br  Br6       1.0  0.4627755675152868  0.6314342694262508  0.4208636160658017  1.0000
  Br  Br7       1.0  0.03720038231362819  0.13141935655841763  0.5791474815883503  1.0000
  Br  Br8       1.0  0.5371978234710965  0.8685828059932702  0.9208502681848073  1.0000
  N   N1        1.0  0.4747068927401726  0.1766394338412667  0.025866342898694897  1.0000
  N   N2        1.0  0.9746284484067116  0.8233701742401326  0.4741326203834076  1.0000
  N   N3        1.0  0.5253374729629812  0.3233343296585147  0.5258543058809906  1.0000
  N   N4        1.0  0.0253124294782907  0.6766408800326289  0.9741346510532903  1.0000
  N   N5        1.0  0.9368303640090972  0.20858122493062584  0.8181471941642825  1.0000
  N   N6        1.0  0.43680389324294555  0.7914205973254698  0.6818633074634164  1.0000
  N   N7        1.0  0.06319779366682349  0.29141959489867725  0.3181450401871331  1.0000
  N   N8        1.0  0.5631710676407025  0.7085811202522834  0.18185036146552847  1.0000
  N   N9        1.0  0.7493024471588895  0.18797237726401764  0.7738647443624129  1.0000
  N   N10       1.0  0.24928342919993435  0.8120411765789367  0.7261350742878958  1.0000
  N   N11       1.0  0.25072659567376826  0.31202584089155755  0.2738633554131268  1.0000
  N   N12       1.0  0.7506995835402108  0.6879771321113355  0.22613861876612867  1.0000
  N   N13       1.0  0.5121987852007308  0.2238843216235082  0.6874794422218782  1.0000
  N   N14       1.0  0.012184270835930999  0.776120835173984  0.8125192123654796  1.0000
  N   N15       1.0  0.4878339478114242  0.2761179638378763  0.18748411288894568  1.0000
  N   N16       1.0  0.9877950518142384  0.7238915409280865  0.3125210805702493  1.0000
  N   N17       1.0  0.4311307030058487  0.11702556264498301  0.7200269791472989  1.0000
  N   N18       1.0  0.9311191684571725  0.8829828328176745  0.7799747598663982  1.0000
  N   N19       1.0  0.568889707168175  0.3829777584609604  0.22002815772665937  1.0000
  N   N20       1.0  0.068867114786471  0.6170303728384924  0.27998011691583  1.0000
