data_image0
_chemical_formula_structural       Al6H37C67NO29
_chemical_formula_sum              "Al6 H37 C67 N1 O29"
_cell_length_a       12.621601162205653
_cell_length_b       12.553797462184017
_cell_length_c       26.86646108472429
_cell_angle_alpha    83.28252680550203
_cell_angle_beta     83.04634602754108
_cell_angle_gamma    62.77232292124818

_space_group_name_H-M_alt    "P 1"
_space_group_IT_number       1

loop_
  _space_group_symop_operation_xyz
  'x, y, z'

loop_
  _atom_site_type_symbol
  _atom_site_label
  _atom_site_symmetry_multiplicity
  _atom_site_fract_x
  _atom_site_fract_y
  _atom_site_fract_z
  _atom_site_occupancy
  Al  Al1       1.0  0.4057663465920173  0.4030856599155896  0.5105063036932265  1.0000
  Al  Al2       1.0  0.6526045115439559  0.4236656513388652  0.495471694202692  1.0000
  Al  Al3       1.0  0.42262372631401496  0.6524653398840526  0.4971345363623172  1.0000
  Al  Al4       1.0  0.9294501714474425  0.9350804083597666  0.9802491828400337  1.0000
  Al  Al5       1.0  0.9158596234202604  0.6841218190069469  0.9950646297217177  1.0000
  Al  Al6       1.0  0.6841947877265186  0.91156279167825  0.9936302923708525  1.0000
  H   H1        1.0  0.3670419353057852  0.6284888625038576  0.2688440752069142  1.0000
  H   H2        1.0  0.3359037453863679  0.6404645928401252  0.184373671556763  1.0000
  H   H3        1.0  0.1092127698685702  0.5315965976057768  0.2155562648770299  1.0000
  H   H4        1.0  0.4745192124736519  0.2349853732383664  0.2057702749147978  1.0000
  H   H5        1.0  0.46723932225884823  0.2648236361400862  0.2909086661724132  1.0000
  H   H6        1.0  0.761290983459972  0.9931477805293554  0.30365105568074563  1.0000
  H   H7        1.0  0.6049140530612647  0.0449158063345791  0.3088020107930944  1.0000
  H   H8        1.0  0.6120212944698126  0.0137521229825026  0.22396444702305027  1.0000
  H   H9        1.0  0.7683468503457362  0.9619286209024054  0.21889356264234286  1.0000
  H   H10       1.0  0.7521962436760177  0.2942155026357725  0.266738428059405  1.0000
  H   H11       1.0  0.26807884719286795  0.7826827758743563  0.27150629116545133  1.0000
  H   H12       1.0  0.8478720463473836  0.140341108707247  0.2789752560729255  1.0000
  H   H13       1.0  0.7598169388901468  0.2628641678283969  0.1818450481130256  1.0000
  H   H14       1.0  0.5264313666334958  0.36826354637943143  0.27388488760126967  1.0000
  H   H15       1.0  0.5352268921337642  0.3372599573703923  0.18893193862699326  1.0000
  H   H16       1.0  0.8554212855243792  0.1091086457506947  0.19384583660877303  1.0000
  H   H17       1.0  0.4941060048362614  0.7411200060436444  0.8028604660196592  1.0000
  H   H18       1.0  0.4736010489606955  0.7274098958720572  0.7188726920631441  1.0000
  H   H19       1.0  0.747791463416249  0.7703325543410388  0.6797100043564515  1.0000
  H   H20       1.0  0.5906369065156839  0.8458147070985119  0.6904607644629266  1.0000
  H   H21       1.0  0.610595336701792  0.8607138020736684  0.7744125712967647  1.0000
  H   H22       1.0  0.9911711491747466  0.7439296660604455  0.3083028421537081  1.0000
  H   H23       1.0  0.7676228597984435  0.7855552310815808  0.7634167455918757  1.0000
  H   H24       1.0  0.7770438715750956  0.4596245418156712  0.7112369379272182  1.0000
  H   H25       1.0  0.856983777023331  0.5440920515159107  0.692557718999261  1.0000
  H   H26       1.0  0.7872523528849839  0.4754395875776681  0.7953506983052634  1.0000
  H   H27       1.0  0.5489433348466336  0.5692617985015573  0.7274601790738587  1.0000
  H   H28       1.0  0.5702005061106092  0.5831137385539122  0.8112474036129315  1.0000
  H   H29       1.0  0.047753003271566216  0.8503029664574272  0.2954484444288924  1.0000
  H   H30       1.0  0.01154963638899181  0.8644851270003571  0.21046182583393155  1.0000
  H   H31       1.0  0.9615040077828207  0.7539979341175994  0.2232456266235162  1.0000
  H   H32       1.0  0.2844850759521478  0.4732388796823628  0.2883082111381583  1.0000
  H   H33       1.0  0.12954254914626523  0.5232175631845023  0.30178264036301533  1.0000
  H   H34       1.0  0.2625191005745435  0.49066556170229353  0.20193964363207334  1.0000
  H   H35       1.0  0.17531057149576426  0.8846803024884052  0.19502171757950756  1.0000
  H   H36       1.0  0.32190608452934544  0.28239308848664285  0.5524648905057035  1.0000
  H   H37       1.0  0.043224555392548304  0.0261992695752937  0.9378652035217174  1.0000
  C   C1        1.0  0.614902140612763  0.2830289167274529  0.43544617649548917  1.0000
  C   C2        1.0  0.6567184287176816  0.6682247839395218  0.2684191734115515  1.0000
  C   C3        1.0  0.6427648289418715  0.6541267547481766  0.31873733723298875  1.0000
  C   C4        1.0  0.6298440471741742  0.6398184158975084  0.3646948758200424  1.0000
  C   C5        1.0  0.2763379492839562  0.6969090785099539  0.2611180091479355  1.0000
  C   C6        1.0  0.05690414022303976  0.764896197742722  0.2841906197113958  1.0000
  C   C7        1.0  0.03601538100988219  0.7734451043872355  0.22800432241017185  1.0000
  C   C8        1.0  0.10049514117304167  0.7018738044056221  0.10352478481579652  1.0000
  C   C9        1.0  0.18387979902857418  0.6652912449036705  0.2942099781050445  1.0000
  C   C10       1.0  0.25696244048401706  0.7081377593161663  0.2044712725503999  1.0000
  C   C11       1.0  0.14942344458630433  0.6824818819133895  0.1987645106283509  1.0000
  C   C12       1.0  0.6061774561293376  0.6122525073582424  0.41719918198603523  1.0000
  C   C13       1.0  0.18067556882485292  0.5538424387306122  0.22224589950835855  1.0000
  C   C14       1.0  0.19643919788704514  0.5446862537627554  0.2789476579879563  1.0000
  C   C15       1.0  0.12608522557254537  0.6927263017803398  0.1465004407535346  1.0000
  C   C16       1.0  0.20622388276171222  0.6552795016017683  0.3466013758159363  1.0000
  C   C17       1.0  0.2309154454749703  0.6423699631357067  0.3899320156560436  1.0000
  C   C18       1.0  0.541090620191774  0.27661428726859333  0.2691330438664821  1.0000
  C   C19       1.0  0.6782464096949425  0.0573150728739762  0.2868623982469601  1.0000
  C   C20       1.0  0.6829438735324516  0.03671956672258861  0.23079518503115545  1.0000
  C   C21       1.0  0.6879082294988522  0.10528128248284932  0.10155296230507825  1.0000
  C   C22       1.0  0.6597973613097139  0.18640494891488404  0.2919665546115554  1.0000
  C   C23       1.0  0.2821954552585382  0.6129300073426762  0.4375071822618395  1.0000
  C   C24       1.0  0.546279825896683  0.2563485483181367  0.2130055145950749  1.0000
  C   C25       1.0  0.6681134046211172  0.1515533456784723  0.19733342815038676  1.0000
  C   C26       1.0  0.7694667427520727  0.18272398544141316  0.20613885993966363  1.0000
  C   C27       1.0  0.7645079739937516  0.20334180055003506  0.2621312558889102  1.0000
  C   C28       1.0  0.6754647676304232  0.1288923744750079  0.14510649036970596  1.0000
  C   C29       1.0  0.6528840663477951  0.2084960256743642  0.34423578305639074  1.0000
  C   C30       1.0  0.6438421046799477  0.2324999335526385  0.3875482992114172  1.0000
  C   C31       1.0  0.5554825166374969  0.6518321949849764  0.7319863100150314  1.0000
  C   C32       1.0  0.6715748923513233  0.7696429454512669  0.7040073752515427  1.0000
  C   C33       1.0  0.6848889579128753  0.7796146519536862  0.7596156024953303  1.0000
  C   C34       1.0  0.6145197693882667  0.28460110011724987  0.5769730273508955  1.0000
  C   C35       1.0  0.7079039124263034  0.6912146040737781  0.8881083338286189  1.0000
  C   C36       1.0  0.6643681105975433  0.6517374028930832  0.6982043900247776  1.0000
  C   C37       1.0  0.569123285475719  0.6611413810749127  0.7876304008982161  1.0000
  C   C38       1.0  0.68617044028926  0.6691622412808159  0.7926819149834259  1.0000
  C   C39       1.0  0.7921363085754224  0.5519790583392138  0.7724728357614197  1.0000
  C   C40       1.0  0.77961429654043  0.5439859891892382  0.7160568650745065  1.0000
  C   C41       1.0  0.6977953986782028  0.6800389274962342  0.8447882482120408  1.0000
  C   C42       1.0  0.651061355233651  0.6426988327145651  0.6460964612463728  1.0000
  C   C43       1.0  0.6387083177326431  0.634368081207576  0.6026890735808197  1.0000
  C   C44       1.0  0.10708648666390265  0.695991181263537  0.8639475952513751  1.0000
  C   C45       1.0  0.6128669475352098  0.6121589221676657  0.5555151792900119  1.0000
  C   C46       1.0  0.13571004655835847  0.6847811557299082  0.8188834892228414  1.0000
  C   C47       1.0  0.16407175996769047  0.6735598814221362  0.7694953389392793  1.0000
  C   C48       1.0  0.18653800311908245  0.6643013739319059  0.7238036964071244  1.0000
  C   C49       1.0  0.21237613723295826  0.6514016760077936  0.6744011869648219  1.0000
  C   C50       1.0  0.23810508440252684  0.6383381319321515  0.6292653977997207  1.0000
  C   C51       1.0  0.6949117153487236  0.0996244542259177  0.8617406410123111  1.0000
  C   C52       1.0  0.6835829211285116  0.1272311672448225  0.8166918115246702  1.0000
  C   C53       1.0  0.6727617728285936  0.1550738486379402  0.7673300244621828  1.0000
  C   C54       1.0  0.6647061838921928  0.17828915138752421  0.7216406256806566  1.0000
  C   C55       1.0  0.6539009860744472  0.2061191892964799  0.6722741481266894  1.0000
  C   C56       1.0  0.28803130528223164  0.60986422717491  0.5788779795819181  1.0000
  C   C57       1.0  0.6427778549232315  0.23364387308895124  0.6272057665715209  1.0000
  C   C58       1.0  0.05061637969374291  0.7286482403120333  0.05569704623070488  1.0000
  C   C59       1.0  0.7271388865120514  0.7273765977498954  0.07321566385320472  1.0000
  C   C60       1.0  0.7181851146350483  0.0556824412832597  0.0534197311756941  1.0000
  C   C61       1.0  0.053942249851978416  0.724781434677567  0.9139585984315133  1.0000
  C   C62       1.0  0.730284558879447  0.7182013269883285  0.9350788044804119  1.0000
  C   C63       1.0  0.7233501700795558  0.04861076629924101  0.9119832650327027  1.0000
  C   C64       1.0  0.7000250281632461  0.7036020812290856  0.12579250880806112  1.0000
  C   C65       1.0  0.6846530606991195  0.6920248077393722  0.17174373897649534  1.0000
  C   C66       1.0  0.6692685887668761  0.6795106628108201  0.22206152535489568  1.0000
  C   C67       1.0  0.9072051393094044  0.5467619757622231  0.7792582663514623  1.0000
  N   N1        1.0  0.999421968645649  0.5434488502299217  0.7836269215506919  1.0000
  O   O1        1.0  0.3050846346708483  0.510582233948348  0.45886254694389095  1.0000
  O   O2        1.0  0.6882911847422762  0.5157260717245222  0.5352315101946488  1.0000
  O   O3        1.0  0.5133706051700387  0.687073605080208  0.5380472264439506  1.0000
  O   O4        1.0  0.30994019087242464  0.6905338682867425  0.5517876185463422  1.0000
  O   O5        1.0  0.4951116801374126  0.4941776533080571  0.5012792801223043  1.0000
  O   O6        1.0  0.8196767358949302  0.0351670236210708  0.03207158092108389  1.0000
  O   O7        1.0  0.025455338773035307  0.8312901443050508  0.0342386837482209  1.0000
  O   O8        1.0  0.03093594265384781  0.6466341184983548  0.03946307210696179  1.0000
  O   O9        1.0  0.8268891953322782  0.6524036548519945  0.05329388213668549  1.0000
  O   O10       1.0  0.6515251750542672  0.8242762924216935  0.05184992794657009  1.0000
  O   O11       1.0  0.6402121335674522  0.03129474406100741  0.0368638841204785  1.0000
  O   O12       1.0  0.5123182201535033  0.3072799828995372  0.4564155659884364  1.0000
  O   O13       1.0  0.8240111633036236  0.028973951662884204  0.9245736999543724  1.0000
  O   O14       1.0  0.031570404854349414  0.8270781600839429  0.9268121694831281  1.0000
  O   O15       1.0  0.0296492787260618  0.6453320208106774  0.9406143691863279  1.0000
  O   O16       1.0  0.8278206155301862  0.645050457359325  0.9544212116465901  1.0000
  O   O17       1.0  0.6534446526498597  0.8171272991634738  0.9530602658195593  1.0000
  O   O18       1.0  0.6445481850208098  0.023521253820760507  0.938579065927563  1.0000
  O   O19       1.0  0.8417035572571053  0.8423819624209018  0.9894048354860132  1.0000
  O   O20       1.0  0.6948137539723973  0.3043430327543675  0.4522485827810456  1.0000
  O   O21       1.0  0.6817872194643186  0.512431874406154  0.4366920154111966  1.0000
  O   O22       1.0  0.5091966780385064  0.6871615540555212  0.43903437162068576  1.0000
  O   O23       1.0  0.3055175181409878  0.6926962405555274  0.4534154596232796  1.0000
  O   O24       1.0  0.3103159971995098  0.5077021002712742  0.5660768740305359  1.0000
  O   O25       1.0  0.5147327451574385  0.3023541941642733  0.5638871314883644  1.0000
  O   O26       1.0  0.6922992913114785  0.31171323801203954  0.5507197949642235  1.0000
  O   O27       1.0  0.24568574839471324  0.8192825756229141  0.18003147170804823  1.0000
  O   O28       1.0  0.3252252177973673  0.3194853058604039  0.5190810032940831  1.0000
  O   O29       1.0  0.007112727594879702  0.021447603136842002  0.9713583698762849  1.0000
