data_image0
_chemical_formula_structural       Ca4H32C28N8O36
_chemical_formula_sum              "Ca4 H32 C28 N8 O36"
_cell_length_a       7.912120439
_cell_length_b       11.068275659462751
_cell_length_c       13.4
_cell_angle_alpha    90.0
_cell_angle_beta     90.0
_cell_angle_gamma    98.55342345851989

_space_group_name_H-M_alt    "P 1"
_space_group_IT_number       1

loop_
  _space_group_symop_operation_xyz
  'x, y, z'

loop_
  _atom_site_type_symbol
  _atom_site_label
  _atom_site_symmetry_multiplicity
  _atom_site_fract_x
  _atom_site_fract_y
  _atom_site_fract_z
  _atom_site_occupancy
  Ca  Ca1       1.0  0.8062071474818995  0.5479147412005361  0.2131970149253704  1.0000
  Ca  Ca2       1.0  0.6937956692166978  0.9520857126069444  0.7131977611940314  1.0000
  Ca  Ca3       1.0  0.1937944357516912  0.4520861704344554  0.7868029850746296  1.0000
  Ca  Ca4       1.0  0.3062046501332034  0.0479151990280542  0.2868022388059686  1.0000
  H   H1        1.0  0.5142861824226514  0.2884605715264215  0.5490835820895512  1.0000
  H   H2        1.0  0.9857135415805303  0.2115380570010501  0.0490873134328353  1.0000
  H   H3        1.0  0.4857135666463321  0.711537599173532  0.45091567164178764  1.0000
  H   H4        1.0  0.014285323792037714  0.7884619409889312  0.9509156716417875  1.0000
  H   H5        1.0  0.670096398141439  0.42259919130564333  0.6830126865671673  1.0000
  H   H6        1.0  0.8299056635354843  0.0773985235768109  0.18301641791044423  1.0000
  H   H7        1.0  0.3299075227659003  0.5774008066843379  0.3169858208955247  1.0000
  H   H8        1.0  0.1700930117434396  0.9226005607681529  0.8169858208955246  1.0000
  H   H9        1.0  0.8715143200138868  0.6088539498797374  0.6285514925373121  1.0000
  H   H10       1.0  0.6284857788236877  0.8911455902827257  0.1285522388059732  1.0000
  H   H11       1.0  0.1284876434069773  0.39114878904528183  0.3714462686567187  1.0000
  H   H12       1.0  0.3715152341289923  0.1088525804172278  0.8714477611940268  1.0000
  H   H13       1.0  0.5380441418502996  0.2857123273292572  0.2059604477611927  1.0000
  H   H14       1.0  0.9619610178749269  0.2142881284882421  0.7059634328358229  1.0000
  H   H15       1.0  0.46195996915067644  0.7142885843057414  0.7940388059701461  1.0000
  H   H16       1.0  0.038042019335996706  0.7857136967917597  0.29403880597014614  1.0000
  H   H17       1.0  0.5366343568521827  0.7219138655788697  0.22686940298507344  1.0000
  H   H18       1.0  0.9633657419853922  0.7780856745835933  0.7268694029850735  1.0000
  H   H19       1.0  0.46336450852038524  0.2780861324111115  0.7731305970149265  1.0000
  H   H20       1.0  0.036633123387176204  0.2219143234063878  0.2731305970149265  1.0000
  H   H21       1.0  0.5428770541600585  0.6710713479312247  0.1190492537313403  1.0000
  H   H22       1.0  0.9571232347711529  0.8289291058762487  0.6190477611940322  1.0000
  H   H23       1.0  0.45712307509619876  0.3289286500587565  0.8809522388059674  1.0000
  H   H24       1.0  0.04287436671772581  0.1710708921137325  0.3809514925373135  1.0000
  H   H25       1.0  0.6408562184203461  0.38919998423391894  0.041814925373131494  1.0000
  H   H26       1.0  0.8591453397474424  0.11080138522858361  0.5418149253731315  1.0000
  H   H27       1.0  0.3591426469522219  0.6108000137560552  0.9581850746268683  1.0000
  H   H28       1.0  0.1408576974634812  0.8892004400514182  0.4581850746268685  1.0000
  H   H29       1.0  0.7908336233736861  0.4789637794079766  0.9936917910447747  1.0000
  H   H30       1.0  0.7091654070267169  0.021037590054533  0.49369253731343576  1.0000
  H   H31       1.0  0.20916435830246632  0.5210380458720323  0.006309701492540399  1.0000
  H   H32       1.0  0.2908359861132368  0.9789624079354482  0.5063089552238793  1.0000
  C   C1        1.0  0.6346459201809508  0.4014848550700734  0.4308201492537336  1.0000
  C   C2        1.0  0.8653543741031414  0.0985165143924362  0.9308231343283565  1.0000
  C   C3        1.0  0.3653552828653659  0.5985142292748904  0.5691791044776124  1.0000
  C   C4        1.0  0.13464341747937425  0.9014843972425625  0.0691791044776124  1.0000
  C   C5        1.0  0.6045563909844844  0.3695191570227366  0.530851492537316  1.0000
  C   C6        1.0  0.8954444068087497  0.1304785578597176  0.030856716417908093  1.0000
  C   C7        1.0  0.3954429778972255  0.6304771863871892  0.469147014925376  1.0000
  C   C8        1.0  0.10455319468012193  0.8695214401302636  0.9691462686567149  1.0000
  C   C9        1.0  0.6902707847634489  0.4443293242795434  0.6041119402985089  1.0000
  C   C10       1.0  0.8097276753560365  0.05566930424792821  0.104115671641793  1.0000
  C   C11       1.0  0.3097302281892311  0.55566884642041  0.39588656716417586  1.0000
  C   C12       1.0  0.19026973603919836  0.9443297800970428  0.8958873134328369  1.0000
  C   C13       1.0  0.8006133618034922  0.5482071076044903  0.5743865671641757  1.0000
  C   C14       1.0  0.6993852830567492  0.9517915189129624  0.0743888059701519  1.0000
  C   C15       1.0  0.19938784124282452  0.45179197674048055  0.4256111940298481  1.0000
  C   C16       1.0  0.30061212833849277  0.0482075654320084  0.925612686567163  1.0000
  C   C17       1.0  0.8225417167552393  0.5731249480265035  0.4726126865671674  1.0000
  C   C18       1.0  0.6774596459660246  0.9268745921359596  0.9726149253731362  1.0000
  C   C19       1.0  0.17745929619744064  0.42687322267345  0.5273843283582095  1.0000
  C   C20       1.0  0.3225390293129066  0.0731244922090042  0.027385820895524694  1.0000
  C   C21       1.0  0.5466470825468336  0.3231059903949998  0.34991791044775766  1.0000
  C   C22       1.0  0.9533548558082287  0.1768972063575305  0.8499231343283569  1.0000
  C   C23       1.0  0.4533517828257346  0.6768940075949815  0.6500805970149273  1.0000
  C   C24       1.0  0.046645653635309314  0.8231046189224713  0.1500805970149273  1.0000
  C   C25       1.0  0.9410876516928468  0.6830930890038189  0.4357201492537328  1.0000
  C   C26       1.0  0.5589113733546753  0.8169073648036544  0.9357208955223868  1.0000
  C   C27       1.0  0.05891247756341761  0.3169069089861623  0.5642776119402981  1.0000
  C   C28       1.0  0.4410860380405667  0.18309171954130932  0.0642783582089521  1.0000
  N   N1        1.0  0.7421520174710639  0.5004892558991045  0.401635074626867  1.0000
  N   N2        1.0  0.7578486516474214  0.9995130251983966  0.9016380597014901  1.0000
  N   N3        1.0  0.2578491855752532  0.4995098284458592  0.5983626865671638  1.0000
  N   N4        1.0  0.2421505939124202  0.0004888000816123  0.09836343283581778  1.0000
  N   N5        1.0  0.08880232838914282  0.40651447086310105  0.1634014925373108  1.0000
  N   N6        1.0  0.4111992852631374  0.0934868985994086  0.6634022388059719  1.0000
  N   N7        1.0  0.9111979909607586  0.5934864407718905  0.8365977611940281  1.0000
  N   N8        1.0  0.5888001503903482  0.9065158403256106  0.3365992537313431  1.0000
  O   O1        1.0  0.44108046828620223  0.2321051198742197  0.3700932835820865  1.0000
  O   O2        1.0  0.0589164700185805  0.2678980768783177  0.8700992537313397  1.0000
  O   O3        1.0  0.5589147955289279  0.7678957917607789  0.6299052238805984  1.0000
  O   O4        1.0  0.9410851132150101  0.7321028347566738  0.1299052238805984  1.0000
  O   O5        1.0  0.5922064340181024  0.3589345795545853  0.2585850746268648  1.0000
  O   O6        1.0  0.9078001796844574  0.1410667899079243  0.7585895522388028  1.0000
  O   O7        1.0  0.40779603291191086  0.6410645047903856  0.7414149253731352  1.0000
  O   O8        1.0  0.09220285752646623  0.8589350353720775  0.24141343283582017  1.0000
  O   O9        1.0  0.005248536180602115  0.7635742508523294  0.49597462686567434  1.0000
  O   O10       1.0  0.49475288202515344  0.7364252893101408  0.9959746268656742  1.0000
  O   O11       1.0  0.9947501390983291  0.2364248334926415  0.5040253731343256  1.0000
  O   O12       1.0  0.5052485111148002  0.2635747086798403  0.0040246268656716  1.0000
  O   O13       1.0  0.9686761349161517  0.6836357941411606  0.340727611940295  1.0000
  O   O14       1.0  0.5313266817824458  0.8163646596663199  0.8407283582089561  1.0000
  O   O15       1.0  0.0313265221074914  0.3163642038488206  0.6592716417910436  1.0000
  O   O16       1.0  0.4686759752412044  0.1836353383236613  0.15927089552238974  1.0000
  O   O17       1.0  0.5625297058646765  0.6500922311574868  0.189303731343287  1.0000
  O   O18       1.0  0.9374705830665351  0.8499082226499937  0.689302985074626  1.0000
  O   O19       1.0  0.4374716872752772  0.3499077668324944  0.810697014925374  1.0000
  O   O20       1.0  0.06252720851598072  0.1500926889849978  0.3106970149253739  1.0000
  O   O21       1.0  0.7290814909589403  0.46081878946256444  0.0570029850746252  1.0000
  O   O22       1.0  0.7709184231378786  0.0391807527099175  0.5570029850746252  1.0000
  O   O23       1.0  0.2709092876023291  0.5391848631074652  0.9429970149253748  1.0000
  O   O24       1.0  0.2290897929296776  0.9608155907000153  0.4429955223880597  1.0000
  O   O25       1.0  0.091214142022892  0.5147530818320263  0.1302149253731315  1.0000
  O   O26       1.0  0.4087874662765074  0.9852473719754542  0.6302149253731313  1.0000
  O   O27       1.0  0.9087861773270093  0.4852478298029652  0.8697850746268684  1.0000
  O   O28       1.0  0.591210515399645  0.0147544533045547  0.3697850746268685  1.0000
  O   O29       1.0  0.9743931446390236  0.3690531980664389  0.2297611940298481  1.0000
  O   O30       1.0  0.5256069595514318  0.1309472577510604  0.7297611940298481  1.0000
  O   O31       1.0  0.025606984617233826  0.6309467999235423  0.7702388059701519  1.0000
  O   O32       1.0  0.4743920959147729  0.8690536538839311  0.27023955223880586  1.0000
  O   O33       1.0  0.1898084392018617  0.3387357156213966  0.1335037313432821  1.0000
  O   O34       1.0  0.3101902664957521  0.1612638265510924  0.6335052238805969  1.0000
  O   O35       1.0  0.8101904261707062  0.6612642823685846  0.8664940298507489  1.0000
  O   O36       1.0  0.6898079052740371  0.838738912373927  0.3664970149253719  1.0000
