data_image0
_chemical_formula_structural       Mn2H30C42N4O16
_chemical_formula_sum              "Mn2 H30 C42 N4 O16"
_cell_length_a       8.933117097436202
_cell_length_b       11.351316182945926
_cell_length_c       11.582690228883243
_cell_angle_alpha    110.84264229509239
_cell_angle_beta     100.65827610482158
_cell_angle_gamma    112.46633108808435

_space_group_name_H-M_alt    "P 1"
_space_group_IT_number       1

loop_
  _space_group_symop_operation_xyz
  'x, y, z'

loop_
  _atom_site_type_symbol
  _atom_site_label
  _atom_site_symmetry_multiplicity
  _atom_site_fract_x
  _atom_site_fract_y
  _atom_site_fract_z
  _atom_site_occupancy
  Mn  Mn1       1.0  0.3566998560066709  0.3546365233489582  0.3729637735351333  1.0000
  Mn  Mn2       1.0  0.6356858940628457  0.6316998594213815  0.6145491822841581  1.0000
  H   H1        1.0  0.6763458267096567  0.39920666757345197  0.1167819916164063  1.0000
  H   H2        1.0  0.34053602180252807  0.6147499040714592  0.9006252517291319  1.0000
  H   H3        1.0  0.07323801215449073  0.6409931805982297  0.5098872297625335  1.0000
  H   H4        1.0  0.9537659400871876  0.3795655107795497  0.5035408068082392  1.0000
  H   H5        1.0  0.9069419822970773  0.41071116204037145  0.021447411144507145  1.0000
  H   H6        1.0  0.10438787545349028  0.5947855019241288  0.9897774759403436  1.0000
  H   H7        1.0  0.3160911865299952  0.8092370332659229  0.28563774138941517  1.0000
  H   H8        1.0  0.6897924547357875  0.19472680877652954  0.7138056777456117  1.0000
  H   H9        1.0  0.5025948014697692  0.5133913395088073  0.12130014549430976  1.0000
  H   H10       1.0  0.5120455062732462  0.49427807640243776  0.8876338151298315  1.0000
  H   H11       1.0  0.615849461490484  0.016093701211303796  0.37782262472297407  1.0000
  H   H12       1.0  0.3894927578579655  0.9903957161739285  0.6248143542587175  1.0000
  H   H13       1.0  0.804971378609494  0.7225063724194668  0.212903055978181  1.0000
  H   H14       1.0  0.20897512019028847  0.28795269649508265  0.7990862359569634  1.0000
  H   H15       1.0  0.9320596606316586  0.22171200251221987  0.2797365874155774  1.0000
  H   H16       1.0  0.041593120718715876  0.742183971487549  0.699011966403724  1.0000
  H   H17       1.0  0.22786912213897637  0.23343296373203506  0.03566102069925851  1.0000
  H   H18       1.0  0.73185434696763  0.7508792183679205  0.9319376139159703  1.0000
  H   H19       1.0  0.8775880756335114  0.0771270356819329  0.8751340585345279  1.0000
  H   H20       1.0  0.08064036530585372  0.9207297242062535  0.10002476278525299  1.0000
  H   H21       1.0  0.6171319350292421  0.9102497651646857  0.8308638165600544  1.0000
  H   H22       1.0  0.3508331412928457  0.07389781448805621  0.1516739077830423  1.0000
  H   H23       1.0  0.6670252389130837  0.1968439761516123  0.21874750938201268  1.0000
  H   H24       1.0  0.30130649006215304  0.7912997543395691  0.7614762303995238  1.0000
  H   H25       1.0  0.05716687661864479  0.21122040461300876  0.47033925766423584  1.0000
  H   H26       1.0  0.9555168877353071  0.7984101173196552  0.5436395574242854  1.0000
  H   H27       1.0  0.4240827052566729  0.1586177176417323  0.3833198281538588  1.0000
  H   H28       1.0  0.5821979166634748  0.8318168123344732  0.6180930478033347  1.0000
  H   H29       1.0  0.21261929903607074  0.08183271990455411  0.3498230850397592  1.0000
  H   H30       1.0  0.7977634605031697  0.9004045707181946  0.6584801755914002  1.0000
  C   C1        1.0  0.7252827652734056  0.524442308002328  0.3802090389510796  1.0000
  C   C2        1.0  0.2941027606548587  0.4874412635731603  0.6322389262073855  1.0000
  C   C3        1.0  0.8592722497484717  0.5249687345759356  0.3209715203266443  1.0000
  C   C4        1.0  0.16361961462906288  0.49384102996332757  0.6944162212017488  1.0000
  C   C5        1.0  0.8127503314129855  0.45534115858168905  0.18218488978416064  1.0000
  C   C6        1.0  0.20547510032119473  0.5588709277852856  0.8326315437286883  1.0000
  C   C7        1.0  0.03421040433099897  0.5905529814263276  0.402385652074159  1.0000
  C   C8        1.0  0.9888047521530438  0.42778015764578475  0.6107940953767825  1.0000
  C   C9        1.0  0.16317373594198878  0.5903884217645228  0.35047755159383354  1.0000
  C   C10       1.0  0.8561329526532476  0.4236433378465563  0.659619244483011  1.0000
  C   C11       1.0  0.11549851007527691  0.5296544725813419  0.21186135939792194  1.0000
  C   C12       1.0  0.8996468055300539  0.4786960559673472  0.7976998281734142  1.0000
  C   C13       1.0  0.9404516508946301  0.4602662023801755  0.12848142043891636  1.0000
  C   C14       1.0  0.07394806569075033  0.5485659301608905  0.883139034681932  1.0000
  C   C15       1.0  0.34283407797387616  0.6586853525621237  0.4508391946634448  1.0000
  C   C16       1.0  0.6756343695010686  0.3533196792366766  0.558223351413716  1.0000
  C   C17       1.0  0.42311420946465744  0.7904370109223182  0.269499166087357  1.0000
  C   C18       1.0  0.5846232781690545  0.21488878028945632  0.7327656234556204  1.0000
  C   C19       1.0  0.3949785301822644  0.6497099390155086  0.20129432857682167  1.0000
  C   C20       1.0  0.6162284939976602  0.3561841284337319  0.8042811704281264  1.0000
  C   C21       1.0  0.5299728591526077  0.6241818983401402  0.17619006705252366  1.0000
  C   C22       1.0  0.4827223264993493  0.3831693328268813  0.8313482331963871  1.0000
  C   C23       1.0  0.5911866935716291  0.9062449419516837  0.3212847745706142  1.0000
  C   C24       1.0  0.41591316993202554  0.10056171334742461  0.6823833792024205  1.0000
  C   C25       1.0  0.7295792719534617  0.8815201481797245  0.30327194224906867  1.0000
  C   C26       1.0  0.2798079849633481  0.12659768606354055  0.7050639088081926  1.0000
  C   C27       1.0  0.6967003066588617  0.7399542884434851  0.22757038006350438  1.0000
  C   C28       1.0  0.31526998248145344  0.2687279563344163  0.7816959303272528  1.0000
  C   C29       1.0  0.9117980279694539  0.9993226295558203  0.3642893010196746  1.0000
  C   C30       1.0  0.0994038874983332  0.007988618349756399  0.6505061473082777  1.0000
  C   C31       1.0  0.967812259848962  0.2061958920183713  0.19336139397888996  1.0000
  C   C32       1.0  0.0028817958552948397  0.7665643301111585  0.7835338682386351  1.0000
  C   C33       1.0  0.11434784216731943  0.2082988511740069  0.06311126889556114  1.0000
  C   C34       1.0  0.848398253616878  0.7746397095915113  0.9085377821526212  1.0000
  C   C35       1.0  0.941382837783735  0.1315122622247102  0.9822385638736083  1.0000
  C   C36       1.0  0.02016352507933313  0.8588710839822866  0.9925797701438273  1.0000
  C   C37       1.0  0.6644985703504744  0.06216692894483339  0.028768326400687286  1.0000
  C   C38       1.0  0.30215305970823886  0.9244101703486648  0.9515502860472367  1.0000
  C   C39       1.0  0.5592187381126195  0.948576977465599  0.9004825384905359  1.0000
  C   C40       1.0  0.4076920827926572  0.0379410116201768  0.08005911298465664  1.0000
  C   C41       1.0  0.5884047157185678  0.10707207562064978  0.11878285422072576  1.0000
  C   C42       1.0  0.37891497880186636  0.8804543128126597  0.8615775552611356  1.0000
  N   N1        1.0  0.12944239232167837  0.25446354007387845  0.1946359172908388  1.0000
  N   N2        1.0  0.838683968413662  0.7169996578043937  0.7777379574377296  1.0000
  N   N3        1.0  0.8487931574163313  0.13026763677248707  0.06639559015174973  1.0000
  N   N4        1.0  0.11772695318225605  0.8540874116614461  0.9120101600859558  1.0000
  O   O1        1.0  0.5702192212990057  0.4215441991473838  0.3132052495279894  1.0000
  O   O2        1.0  0.4512078800239723  0.592740424472261  0.6908894999223991  1.0000
  O   O3        1.0  0.777932862768985  0.6293643331322939  0.4993406001836506  1.0000
  O   O4        1.0  0.23693386074697295  0.3746134581980058  0.5193856981040172  1.0000
  O   O5        1.0  0.4219853746297347  0.5836833919161182  0.44378433580507004  1.0000
  O   O6        1.0  0.5877568499243397  0.42135022176357506  0.5605034502589706  1.0000
  O   O7        1.0  0.40144180075542124  0.7857280208975154  0.5410433886459672  1.0000
  O   O8        1.0  0.618977246126029  0.22572447846664553  0.4705211026732315  1.0000
  O   O9        1.0  0.23409111446850533  0.5284640354792814  0.150564645602188  1.0000
  O   O10       1.0  0.7790104674374236  0.4759535967848123  0.8578208063283415  1.0000
  O   O11       1.0  0.03442935313079679  0.9753090299596892  0.3538927608013864  1.0000
  O   O12       1.0  0.9773731198925905  0.027479002947778497  0.6723674340417747  1.0000
  O   O13       1.0  0.9322440113730225  0.13102950520408294  0.4310502487236435  1.0000
  O   O14       1.0  0.07834422436347681  0.8778212637758288  0.5760851391453132  1.0000
  O   O15       1.0  0.30729274860663486  0.1381993575508744  0.3260304056063391  1.0000
  O   O16       1.0  0.6934310589397868  0.8369366939236542  0.6699999644228003  1.0000
