data_image0
_chemical_formula_structural       Zn4H21C26N3O15
_chemical_formula_sum              "Zn4 H21 C26 N3 O15"
_cell_length_a       10.939344151018501
_cell_length_b       10.746982730350068
_cell_length_c       19.622297223868127
_cell_angle_alpha    92.34029258441832
_cell_angle_beta     96.89417699339722
_cell_angle_gamma    99.13959932263961

_space_group_name_H-M_alt    "P 1"
_space_group_IT_number       1

loop_
  _space_group_symop_operation_xyz
  'x, y, z'

loop_
  _atom_site_type_symbol
  _atom_site_label
  _atom_site_symmetry_multiplicity
  _atom_site_fract_x
  _atom_site_fract_y
  _atom_site_fract_z
  _atom_site_occupancy
  Zn  Zn1       1.0  0.4130209376619902  0.5861877351719186  0.5575435658696082  1.0000
  Zn  Zn2       1.0  0.6195063309185471  0.6125259373157874  0.4506074259877766  1.0000
  Zn  Zn3       1.0  0.3901312684209373  0.387724190995179  0.42926216124223526  1.0000
  Zn  Zn4       1.0  0.6082017337457871  0.40579998801911893  0.562809736117636  1.0000
  H   H1        1.0  0.5444996308993596  0.7225831520390213  0.1093678789828232  1.0000
  H   H2        1.0  0.19687836264421327  0.4773254239998578  0.7690352874048046  1.0000
  H   H3        1.0  0.281018968153198  0.5224950221395231  0.7033085260146309  1.0000
  H   H4        1.0  0.22784854698303292  0.05490703264136698  0.45377938598947065  1.0000
  H   H5        1.0  0.2279300210294295  0.9170151788633589  0.5036498264828994  1.0000
  H   H6        1.0  0.18658126721441454  0.8998202072526948  0.4119812635345  1.0000
  H   H7        1.0  0.42618102909703737  0.7525348153848481  0.3080131022072053  1.0000
  H   H8        1.0  0.4002546356055063  0.8436780922915473  0.23414492060020828  1.0000
  H   H9        1.0  0.5253860195882397  0.898930721184783  0.3018449823701985  1.0000
  H   H10       1.0  0.706585567480225  0.3940400185975575  0.9577335958934728  1.0000
  H   H11       1.0  0.763162165581555  0.3543420441737765  0.8855605928564004  1.0000
  H   H12       1.0  0.9861149030140554  0.4510269557591541  0.4112567590912236  1.0000
  H   H13       1.0  0.24204256658156  0.5658469630987567  0.8700931975232606  1.0000
  H   H14       1.0  0.28682439081026  0.494032316837675  0.9415632643851386  1.0000
  H   H15       1.0  0.02871105860823769  0.5414855899354477  0.5651604300654895  1.0000
  H   H16       1.0  0.636182919632212  0.028484973668781798  0.5508123161950423  1.0000
  H   H17       1.0  0.4140284155469942  0.33077904710510336  0.22393471702826429  1.0000
  H   H18       1.0  0.48267327047423686  0.6130893387111199  0.9973928617765683  1.0000
  H   H19       1.0  0.41193761913328325  0.3205109223314934  0.09719635736537673  1.0000
  H   H20       1.0  0.6677448752756875  0.3943634627784149  0.7739136140992928  1.0000
  H   H21       1.0  0.5009586257449072  0.33048832079476387  0.9972266659301496  1.0000
  C   C1        1.0  0.8393617340707493  0.5132819445091527  0.5094634887030624  1.0000
  C   C2        1.0  0.48895072685009205  0.421361285314603  0.9761620775675228  1.0000
  C   C3        1.0  0.48322031485344047  0.5210533282050632  0.019353777899141313  1.0000
  C   C4        1.0  0.1719074746487976  0.4821701713723028  0.47336260115340434  1.0000
  C   C5        1.0  0.4820150870054223  0.529277838840926  0.23850984152147706  1.0000
  C   C6        1.0  0.035257572590850765  0.4827701297401743  0.4621715408139338  1.0000
  C   C7        1.0  0.9761849941237486  0.5162190694143047  0.514282980997095  1.0000
  C   C8        1.0  0.4658140080918828  0.023003802075422197  0.48693873729650516  1.0000
  C   C9        1.0  0.5541684401234832  0.9691458053707718  0.5227623537085507  1.0000
  C   C10       1.0  0.5472018336939826  0.8298247625670637  0.5215447803143578  1.0000
  C   C11       1.0  0.47744566410910494  0.16465559889044096  0.48875884997220004  1.0000
  C   C12       1.0  0.4857528580087447  0.42902496607511137  0.9013527237874757  1.0000
  C   C13       1.0  0.48990363812281157  0.5209264440434466  0.3143828467410402  1.0000
  C   C14       1.0  0.49872412682235284  0.4705887893830576  0.6854696090678376  1.0000
  C   C15       1.0  0.48868034380925723  0.4547798462605497  0.7590171132970485  1.0000
  C   C16       1.0  0.3837758074184663  0.480438857071938  0.7896212497606855  1.0000
  C   C17       1.0  0.3848273373897371  0.4686123903541881  0.8615987972457975  1.0000
  C   C18       1.0  0.24603691505646447  0.9573515846812054  0.4544611144977751  1.0000
  C   C19       1.0  0.47141399405921897  0.8152224689087214  0.2723508475930601  1.0000
  C   C20       1.0  0.5877053688459598  0.398236566962872  0.869132107506829  1.0000
  C   C21       1.0  0.588443215925757  0.4128981137196062  0.7991847009930029  1.0000
  C   C22       1.0  0.44354877393922004  0.41001337425025497  0.1270629598416093  1.0000
  C   C23       1.0  0.44336919685199666  0.4156632422860795  0.19764775670834922  1.0000
  C   C24       1.0  0.5177654082061736  0.6412383937340421  0.20499262828307963  1.0000
  C   C25       1.0  0.5163176860366506  0.6347603687858052  0.13359796673776006  1.0000
  C   C26       1.0  0.4816488181301608  0.5204950601332924  0.09359437139074343  1.0000
  N   N1        1.0  0.2793023808552348  0.5198598816065284  0.7549868870551111  1.0000
  N   N2        1.0  0.6852943192533303  0.35414463222124215  0.909012965948897  1.0000
  N   N3        1.0  0.2776208672428169  0.49063368716844735  0.8893784807194722  1.0000
  O   O1        1.0  0.5072050474716079  0.4964558809889467  0.4989112035012014  1.0000
  O   O2        1.0  0.5601972631090533  0.6098587106275557  0.3525175090396574  1.0000
  O   O3        1.0  0.588061013372432  0.42935088090759177  0.6597969579192198  1.0000
  O   O4        1.0  0.42764455966899123  0.4223997703567689  0.3359070665058114  1.0000
  O   O5        1.0  0.4175463134590487  0.5261992552309279  0.6506015091471938  1.0000
  O   O6        1.0  0.3727852272028684  0.9506510568156156  0.4429489143385937  1.0000
  O   O7        1.0  0.559111114441862  0.7580292434823547  0.23778047913241815  1.0000
  O   O8        1.0  0.4616354028780449  0.7689381923689849  0.5516296409513118  1.0000
  O   O9        1.0  0.5623903179591779  0.2256904406362849  0.5333161558589128  1.0000
  O   O10       1.0  0.7862737663236813  0.5620891790481437  0.4582009826967949  1.0000
  O   O11       1.0  0.21601294236324264  0.4172716322664342  0.42900072144352935  1.0000
  O   O12       1.0  0.7879555381750122  0.4625553045674024  0.5588421629345748  1.0000
  O   O13       1.0  0.2331437269380032  0.5462526941909258  0.5261456571425642  1.0000
  O   O14       1.0  0.6290624689649961  0.7850982313662982  0.49130564754774053  1.0000
  O   O15       1.0  0.40200371513848426  0.2100925363351251  0.44574800325136726  1.0000
