data_image0
_chemical_formula_structural       Cu2H20C30N12O2
_chemical_formula_sum              "Cu2 H20 C30 N12 O2"
_cell_length_a       7.706258949767263
_cell_length_b       9.198986599464678
_cell_length_c       10.061888197837494
_cell_angle_alpha    88.1629445727074
_cell_angle_beta     77.77090995304087
_cell_angle_gamma    86.5881294185156

_space_group_name_H-M_alt    "P 1"
_space_group_IT_number       1

loop_
  _space_group_symop_operation_xyz
  'x, y, z'

loop_
  _atom_site_type_symbol
  _atom_site_label
  _atom_site_symmetry_multiplicity
  _atom_site_fract_x
  _atom_site_fract_y
  _atom_site_fract_z
  _atom_site_occupancy
  Cu  Cu1       1.0  0.6082198062230759  0.7080874924528403  0.537924104159103  1.0000
  Cu  Cu2       1.0  0.3917811630293712  0.2919157870638003  0.46207817386287087  1.0000
  H   H1        1.0  0.9111887943578907  0.20072929606921264  0.6467439373362182  1.0000
  H   H2        1.0  0.08879434411828407  0.7992639353266712  0.35325677006322564  1.0000
  H   H3        1.0  0.9574141088974315  0.034068898782230406  0.8361196159541322  1.0000
  H   H4        1.0  0.04257683297102935  0.9659266145525794  0.16388167739206946  1.0000
  H   H5        1.0  0.8355669129461488  0.1041211976819412  0.07658782752894672  1.0000
  H   H6        1.0  0.16443812439362662  0.895881031774643  0.9234138102807776  1.0000
  H   H7        1.0  0.6630246074229404  0.34128595075782187  0.12691503470567517  1.0000
  H   H8        1.0  0.3369843497491587  0.6587174454508046  0.8730888798833761  1.0000
  H   H9        1.0  0.6226846716153176  0.5093127232967092  0.9342179529784147  1.0000
  H   H10       1.0  0.37732411916559266  0.4906928639414403  0.06578689479626121  1.0000
  H   H11       1.0  0.893413283789222  0.4517307013198889  0.2731977093470377  1.0000
  H   H12       1.0  0.10657995166440058  0.548269181406127  0.7268020282808936  1.0000
  H   H13       1.0  0.4535969574570444  0.9412757097672755  0.3571391884399233  1.0000
  H   H14       1.0  0.546396084401124  0.05872632531439592  0.6428585066647159  1.0000
  H   H15       1.0  0.5067544274465448  0.9906696648694223  0.1072145017119723  1.0000
  H   H16       1.0  0.493252320918792  0.009327054896864702  0.8927811082829891  1.0000
  H   H17       1.0  0.7136830714337774  0.8170528171196666  0.9491841681359291  1.0000
  H   H18       1.0  0.28632086603666806  0.18294608056139341  0.05081381332824013  1.0000
  H   H19       1.0  0.8594675473902951  0.6035939074018585  0.050906744028374466  1.0000
  H   H20       1.0  0.1405353446193303  0.3964017358514198  0.9490935325080587  1.0000
  C   C1        1.0  0.7261107373709661  0.4675231248042592  0.6709084874210165  1.0000
  C   C2        1.0  0.27388654191695855  0.5324768871698494  0.32909752395680414  1.0000
  C   C3        1.0  0.7621135965322168  0.3654511541801072  0.7796927603750632  1.0000
  C   C4        1.0  0.23788232876555068  0.6345488061171096  0.22031049848414608  1.0000
  C   C5        1.0  0.8572335961888697  0.23094922128750284  0.7517746476318052  1.0000
  C   C6        1.0  0.14275312026916245  0.769049546028171  0.2482292110152358  1.0000
  C   C7        1.0  0.8830009595773233  0.13793093132031942  0.8587544217077223  1.0000
  C   C8        1.0  0.11699133628129485  0.8620646336913823  0.1412496241570977  1.0000
  C   C9        1.0  0.8147740912955966  0.1773569093583163  0.9935456727956192  1.0000
  C   C10       1.0  0.18522864339093556  0.8226409378157769  0.006456528829410534  1.0000
  C   C11       1.0  0.7202208091214715  0.3109881511986999  0.02213971570367331  1.0000
  C   C12       1.0  0.27978838403527817  0.6890119391287187  0.9778613112524893  1.0000
  C   C13       1.0  0.6952816152028234  0.40444652799070724  0.9152304821864163  1.0000
  C   C14       1.0  0.3047219804171633  0.5955567388581003  0.0847683737460301  1.0000
  C   C15       1.0  0.8053532070564343  0.5384794265837131  0.3262662737983676  1.0000
  C   C16       1.0  0.19463978334444929  0.4615237491322264  0.6737353595594869  1.0000
  C   C17       1.0  0.7312723127607582  0.6586215144091909  0.256105161053256  1.0000
  C   C18       1.0  0.2687278379474378  0.34137519190716153  0.7438955325051211  1.0000
  C   C19       1.0  0.5419749851151109  0.8691891961200255  0.2857881962619545  1.0000
  C   C20       1.0  0.45802248481702884  0.13080744551641743  0.7142099679681095  1.0000
  C   C21       1.0  0.5725537587447961  0.8955091137927627  0.14558221670432664  1.0000
  C   C22       1.0  0.4274446507823484  0.10449184555799461  0.8544116392888554  1.0000
  C   C23       1.0  0.6865459257792779  0.799343961530518  0.059208472292589055  1.0000
  C   C24       1.0  0.3134566849052689  0.20065492314751757  0.9407897323618858  1.0000
  C   C25       1.0  0.767575750603285  0.6797246170870678  0.11499257091275451  1.0000
  C   C26       1.0  0.23242151961655103  0.3202753819957494  0.8850124485620939  1.0000
  C   C27       1.0  0.22704795581423545  0.8256066468365759  0.6364996719561162  1.0000
  C   C28       1.0  0.7729597078930723  0.1743955699521749  0.3634985437640879  1.0000
  C   C29       1.0  0.9301604090552046  0.8472735655553478  0.6200122995575441  1.0000
  C   C30       1.0  0.0698459702554146  0.15272748470481903  0.3799812091967851  1.0000
  N   N1        1.0  0.8051380999475128  0.4358183659921266  0.5416107478746213  1.0000
  N   N2        1.0  0.19486207796494875  0.5641783789981005  0.4583929213926652  1.0000
  N   N3        1.0  0.7569020007706226  0.5393905726365203  0.45846574199832457  1.0000
  N   N4        1.0  0.24309595197215825  0.4606158062772324  0.5415259833955446  1.0000
  N   N5        1.0  0.619304024366393  0.7542983289480676  0.3388382445280131  1.0000
  N   N6        1.0  0.3806905378731287  0.24570156678097285  0.6611612699096128  1.0000
  N   N7        1.0  0.3837400837136329  0.8135407660420599  0.6104143436564868  1.0000
  N   N8        1.0  0.6162672229582851  0.18646701211388717  0.38959265239709145  1.0000
  N   N9        1.0  0.05874797657126149  0.8410505982738387  0.6847662633206397  1.0000
  N   N10       1.0  0.9412574873973797  0.15894495496386443  0.3152246397084468  1.0000
  N   N11       1.0  0.7997590445230358  0.8556709474316193  0.5753896090469581  1.0000
  N   N12       1.0  0.20024206391634183  0.1443301023816304  0.4246087600804671  1.0000
  O   O1        1.0  0.6209916227676188  0.5808478274684248  0.7049996960700113  1.0000
  O   O2        1.0  0.3790053479909615  0.4191553872565735  0.2950012677169269  1.0000
