data_image0
_chemical_formula_structural       Cd4H36C20S4N4O20
_chemical_formula_sum              "Cd4 H36 C20 S4 N4 O20"
_cell_length_a       7.706804432038373
_cell_length_b       7.966482188758884
_cell_length_c       16.804468504813816
_cell_angle_alpha    89.99838697583158
_cell_angle_beta     89.99965682794138
_cell_angle_gamma    89.99988713168773

_space_group_name_H-M_alt    "P 1"
_space_group_IT_number       1

loop_
  _space_group_symop_operation_xyz
  'x, y, z'

loop_
  _atom_site_type_symbol
  _atom_site_label
  _atom_site_symmetry_multiplicity
  _atom_site_fract_x
  _atom_site_fract_y
  _atom_site_fract_z
  _atom_site_occupancy
  Cd  Cd1       1.0  0.9761008223362991  0.7685583296339897  0.3155781552030419  1.0000
  Cd  Cd2       1.0  0.5238912181592567  0.23142822683074368  0.8155766735715133  1.0000
  Cd  Cd3       1.0  0.023892993937273798  0.2685734039320026  0.18442177980523417  1.0000
  Cd  Cd4       1.0  0.47610522690442986  0.731440901747284  0.6844226450788682  1.0000
  H   H1        1.0  0.29239103133630095  0.5763253454135365  0.29853607304490043  1.0000
  H   H2        1.0  0.20761348477149258  0.4236657170764033  0.7985327673700697  1.0000
  H   H3        1.0  0.707620041101613  0.0763380709631747  0.20146637141549212  1.0000
  H   H4        1.0  0.7923968454526003  0.9236704734559424  0.7014622565541657  1.0000
  H   H5        1.0  0.28923568910949626  0.7192387216674302  0.22885962940076612  1.0000
  H   H6        1.0  0.21075805882224324  0.28076033479879203  0.7288587757290799  1.0000
  H   H7        1.0  0.7107673095919366  0.21924595771122302  0.27114035439751666  1.0000
  H   H8        1.0  0.7892408817991875  0.7807621242513108  0.7711404940742812  1.0000
  H   H9        1.0  0.7900586022246544  0.5254293741159585  0.3731581353041236  1.0000
  H   H10       1.0  0.7099495546090322  0.4745662408210335  0.8731535636974713  1.0000
  H   H11       1.0  0.20995387047950223  0.0254375427116145  0.1268461637532567  1.0000
  H   H12       1.0  0.2900554826525763  0.9745714701745809  0.6268437711610488  1.0000
  H   H13       1.0  0.9819384627676513  0.44403311832917314  0.3746163485633646  1.0000
  H   H14       1.0  0.5180605921477478  0.5559448344413056  0.8746136219764582  1.0000
  H   H15       1.0  0.0180679749077868  0.9440577882234534  0.12538189075020514  1.0000
  H   H16       1.0  0.48193620707748147  0.05596386595064469  0.6253850120397291  1.0000
  H   H17       1.0  0.0584892325790776  0.16897246565189045  0.4691966374741696  1.0000
  H   H18       1.0  0.4415130550063964  0.8310044744739072  0.9691992732124035  1.0000
  H   H19       1.0  0.9415112724961572  0.6689985893835129  0.030795076196113803  1.0000
  H   H20       1.0  0.5585065450774919  0.331022822376532  0.5307987454743214  1.0000
  H   H21       1.0  0.28014158545073536  0.14729588523039885  0.44600621412124053  1.0000
  H   H22       1.0  0.2198571122672844  0.8526774410192601  0.9460133414082749  1.0000
  H   H23       1.0  0.7198550706895402  0.6473197724530306  0.053988757939841016  1.0000
  H   H24       1.0  0.7801520635324051  0.3527027421187512  0.5539998663978949  1.0000
  H   H25       1.0  0.4388563619116894  0.8773302795479835  0.45753030740212364  1.0000
  H   H26       1.0  0.06112920982950239  0.12264234762261592  0.9575295484088643  1.0000
  H   H27       1.0  0.5611307470481393  0.3773579562560697  0.0424699928345902  1.0000
  H   H28       1.0  0.9388687523409515  0.6226702787765105  0.5424676197807515  1.0000
  H   H29       1.0  0.3442804776809538  0.6768269243084433  0.4456670446837095  1.0000
  H   H30       1.0  0.15572081962222478  0.3231464227392066  0.9456669788957583  1.0000
  H   H31       1.0  0.6557148212757651  0.17685495457428146  0.05433170740485591  1.0000
  H   H32       1.0  0.8442858207321747  0.8231750709570205  0.5543359029611494  1.0000
  H   H33       1.0  0.3894035737868862  0.9322247996319034  0.3092688566372886  1.0000
  H   H34       1.0  0.11057614862102838  0.06776937730780469  0.8092668930206772  1.0000
  H   H35       1.0  0.6105782341867323  0.4322358526009609  0.19073072710754965  1.0000
  H   H36       1.0  0.8894050561128422  0.5677683221833902  0.6907303966276856  1.0000
  C   C1        1.0  0.10942426764395208  0.16015173469693164  0.34428342121524486  1.0000
  C   C2        1.0  0.39056018770991585  0.8398428276934241  0.8442890570449038  1.0000
  C   C3        1.0  0.8905619821334765  0.6601565681578592  0.15571138316082062  1.0000
  C   C4        1.0  0.6094243605003766  0.3398560078021475  0.6557189627023378  1.0000
  C   C5        1.0  0.14966872493645408  0.10419719590382212  0.4292099518077422  1.0000
  C   C6        1.0  0.3503288945612937  0.8957784049206552  0.929215562938879  1.0000
  C   C7        1.0  0.8503306133034484  0.6042135367190653  0.07078498784084533  1.0000
  C   C8        1.0  0.6496724089512113  0.3958067034273398  0.5707929166484009  1.0000
  C   C9        1.0  0.3433332814132654  0.806173291389598  0.4228216827239706  1.0000
  C   C10       1.0  0.15666442154542887  0.19380144203624636  0.9228209225323314  1.0000
  C   C11       1.0  0.6566630540485577  0.3061974229403646  0.07717776118601452  1.0000
  C   C12       1.0  0.8433437774311797  0.6938249399684581  0.5771794823011192  1.0000
  C   C13       1.0  0.3909606053495621  0.804870466100894  0.33416425471813244  1.0000
  C   C14       1.0  0.10903566018500749  0.1951209448012889  0.8341624180965044  1.0000
  C   C15       1.0  0.6090357327479622  0.3048805222572639  0.1658363964507785  1.0000
  C   C16       1.0  0.8909673459424068  0.6951239079390702  0.6658361844135356  1.0000
  C   C17       1.0  0.5792008427521084  0.7378696759035036  0.3306897624330958  1.0000
  C   C18       1.0  0.920794893083567  0.26213353724923394  0.8306850044488102  1.0000
  C   C19       1.0  0.42079822566548586  0.2378660751445452  0.1693147388664045  1.0000
  C   C20       1.0  0.07920797782127659  0.7621190211533033  0.6693127233752991  1.0000
  S   S1        1.0  0.1314125013504253  0.8835895033566745  0.4507432084947142  1.0000
  S   S2        1.0  0.3685874320997797  0.11638730138057697  0.9507446619393465  1.0000
  S   S3        1.0  0.8685875705534511  0.38361115617860964  0.04925343957505391  1.0000
  S   S4        1.0  0.631422220674274  0.6164154118361721  0.5492543731275177  1.0000
  N   N1        1.0  0.2687599061384489  0.7014976136846869  0.28833978602681043  1.0000
  N   N2        1.0  0.2312304700178771  0.29849281233830277  0.7883356691678715  1.0000
  N   N3        1.0  0.7312340454625711  0.2015109303192162  0.21166280966060927  1.0000
  N   N4        1.0  0.7687632446103123  0.7984982505451227  0.7116609888151118  1.0000
  O   O1        1.0  0.9065243357892853  0.530468326301346  0.3995741304809286  1.0000
  O   O2        1.0  0.5934743932484208  0.4695118778192437  0.8995675644083365  1.0000
  O   O3        1.0  0.09348293650992189  0.0304933849609483  0.1004301026935295  1.0000
  O   O4        1.0  0.4065254639950594  0.9695285282874052  0.6004280511243041  1.0000
  O   O5        1.0  0.06064314842626569  0.055625430826189905  0.2917909898800701  1.0000
  O   O6        1.0  0.43936405082097  0.9443685512920935  0.7917945320745903  1.0000
  O   O7        1.0  0.9393627756249571  0.5556357718471003  0.2082033937077412  1.0000
  O   O8        1.0  0.560647535083355  0.4443811501357118  0.7082133132923476  1.0000
  O   O9        1.0  0.12469123350592777  0.3159838034271871  0.32973446688180275  1.0000
  O   O10       1.0  0.37528562654095765  0.6840003446657333  0.8297356331272783  1.0000
  O   O11       1.0  0.8752985944031052  0.8160041016487153  0.17026246867384745  1.0000
  O   O12       1.0  0.6246836655703801  0.18401763346908945  0.6702666849857266  1.0000
  O   O13       1.0  0.697248323440462  0.8501109049731425  0.33624929345391763  1.0000
  O   O14       1.0  0.8027447446543119  0.14988443905227194  0.8362510856954303  1.0000
  O   O15       1.0  0.3027505184268405  0.3501166552936255  0.16375731303689636  1.0000
  O   O16       1.0  0.19725316250835329  0.6498763097934627  0.6637558434609758  1.0000
  O   O17       1.0  0.60018768030163  0.5809234835461439  0.3260776992915454  1.0000
  O   O18       1.0  0.8998197937191744  0.4190737330046233  0.8260786862065361  1.0000
  O   O19       1.0  0.3998207877964717  0.0809221539920273  0.1739193295205084  1.0000
  O   O20       1.0  0.10019314084185989  0.9190676837021171  0.6739241337672226  1.0000
