data_image0
_chemical_formula_structural       Hg4H36C40N4Cl8O4
_chemical_formula_sum              "Hg4 H36 C40 N4 Cl8 O4"
_cell_length_a       3.911415951943241
_cell_length_b       10.719827776295197
_cell_length_c       26.106032244532557
_cell_angle_alpha    89.9995970685923
_cell_angle_beta     90.000610862353
_cell_angle_gamma    91.06105014703361

_space_group_name_H-M_alt    "P 1"
_space_group_IT_number       1

loop_
  _space_group_symop_operation_xyz
  'x, y, z'

loop_
  _atom_site_type_symbol
  _atom_site_label
  _atom_site_symmetry_multiplicity
  _atom_site_fract_x
  _atom_site_fract_y
  _atom_site_fract_z
  _atom_site_occupancy
  Hg  Hg1       1.0  0.22074423028471565  0.6725514655724538  0.0304722662892445  1.0000
  Hg  Hg2       1.0  0.7792451195486694  0.8274528332209814  0.5304707282167911  1.0000
  Hg  Hg3       1.0  0.7792648490151636  0.3274517210033068  0.9695278092899358  1.0000
  Hg  Hg4       1.0  0.22077405310975717  0.1725457183727812  0.4695285812704881  1.0000
  H   H1        1.0  0.8557051014742925  0.0927669882718689  0.1928249530139325  1.0000
  H   H2        1.0  0.1443478293624736  0.40724368630768043  0.6928244753102959  1.0000
  H   H3        1.0  0.14431154124495296  0.9072324887942996  0.8071778039491093  1.0000
  H   H4        1.0  0.8556126417114813  0.5927584251787507  0.30717674939127443  1.0000
  H   H5        1.0  0.47624333700390775  0.6506712644159621  0.1359297368895298  1.0000
  H   H6        1.0  0.5237560373893758  0.8493331008606829  0.6359288785252346  1.0000
  H   H7        1.0  0.5237708023763048  0.3493300711657739  0.8640691895366005  1.0000
  H   H8        1.0  0.47624806233076106  0.1506747356679554  0.3640704309369839  1.0000
  H   H9        1.0  0.9418125579866659  0.9498153412619179  0.039442410574174906  1.0000
  H   H10       1.0  0.05818280494242603  0.5501981485795185  0.5394431803176616  1.0000
  H   H11       1.0  0.058186293715202515  0.05018781538192481  0.9605595802630376  1.0000
  H   H12       1.0  0.9418159392816962  0.4498012761541901  0.4605572783117751  1.0000
  H   H13       1.0  0.09229898342204025  0.9643344734381644  0.2643659724342555  1.0000
  H   H14       1.0  0.9077196481252445  0.5356677210457476  0.7643685227696437  1.0000
  H   H15       1.0  0.9077303632167145  0.03566224210291581  0.7356341031701845  1.0000
  H   H16       1.0  0.09225099684824302  0.4643325544076902  0.2356311697297002  1.0000
  H   H17       1.0  0.5929209193676571  0.6199134416123613  0.2285647852352  1.0000
  H   H18       1.0  0.40707465925759584  0.8800865075585451  0.728564037267212  1.0000
  H   H19       1.0  0.40707769050927584  0.38008131823369234  0.7714337581345205  1.0000
  H   H20       1.0  0.5929422787830845  0.1199232323195503  0.2714360383090479  1.0000
  H   H21       1.0  0.7573414658488817  0.11731955028178484  0.09869946787775771  1.0000
  H   H22       1.0  0.2427100421269374  0.38269555098718666  0.5986984500576611  1.0000
  H   H23       1.0  0.24265988909777292  0.8826817478694621  0.9013036721237526  1.0000
  H   H24       1.0  0.7572810313885797  0.6173038513000506  0.4013031577253727  1.0000
  H   H25       1.0  0.3685680537211837  0.8007529942468565  0.37760385261999113  1.0000
  H   H26       1.0  0.6314199431671527  0.6992387509864886  0.8776035873992997  1.0000
  H   H27       1.0  0.6314433944897574  0.19924366894536394  0.6223958399170044  1.0000
  H   H28       1.0  0.36858143850081865  0.3007634801783894  0.12239572206861739  1.0000
  H   H29       1.0  0.010846261918423703  0.8432231668723632  0.33889712753575907  1.0000
  H   H30       1.0  0.989149322080742  0.6567720704233295  0.8388983189227588  1.0000
  H   H31       1.0  0.9891728301855524  0.156772585775677  0.6611025650086191  1.0000
  H   H32       1.0  0.010852032717799899  0.34322922776401293  0.16110060749321056  1.0000
  H   H33       1.0  0.3974931030616561  0.9362020638582395  0.33760067064510213  1.0000
  H   H34       1.0  0.602499832756955  0.5637931882019059  0.8375984410114654  1.0000
  H   H35       1.0  0.6025157345614077  0.0637927258836299  0.6624001710521269  1.0000
  H   H36       1.0  0.397493958662608  0.4362118194851945  0.162398953180336  1.0000
  C   C1        1.0  0.9413035587071197  0.0221916536274165  0.1659485734938002  1.0000
  C   C2        1.0  0.05873456383764621  0.47781477915430765  0.6659492932358474  1.0000
  C   C3        1.0  0.0587155872030536  0.9778059649592806  0.8340538004206195  1.0000
  C   C4        1.0  0.9412335511024141  0.5221864217945011  0.33405116536663837  1.0000
  C   C5        1.0  0.21258535892744135  0.8246307067438962  0.1470600430452862  1.0000
  C   C6        1.0  0.7874122142256115  0.675372527350767  0.6470604769964297  1.0000
  C   C7        1.0  0.787421056005286  0.17536874043629783  0.8529392664305534  1.0000
  C   C8        1.0  0.21256868524225334  0.3246287110055591  0.3529384494032897  1.0000
  C   C9        1.0  0.38837629027256076  0.7179309474848594  0.16415791410258856  1.0000
  C   C10       1.0  0.6116147873025216  0.7820710382288353  0.6641585339746996  1.0000
  C   C11       1.0  0.6116275677572959  0.2820684922131704  0.8358417784244522  1.0000
  C   C12       1.0  0.38837127969649304  0.21793208105015793  0.3358400093732712  1.0000
  C   C13       1.0  0.345948681869146  0.7893522246653504  0.2522807080165848  1.0000
  C   C14       1.0  0.6540511210150016  0.7106473256120865  0.752281596086128  1.0000
  C   C15       1.0  0.6540525923749456  0.21064627457626983  0.7477186014564766  1.0000
  C   C16       1.0  0.3459323890946139  0.28935578618146723  0.2477177133662778  1.0000
  C   C17       1.0  0.9921556655333745  0.9423618830347704  0.08039583132116229  1.0000
  C   C18       1.0  0.0078551731171004  0.5576444116202665  0.5803968828209989  1.0000
  C   C19       1.0  0.007853306342617801  0.05763757161773949  0.9196042442631692  1.0000
  C   C20       1.0  0.9921282832267055  0.44235683422478184  0.419600894421059  1.0000
  C   C21       1.0  0.17618441357932108  0.8950909831176045  0.23680698881977952  1.0000
  C   C22       1.0  0.8238144088156363  0.6049125642342331  0.7368057633703629  1.0000
  C   C23       1.0  0.8238218939968507  0.10490473212291822  0.763194235927365  1.0000
  C   C24       1.0  0.17614864593637242  0.395090487734862  0.2631927799593328  1.0000
  C   C25       1.0  0.4542876416057525  0.7010670398169125  0.2153308376358396  1.0000
  C   C26       1.0  0.5457070872121651  0.7989359350517444  0.7153301557583234  1.0000
  C   C27       1.0  0.5457160552748164  0.29892680199952076  0.7846684718456914  1.0000
  C   C28       1.0  0.45428164415400135  0.20107092362281523  0.2846691536929953  1.0000
  C   C29       1.0  0.10931386126451774  0.9150502668833628  0.18409878282746206  1.0000
  C   C30       1.0  0.8906864770302223  0.5849579304359764  0.6841019337680693  1.0000
  C   C31       1.0  0.8906951374809113  0.0849501207466759  0.815901675808817  1.0000
  C   C32       1.0  0.10928408734842072  0.4150395460815801  0.315896992628673  1.0000
  C   C33       1.0  0.8864252831075279  0.0365120942593009  0.114221384314547  1.0000
  C   C34       1.0  0.11358376793463522  0.4634998149711437  0.6142199335392249  1.0000
  C   C35       1.0  0.11357351488239693  0.963489196422913  0.8857806065252376  1.0000
  C   C36       1.0  0.8863944135887895  0.53649581799516  0.38578205729203324  1.0000
  C   C37       1.0  0.2911970969866219  0.8408535711742007  0.3409489878403562  1.0000
  C   C38       1.0  0.7087960742635037  0.6591416235054977  0.8409478095607527  1.0000
  C   C39       1.0  0.7088144049901289  0.1591449579665181  0.6590522369069873  1.0000
  C   C40       1.0  0.291192442268347  0.3408577713192642  0.1590518829541026  1.0000
  N   N1        1.0  0.14695345689690242  0.8400111828865844  0.0960491533333396  1.0000
  N   N2        1.0  0.8530430600960346  0.6599919997561869  0.5960485861062992  1.0000
  N   N3        1.0  0.8530505085972424  0.15999198872486187  0.9039516883482435  1.0000
  N   N4        1.0  0.14693773198833784  0.34000550666704044  0.4039514894582581  1.0000
  Cl  Cl1       1.0  0.8406768315236094  0.5189904707885944  0.0689885961273546  1.0000
  Cl  Cl2       1.0  0.1593304601492704  0.9810094810058987  0.5689864031558756  1.0000
  Cl  Cl3       1.0  0.15933725415812464  0.48100899882822995  0.9310107133545813  1.0000
  Cl  Cl4       1.0  0.8406811760265499  0.018993713058584695  0.43101252326564315  1.0000
  Cl  Cl5       1.0  0.6260320232506377  0.7815097142112319  0.9761297383690106  1.0000
  Cl  Cl6       1.0  0.3739606924097887  0.7184924641207715  0.4761283277904624  1.0000
  Cl  Cl7       1.0  0.3739770023103689  0.21849160640946508  0.023869571106281698  1.0000
  Cl  Cl8       1.0  0.6260457225633335  0.2815069830495744  0.5238721308450707  1.0000
  O   O1        1.0  0.42387904573755714  0.7609424383072181  0.3017398771923823  1.0000
  O   O2        1.0  0.5761216772514431  0.7390562570558502  0.8017386458100474  1.0000
  O   O3        1.0  0.5761374626075837  0.23905237387785414  0.6982601984044833  1.0000
  O   O4        1.0  0.4238823687836872  0.2609497135046013  0.19826142976121017  1.0000
