data_image0
_chemical_formula_structural       Zn6P6H36C36N14O18
_chemical_formula_sum              "Zn6 P6 H36 C36 N14 O18"
_cell_length_a       8.533270047040627
_cell_length_b       15.50945703261853
_cell_length_c       15.715903353392477
_cell_angle_alpha    60.986464686772415
_cell_angle_beta     77.37430213708114
_cell_angle_gamma    88.94237730466314

_space_group_name_H-M_alt    "P 1"
_space_group_IT_number       1

loop_
  _space_group_symop_operation_xyz
  'x, y, z'

loop_
  _atom_site_type_symbol
  _atom_site_label
  _atom_site_symmetry_multiplicity
  _atom_site_fract_x
  _atom_site_fract_y
  _atom_site_fract_z
  _atom_site_occupancy
  Zn  Zn1       1.0  0.8005468760255923  0.45034650181899133  0.4623110198270409  1.0000
  Zn  Zn2       1.0  0.19945552287668997  0.5496526856941415  0.5376894218831652  1.0000
  Zn  Zn3       1.0  0.4095234200217632  0.31798279573244065  0.3520690360739565  1.0000
  Zn  Zn4       1.0  0.5904751077779196  0.6820149334847798  0.6479312895775634  1.0000
  Zn  Zn5       1.0  0.820252964460714  0.08513930061108248  0.5290764485261121  1.0000
  Zn  Zn6       1.0  0.17975086172158686  0.914861398167794  0.4709212036696045  1.0000
  P   P1        1.0  0.613132622886738  0.2620071568369085  0.5040488859668741  1.0000
  P   P2        1.0  0.38686975901958226  0.7379920508498047  0.4959502756718238  1.0000
  P   P3        1.0  0.19835319908795407  0.12417649276562057  0.46588917446462835  1.0000
  P   P4        1.0  0.8016517102048651  0.8758234535218605  0.5341093315162553  1.0000
  P   P5        1.0  0.1903060221031794  0.4389757707862784  0.4197615563471473  1.0000
  P   P6        1.0  0.8096931444634875  0.5610256540274747  0.5802376040790806  1.0000
  H   H1        1.0  0.38234102311537305  0.22613300119322596  0.6465330195076859  1.0000
  H   H2        1.0  0.6176596132211929  0.7738698844523385  0.35346655158283363  1.0000
  H   H3        1.0  0.4097085467776864  0.35162087619004717  0.5473651401879563  1.0000
  H   H4        1.0  0.5902966061247595  0.6483805624575468  0.4526320036527522  1.0000
  H   H5        1.0  0.09649336967930823  0.3065969180666315  0.5943533827974222  1.0000
  H   H6        1.0  0.9035076940048442  0.6934015396645777  0.4056469272320414  1.0000
  H   H7        1.0  0.04815645521929922  0.27651691917633064  0.5062908207683208  1.0000
  H   H8        1.0  0.9518469843036215  0.7234815662793396  0.49370727454826374  1.0000
  H   H9        1.0  0.1459290840298948  0.11683584286640067  0.6299796512423228  1.0000
  H   H10       1.0  0.854069830429168  0.8831640996740262  0.3700202312883221  1.0000
  H   H11       1.0  0.35229412437519864  0.1101401209129591  0.579165109639824  1.0000
  H   H12       1.0  0.6477083000210087  0.8898590363398217  0.42083725217766244  1.0000
  H   H13       1.0  0.4962438277289322  0.5572095498018114  0.3549688677973607  1.0000
  H   H14       1.0  0.5037588232809469  0.44279111998465487  0.6450308518084285  1.0000
  H   H15       1.0  0.5651282741598324  0.6719819537257411  0.14813579891583106  1.0000
  H   H16       1.0  0.43487676118679275  0.32801873369840717  0.8518623460128438  1.0000
  H   H17       1.0  0.9922239367883492  0.5565499548186851  0.24162782400060923  1.0000
  H   H18       1.0  0.007782602320091355  0.443452153090121  0.7583732917353885  1.0000
  H   H19       1.0  0.4877901099614235  0.47855392701269045  0.8914900834717372  1.0000
  H   H20       1.0  0.5122081742286329  0.5214423098444173  0.10851160431995767  1.0000
  H   H21       1.0  0.21314264252183793  0.4882953818526659  0.018292603564056265  1.0000
  H   H22       1.0  0.7868556331702408  0.5117008650912283  0.981708444191888  1.0000
  H   H23       1.0  0.3545098939218292  0.7679729835215241  0.7519599317395134  1.0000
  H   H24       1.0  0.64547823823235  0.2320203493664366  0.24804117850464993  1.0000
  H   H25       1.0  0.7411393491790149  0.11489894133516293  0.7240182501757886  1.0000
  H   H26       1.0  0.2588574160549583  0.885102486014489  0.2759812048560378  1.0000
  H   H27       1.0  0.7966051587527687  0.969538829336742  0.9071095659122645  1.0000
  H   H28       1.0  0.2033887862988948  0.0304670183763633  0.0928900848219811  1.0000
  H   H29       1.0  0.9274056548693396  0.878023394131354  0.687698757440508  1.0000
  H   H30       1.0  0.07258087476483871  0.1219743376785445  0.31230368127478403  1.0000
  H   H31       1.0  0.1151779883063639  0.8019823736474905  0.7795358478419063  1.0000
  H   H32       1.0  0.8848134190591496  0.19801615474800374  0.22046180039542654  1.0000
  H   H33       1.0  0.7399593039247208  0.7959951744962697  0.015917246699465985  1.0000
  H   H34       1.0  0.2600405760890396  0.20400326432931593  0.984084490704312  1.0000
  H   H35       1.0  0.06253748175809905  0.5667372123729848  0.08573017713165848  1.0000
  H   H36       1.0  0.9374642206930376  0.43326494095474993  0.9142689676725126  1.0000
  C   C1        1.0  0.40916986165788677  0.2741084265811509  0.5642315330794432  1.0000
  C   C2        1.0  0.5908328984098432  0.7258930045155482  0.4357665454026218  1.0000
  C   C3        1.0  0.1438084778020681  0.3098637695094695  0.5213526406044764  1.0000
  C   C4        1.0  0.8561941562118635  0.6901369204505698  0.47864579892979714  1.0000
  C   C5        1.0  0.24462284733391468  0.14853368167978687  0.561144516002571  1.0000
  C   C6        1.0  0.7553779727406109  0.8514632836913095  0.4388571561670673  1.0000
  C   C7        1.0  0.6109167274778712  0.5766883067683252  0.2997960271343275  1.0000
  C   C8        1.0  0.3890897521447272  0.423313871747979  0.7002006083513663  1.0000
  C   C9        1.0  0.6432735141363466  0.6336355758184952  0.19778221042536603  1.0000
  C   C10       1.0  0.35673016191407214  0.3663635196456241  0.8022238443038603  1.0000
  C   C11       1.0  0.8671022001789409  0.5713981060457415  0.24349663320347048  1.0000
  C   C12       1.0  0.13290086298425763  0.42860474680357197  0.7565045633887166  1.0000
  C   C13       1.0  0.41819092702127153  0.5403107276027515  0.882317077836049  1.0000
  C   C14       1.0  0.5818062655602815  0.4596862718325383  0.11768311613472095  1.0000
  C   C15       1.0  0.2826067736162088  0.5441048426875242  0.9454974292954289  1.0000
  C   C16       1.0  0.7173876224752858  0.45588995604723687  0.05450286236606428  1.0000
  C   C17       1.0  0.3531112400747959  0.6907222651682474  0.8071063033958269  1.0000
  C   C18       1.0  0.6468808060577018  0.3092799588237726  0.19289017961621371  1.0000
  C   C19       1.0  0.7872159288933601  0.043409520991794195  0.7453149810761912  1.0000
  C   C20       1.0  0.21277485000482  0.956591892524017  0.25468649054116105  1.0000
  C   C21       1.0  0.8121532489096878  0.9723872285287243  0.8355377022451268  1.0000
  C   C22       1.0  0.1878363038282203  0.027614216515388503  0.1644619965677592  1.0000
  C   C23       1.0  0.8865183168305393  0.9236424378103792  0.721762716013451  1.0000
  C   C24       1.0  0.11347753383659412  0.0763604327333951  0.2782387243597881  1.0000
  C   C25       1.0  0.1055341507857079  0.6805911753843856  0.9294322600406417  1.0000
  C   C26       1.0  0.8944607580189725  0.3194065778102484  0.07056722744776783  1.0000
  C   C27       1.0  0.05473358585128815  0.7667465655280596  0.8587130666020426  1.0000
  C   C28       1.0  0.9452616005549289  0.23325263967954873  0.14128761888922264  1.0000
  C   C29       1.0  0.9242653200661335  0.8079145569452847  0.8909606504318506  1.0000
  C   C30       1.0  0.07573184032519009  0.192089073640787  0.1090390015148657  1.0000
  C   C31       1.0  0.8421057459993904  0.7635433032321045  0.9916753522941305  1.0000
  C   C32       1.0  0.1578958558918799  0.23645807869861812  0.008326073669522309  1.0000
  C   C33       1.0  0.8924624554005973  0.676393061225596  0.06081952414997726  1.0000
  C   C34       1.0  0.1075417078690748  0.32360901895874866  0.9391838062988923  1.0000
  C   C35       1.0  0.024793242541960626  0.6344972269635465  0.030705537239000987  1.0000
  C   C36       1.0  0.975210735188071  0.36550418269163754  0.9692936740117801  1.0000
  N   N1        1.0  0.7514892073988406  0.5393978409145463  0.32659075965169376  1.0000
  N   N2        1.0  0.2485162231051419  0.46060504974601474  0.6734075821918636  1.0000
  N   N3        1.0  0.46043358896826464  0.6319222557918497  0.7971683332693543  1.0000
  N   N4        1.0  0.5395647787857029  0.3680747726358504  0.20282979329134324  1.0000
  N   N5        1.0  0.833466672462322  0.011517015157536994  0.6761412082974658  1.0000
  N   N6        1.0  0.16652866549162582  0.9884829009263713  0.32386103624885726  1.0000
  N   N7        1.0  0.8064795032631693  0.6296467052610736  0.1621082654162793  1.0000
  N   N8        1.0  0.19352595273474546  0.37035615513912745  0.8378919965345516  1.0000
  N   N9        1.0  0.24056637536990172  0.6406090804801323  0.8965639802666204  1.0000
  N   N10       1.0  0.7594269461090518  0.3593864606592446  0.10343609764545658  1.0000
  N   N11       1.0  0.8757209329689745  0.8964620638793762  0.8198187994113795  1.0000
  N   N12       1.0  0.12427358248003628  0.10354007688246722  0.1801825092811171  1.0000
  N   N13       1.0  0.2866717987657666  0.25499480939781444  0.5206153750318238  1.0000
  N   N14       1.0  0.7133344372472126  0.745005876758384  0.479382622594045  1.0000
  O   O1        1.0  0.6300550739900359  0.15033745267973594  0.5472574347283015  1.0000
  O   O2        1.0  0.3699498098088584  0.8496625238681048  0.45273915114530877  1.0000
  O   O3        1.0  0.7335891256931646  0.3097747148150916  0.5335605546603545  1.0000
  O   O4        1.0  0.26641423026583777  0.6902229790699934  0.4664411018872343  1.0000
  O   O5        1.0  0.6206816988248393  0.3172476789713626  0.3911326671141567  1.0000
  O   O6        1.0  0.37932145640025533  0.6827559553617563  0.6088656082827981  1.0000
  O   O7        1.0  0.20457682959798257  0.011739783575905001  0.5124563773621134  1.0000
  O   O8        1.0  0.7954289361916906  0.988257897686495  0.4875456246156278  1.0000
  O   O9        1.0  0.031134467992295405  0.15783362460473435  0.44629213418898667  1.0000
  O   O10       1.0  0.9688715244110497  0.8421655691913515  0.5537072255770638  1.0000
  O   O11       1.0  0.3306259533219844  0.18719295962888793  0.36980652794787267  1.0000
  O   O12       1.0  0.6693822053024048  0.8128047291844068  0.6301945393885049  1.0000
  O   O13       1.0  0.032278338882328214  0.4851484323251896  0.4030741460150794  1.0000
  O   O14       1.0  0.9677191143048064  0.5148500392966397  0.5969259658870315  1.0000
  O   O15       1.0  0.2928985265795774  0.49377122791126743  0.4525296483017485  1.0000
  O   O16       1.0  0.7071015970438097  0.5062287032744308  0.5474707269618619  1.0000
  O   O17       1.0  0.2876001396833132  0.4356292086529336  0.32672128638484577  1.0000
  O   O18       1.0  0.7123999669441191  0.5643707427063377  0.6732778088072422  1.0000
