data_image0
_chemical_formula_structural       H30Pb4C40N2O18
_chemical_formula_sum              "H30 Pb4 C40 N2 O18"
_cell_length_a       10.433349485988265
_cell_length_b       11.113966120727218
_cell_length_c       12.598684898655193
_cell_angle_alpha    112.37796455930855
_cell_angle_beta     102.08111209220624
_cell_angle_gamma    106.11693180709119

_space_group_name_H-M_alt    "P 1"
_space_group_IT_number       1

loop_
  _space_group_symop_operation_xyz
  'x, y, z'

loop_
  _atom_site_type_symbol
  _atom_site_label
  _atom_site_symmetry_multiplicity
  _atom_site_fract_x
  _atom_site_fract_y
  _atom_site_fract_z
  _atom_site_occupancy
  H   H1        1.0  0.5303171080081484  0.9805036550925121  0.8675096058896301  1.0000
  H   H2        1.0  0.46969234530551063  0.019507393904703504  0.132496676853016  1.0000
  H   H3        1.0  0.034633491500315486  0.7190728547573572  0.16678887567233863  1.0000
  H   H4        1.0  0.965379566662648  0.28092150936591764  0.8332029493360835  1.0000
  H   H5        1.0  0.9629872943598915  0.2745460980339942  0.9850359449214069  1.0000
  H   H6        1.0  0.03703033952459826  0.725447380099908  0.014960345792708624  1.0000
  H   H7        1.0  0.720818811614194  0.002818898438562206  0.6016178864236963  1.0000
  H   H8        1.0  0.27917562291121806  0.9971728361584268  0.3983769826120636  1.0000
  H   H9        1.0  0.022407131209405372  0.4818559437326754  0.36644656809160375  1.0000
  H   H10       1.0  0.9775843200640326  0.5181356831007022  0.6335445736759056  1.0000
  H   H11       1.0  0.30317567855499317  0.0160505752601523  0.5631773862637388  1.0000
  H   H12       1.0  0.6968289992382068  0.983963459076179  0.4368274765918727  1.0000
  H   H13       1.0  0.641783935605531  0.6771232317553314  0.6711280162996333  1.0000
  H   H14       1.0  0.35822016687958325  0.3228866101220618  0.3288777318907846  1.0000
  H   H15       1.0  0.7193546151976308  0.6093674431595987  0.763532289829925  1.0000
  H   H16       1.0  0.28064593250380904  0.3906381066555795  0.23647220727765722  1.0000
  H   H17       1.0  0.532509579705341  0.5264059518551748  0.6788369885086851  1.0000
  H   H18       1.0  0.46748737968272985  0.47360577600511533  0.32117053251069894  1.0000
  H   H19       1.0  0.7674268427558817  0.48362561645115687  0.34067501812543816  1.0000
  H   H20       1.0  0.23257650044295988  0.5163768952232884  0.6593321260084649  1.0000
  H   H21       1.0  0.6322000757943159  0.3343900285558731  0.32858158821233024  1.0000
  H   H22       1.0  0.3677969246762487  0.6656112455177734  0.6714248395136693  1.0000
  H   H23       1.0  0.8105954652627858  0.39249591533091893  0.42392247459074645  1.0000
  H   H24       1.0  0.18939699230077173  0.6075010443598786  0.576084111047372  1.0000
  H   H25       1.0  0.6626646666407154  0.2830981629621121  0.488163879736554  1.0000
  H   H26       1.0  0.337318052127344  0.7169016215025792  0.5118387858855584  1.0000
  H   H27       1.0  0.511190551997494  0.28972991139454507  0.531458993223758  1.0000
  H   H28       1.0  0.4887996789969904  0.7102795363905087  0.4685505723897663  1.0000
  H   H29       1.0  0.6805112093144245  0.3479732713035091  0.6450547620773222  1.0000
  H   H30       1.0  0.3194780437128841  0.6520309048266526  0.35495129104524636  1.0000
  Pb  Pb1       1.0  0.9502809872287659  0.8811027762250917  0.5922142080867658  1.0000
  Pb  Pb2       1.0  0.049702735025547895  0.11888124991614997  0.4077659206802053  1.0000
  Pb  Pb3       1.0  0.14473829034427152  0.10822715362903067  0.9546817213958718  1.0000
  Pb  Pb4       1.0  0.8552597084057896  0.8917688934310065  0.045318375849269794  1.0000
  C   C1        1.0  0.5069847394135607  0.0017512518447802049  0.5607038409511063  1.0000
  C   C2        1.0  0.49301800132725765  0.9982522799834542  0.43930195117570037  1.0000
  C   C3        1.0  0.29700388111250936  0.0215158012077481  0.7770014381047688  1.0000
  C   C4        1.0  0.7030018530364474  0.9784825890498469  0.22300315980439223  1.0000
  C   C5        1.0  0.5249470469324606  0.9886642926821524  0.7833914754175026  1.0000
  C   C6        1.0  0.4750576662786373  0.011339275627030103  0.21660990786878637  1.0000
  C   C7        1.0  0.023400744585586636  0.6179325861622119  0.1654675519540518  1.0000
  C   C8        1.0  0.9766152753440095  0.38206711057790693  0.8345281492566556  1.0000
  C   C9        1.0  0.0033988724551576987  0.4981275561412844  0.05884072850683712  1.0000
  C   C10       1.0  0.9966221378994009  0.5018670885513287  0.9411597101747303  1.0000
  C   C11       1.0  0.9870541413491125  0.37215768086234385  0.06634991287598514  1.0000
  C   C12       1.0  0.012954964320506681  0.6278365939783725  0.9336475481122407  1.0000
  C   C13       1.0  0.4083807561303914  0.004773264603066702  0.7212539642628926  1.0000
  C   C14       1.0  0.5916223721639398  0.9952313137797689  0.2787498622871921  1.0000
  C   C15       1.0  0.6290929926274844  0.9981137428319545  0.6306800107375565  1.0000
  C   C16       1.0  0.3709065808831795  0.0018865434886735  0.3693225647296999  1.0000
  C   C17       1.0  0.9825996705073976  0.2326318386179196  0.18405847182014407  1.0000
  C   C18       1.0  0.017401689607161992  0.767365342359483  0.8159394099899657  1.0000
  C   C19       1.0  0.0175753025690852  0.48683208415690865  0.2813229157505432  1.0000
  C   C20       1.0  0.9824323750120173  0.5131715511141974  0.7186742405508895  1.0000
  C   C21       1.0  0.996617103098153  0.36663786074911536  0.17662692167925084  1.0000
  C   C22       1.0  0.003387616492716486  0.6333604500654815  0.8233679492705122  1.0000
  C   C23       1.0  0.03733955226954317  0.7358931958046071  0.3860823607514234  1.0000
  C   C24       1.0  0.9626481330921097  0.2640962138352947  0.6139058032000622  1.0000
  C   C25       1.0  0.6364244036865331  0.9869999149211567  0.738532228828774  1.0000
  C   C26       1.0  0.36358248485499445  0.013006868414656501  0.2614721892614043  1.0000
  C   C27       1.0  0.39853305118670324  0.008428302783194393  0.6100581603133577  1.0000
  C   C28       1.0  0.6014698520469539  0.9915835916422823  0.3899472701388121  1.0000
  C   C29       1.0  0.028357002504335944  0.611931901151344  0.2751671613382101  1.0000
  C   C30       1.0  0.9716439455101595  0.3880641802292715  0.7248223455195912  1.0000
  C   C31       1.0  0.7614594716308221  0.9707299047693709  0.8078907907974654  1.0000
  C   C32       1.0  0.23854424968055107  0.029273633058835503  0.19211041063315554  1.0000
  C   C33       1.0  0.6369672857144907  0.5809622015417875  0.6774635376486985  1.0000
  C   C34       1.0  0.36302710323685267  0.4190452484165945  0.32253973244228723  1.0000
  C   C35       1.0  0.704351712697104  0.5308337490344853  0.4960965815037283  1.0000
  C   C36       1.0  0.295646671003091  0.469168610235073  0.5039096533518261  1.0000
  C   C37       1.0  0.7302149933263848  0.4290657265783581  0.3913405557176262  1.0000
  C   C38       1.0  0.26978299904390474  0.5709355779762647  0.6086660538640417  1.0000
  C   C39       1.0  0.6270128414781767  0.3437427099594217  0.5579302961394532  1.0000
  C   C40       1.0  0.3729764077727395  0.6562614580104056  0.4420741661324996  1.0000
  N   N1        1.0  0.6607075269708602  0.48680257641931474  0.5734666698096191  1.0000
  N   N2        1.0  0.3392888533327323  0.513204950821695  0.4265401456939486  1.0000
  O   O1        1.0  0.19442463902335308  0.0454209178688245  0.7242161819220954  1.0000
  O   O2        1.0  0.8055759795138896  0.9545636998920629  0.2757813560468422  1.0000
  O   O3        1.0  0.9667586071154731  0.12563760500487575  0.08509026112766092  1.0000
  O   O4        1.0  0.03324474246313967  0.8743596491749911  0.9149103706697161  1.0000
  O   O5        1.0  0.9868353770778883  0.23241220043686886  0.2844479551331176  1.0000
  O   O6        1.0  0.013166374366576876  0.7675860352554764  0.715549551950879  1.0000
  O   O7        1.0  0.05082622343491034  0.7227644752422718  0.4844795204043563  1.0000
  O   O8        1.0  0.9491622521393381  0.2772270601481779  0.5155110757961481  1.0000
  O   O9        1.0  0.02472680002149712  0.8426432842607309  0.37802596916589676  1.0000
  O   O10       1.0  0.9752589098086659  0.15734081100279704  0.6219561141630336  1.0000
  O   O11       1.0  0.3122834580397154  0.017917574445981202  0.8785814617504428  1.0000
  O   O12       1.0  0.6877189090801464  0.9820796696537499  0.12142296531781926  1.0000
  O   O13       1.0  0.7331932594361562  0.9043883126916585  0.8686673060446282  1.0000
  O   O14       1.0  0.26680889089099946  0.09561099403629211  0.1313330080145008  1.0000
  O   O15       1.0  0.8825977022803074  0.0218517371342415  0.7997379380830195  1.0000
  O   O16       1.0  0.11740127326390842  0.9781443077654256  0.20025597761531327  1.0000
  O   O17       1.0  0.72101355053605  0.6535527847522362  0.5095481247845158  1.0000
  O   O18       1.0  0.278987599623413  0.3464517449091531  0.490457724330156  1.0000
