data_image0
_chemical_formula_structural       Cu8H20C12S4N16Cl4
_chemical_formula_sum              "Cu8 H20 C12 S4 N16 Cl4"
_cell_length_a       6.952142898092317
_cell_length_b       6.952148017094096
_cell_length_c       17.168683183329684
_cell_angle_alpha    79.56809121041577
_cell_angle_beta     79.56825914759436
_cell_angle_gamma    74.2227349339155

_space_group_name_H-M_alt    "P 1"
_space_group_IT_number       1

loop_
  _space_group_symop_operation_xyz
  'x, y, z'

loop_
  _atom_site_type_symbol
  _atom_site_label
  _atom_site_symmetry_multiplicity
  _atom_site_fract_x
  _atom_site_fract_y
  _atom_site_fract_z
  _atom_site_occupancy
  Cu  Cu1       1.0  0.40717149191343094  0.8814583132014278  0.6861638364205118  1.0000
  Cu  Cu2       1.0  0.11854259716642446  0.5928273547600754  0.8138368087961252  1.0000
  Cu  Cu3       1.0  0.5928286108324557  0.11854353507930433  0.3138370101804853  1.0000
  Cu  Cu4       1.0  0.881458628371064  0.40716996522333204  0.18616428780324407  1.0000
  Cu  Cu5       1.0  0.5160990302827316  0.7569501183142364  0.49435518882246027  1.0000
  Cu  Cu6       1.0  0.2430507196675222  0.48390302081205067  0.005644931043058  1.0000
  Cu  Cu7       1.0  0.48390107219547934  0.24305172970179004  0.5056450753617411  1.0000
  Cu  Cu8       1.0  0.7569497570745511  0.5160973177715322  0.9943554164739368  1.0000
  H   H1        1.0  0.10213058046709024  0.1620433004394712  0.5636133931390075  1.0000
  H   H2        1.0  0.8379555628885527  0.897872669878133  0.9363861678766054  1.0000
  H   H3        1.0  0.8978698960073078  0.8379570378793989  0.43638637196119123  1.0000
  H   H4        1.0  0.16204453905429972  0.1021291776084752  0.06361293147401169  1.0000
  H   H5        1.0  0.9500994385124103  0.033191009597338506  0.6378503053147284  1.0000
  H   H6        1.0  0.9668072008072459  0.04990339200133321  0.8621487676252355  1.0000
  H   H7        1.0  0.049899575931803504  0.9668093278471022  0.3621501496320646  1.0000
  H   H8        1.0  0.03319290033255842  0.950098454691144  0.1378485844749946  1.0000
  H   H9        1.0  0.7404331840421535  0.3585707518473455  0.5723518746436367  1.0000
  H   H10       1.0  0.6414298784769202  0.25956820365681926  0.9276462165161162  1.0000
  H   H11       1.0  0.2595669187037403  0.6414310964333866  0.42764897195736035  1.0000
  H   H12       1.0  0.3585709714583061  0.740430624435483  0.07235188466649589  1.0000
  H   H13       1.0  0.8811299181046481  0.49847188626329614  0.6052681924712288  1.0000
  H   H14       1.0  0.5015284610315548  0.11887206398979801  0.8947292938622623  1.0000
  H   H15       1.0  0.11887164667142977  0.5015299628918726  0.39473196428316726  1.0000
  H   H16       1.0  0.49847092660580483  0.8811267629633618  0.1052689147501482  1.0000
  H   H17       1.0  0.7288245553855717  0.36214906342292624  0.6765544478465697  1.0000
  H   H18       1.0  0.6378513344905627  0.2711779623188734  0.8234435681221156  1.0000
  H   H19       1.0  0.27117663539431913  0.6378542954293991  0.3234462079918217  1.0000
  H   H20       1.0  0.3621491411807938  0.7288223752058728  0.17655444972770337  1.0000
  C   C1        1.0  0.2454108105778232  0.37557717080503766  0.6606936828405379  1.0000
  C   C2        1.0  0.6244247754918675  0.7545858809835126  0.8393055078654327  1.0000
  C   C3        1.0  0.7545882038663908  0.6244231666393958  0.33930677210626203  1.0000
  C   C4        1.0  0.3755779118081293  0.24541143960962591  0.16069431647053986  1.0000
  C   C5        1.0  0.002350959649973601  0.17241025257094833  0.6209503644679797  1.0000
  C   C6        1.0  0.8275899795547872  0.9976509011487881  0.8790485481754754  1.0000
  C   C7        1.0  0.9976480550619159  0.8275900851381977  0.37905067289561595  1.0000
  C   C8        1.0  0.17241049638425213  0.002349436640663801  0.1209500520911391  1.0000
  C   C9        1.0  0.828942547731927  0.359024740970277  0.6191455598009412  1.0000
  C   C10       1.0  0.6409751314141304  0.1710587105597483  0.8808526504127128  1.0000
  C   C11       1.0  0.17105976557188282  0.640974089320011  0.380854763619041  1.0000
  C   C12       1.0  0.3590242564909047  0.8289401166581172  0.11914614061650039  1.0000
  S   S1        1.0  0.1566083886716143  0.16078389069686952  0.6983107841526318  1.0000
  S   S2        1.0  0.8392180976826822  0.8433896902453101  0.8016883787598841  1.0000
  S   S3        1.0  0.8433917138065967  0.8392179573191499  0.30168948003156254  1.0000
  S   S4        1.0  0.16078312705176506  0.1566076289439735  0.19831097058909813  1.0000
  N   N1        1.0  0.23437213050510056  0.5218549512231904  0.7043179512944773  1.0000
  N   N2        1.0  0.4781469861055854  0.765625606980379  0.7956816494232227  1.0000
  N   N3        1.0  0.7656287205008426  0.4781438779279485  0.29568247955531035  1.0000
  N   N4        1.0  0.5218538649003578  0.23437322217075976  0.20431878142655785  1.0000
  N   N5        1.0  0.3133022992175826  0.6617781496290362  0.6536191788584842  1.0000
  N   N6        1.0  0.3382225327737488  0.6866960540442832  0.8463804314336584  1.0000
  N   N7        1.0  0.6866996400900406  0.3382221903584012  0.34638164364549334  1.0000
  N   N8        1.0  0.6617746451087356  0.31330579169344486  0.15362004761015408  1.0000
  N   N9        1.0  0.3664969826957076  0.6048400253705709  0.5817219092138683  1.0000
  N   N10       1.0  0.3951612855483759  0.6335010635252729  0.9182783273669343  1.0000
  N   N11       1.0  0.6335049563442327  0.395160314352154  0.4182783308733135  1.0000
  N   N12       1.0  0.6048395657252498  0.3664977658905713  0.081722685899642  1.0000
  N   N13       1.0  0.32927893702800765  0.4222144390174165  0.5845520416490968  1.0000
  N   N14       1.0  0.5777873378836774  0.670719137868865  0.9154482476490031  1.0000
  N   N15       1.0  0.6707211654502032  0.5777874089986099  0.41544822253510444  1.0000
  N   N16       1.0  0.42221351312226574  0.3292796912822738  0.08455218320078468  1.0000
  Cl  Cl1       1.0  0.6501111437287079  0.9331823638588194  0.5755830157710874  1.0000
  Cl  Cl2       1.0  0.06681442509395202  0.34988719404925217  0.924416921518741  1.0000
  Cl  Cl3       1.0  0.3498893327456899  0.0668179744600508  0.42441674932910434  1.0000
  Cl  Cl4       1.0  0.9331831267847193  0.6501131419913265  0.0755830584410688  1.0000
