data_image0
_chemical_formula_structural       Cd4H36Ru2C72N12O24
_chemical_formula_sum              "Cd4 H36 Ru2 C72 N12 O24"
_cell_length_a       12.672595272029312
_cell_length_b       12.671593358685971
_cell_length_c       22.82987921205532
_cell_angle_alpha    99.96791579762407
_cell_angle_beta     104.25461694067974
_cell_angle_gamma    104.15777184771018

_space_group_name_H-M_alt    "P 1"
_space_group_IT_number       1

loop_
  _space_group_symop_operation_xyz
  'x, y, z'

loop_
  _atom_site_type_symbol
  _atom_site_label
  _atom_site_symmetry_multiplicity
  _atom_site_fract_x
  _atom_site_fract_y
  _atom_site_fract_z
  _atom_site_occupancy
  Cd  Cd1       1.0  0.5587522473394984  0.1408170548288865  0.5440182303163397  1.0000
  Cd  Cd2       1.0  0.596745549428377  0.5147318614569157  0.9560199254677358  1.0000
  Cd  Cd3       1.0  0.44124670841081587  0.8592161483306595  0.45598983881470184  1.0000
  Cd  Cd4       1.0  0.4032454772590057  0.4852782224362283  0.043970954555398116  1.0000
  H   H1        1.0  0.9270162644601784  0.4280829986419121  0.27312251876325894  1.0000
  H   H2        1.0  0.15497947978349916  0.1538315927199392  0.22700533059506262  1.0000
  H   H3        1.0  0.07298943018889066  0.5719272865950557  0.726884694027575  1.0000
  H   H4        1.0  0.8450168492152059  0.8461806752504939  0.7729958870900758  1.0000
  H   H5        1.0  0.07108680668143569  0.6141343272937475  0.3346378014314197  1.0000
  H   H6        1.0  0.27953757022654463  0.23644154021861394  0.1655135842468667  1.0000
  H   H7        1.0  0.9289173729136097  0.38587781023595363  0.6653704192137937  1.0000
  H   H8        1.0  0.7204625104858453  0.7635562006555503  0.8344896818505988  1.0000
  H   H9        1.0  0.2940826297462849  0.4360995295003958  0.41324121855447515  1.0000
  H   H10       1.0  0.023062477485865405  0.38101193039720715  0.0869821785362319  1.0000
  H   H11       1.0  0.705917315008719  0.5638947747524623  0.5867677841030314  1.0000
  H   H12       1.0  0.9769446060879688  0.6189934083952408  0.9130171792682306  1.0000
  H   H13       1.0  0.30085189555542513  0.2717746891249391  0.4245919898090946  1.0000
  H   H14       1.0  0.8473729602099169  0.3764847612794995  0.07560099272192387  1.0000
  H   H15       1.0  0.6991397133768797  0.7282231915624419  0.5754128883718436  1.0000
  H   H16       1.0  0.15262664208274423  0.6235123137357801  0.9243967569057148  1.0000
  H   H17       1.0  0.1508832235030085  0.9190085330869023  0.34103104081045643  1.0000
  H   H18       1.0  0.5780501057444809  0.30984855197154093  0.15903558756670577  1.0000
  H   H19       1.0  0.8491083685955092  0.08099205840121479  0.6589671075560801  1.0000
  H   H20       1.0  0.4219331817420268  0.6901316609479621  0.8409483587550283  1.0000
  H   H21       1.0  0.9846781746759136  0.9620565975222347  0.2729571645679485  1.0000
  H   H22       1.0  0.689162588178327  0.21185387163594524  0.22713548496543012  1.0000
  H   H23       1.0  0.01531567638632229  0.037947282378780665  0.7270424055092944  1.0000
  H   H24       1.0  0.31082560583333685  0.7881360327857008  0.7728592537436825  1.0000
  H   H25       1.0  0.8904356234653579  0.2814292432031992  0.3727995418757929  1.0000
  H   H26       1.0  0.9086724453580929  0.0177604714843157  0.12734790629800585  1.0000
  H   H27       1.0  0.10957367331862143  0.7185669883148619  0.6272045329653224  1.0000
  H   H28       1.0  0.09133647928013758  0.9822364448051883  0.8726549581295515  1.0000
  H   H29       1.0  0.7662595717604007  0.21164537320173338  0.43773697763778324  1.0000
  H   H30       1.0  0.7740278060744998  0.8286798789502822  0.06238612545060112  1.0000
  H   H31       1.0  0.2337555622908881  0.7883501707879925  0.5622670504722507  1.0000
  H   H32       1.0  0.22598464958647213  0.17132670670481073  0.9376186008130176  1.0000
  H   H33       1.0  0.619224021794608  0.9000181132738516  0.298264270122246  1.0000
  H   H34       1.0  0.6016211823052872  0.8211528150380542  0.201747822642325  1.0000
  H   H35       1.0  0.3807786932396626  0.09998343043969994  0.7017374349918201  1.0000
  H   H36       1.0  0.3983775227137799  0.17884815882381835  0.7982465172728225  1.0000
  Ru  Ru1       1.0  0.9293983245294514  0.17944552970875094  0.2500859921813187  1.0000
  Ru  Ru2       1.0  0.07060189214033157  0.8205556477867189  0.7499115373561054  1.0000
  C   C1        1.0  0.008687048536693071  0.43281828303170755  0.30486810529695424  1.0000
  C   C2        1.0  0.12795343275424642  0.20377741865431176  0.1952678996987487  1.0000
  C   C3        1.0  0.9913156197894608  0.5671871406158642  0.6951369169879981  1.0000
  C   C4        1.0  0.8720450926208159  0.7962284528424772  0.8047313052086409  1.0000
  C   C5        1.0  0.08794672780992133  0.5350876005563022  0.3387929298458303  1.0000
  C   C6        1.0  0.19635829943728572  0.24919072412090051  0.1613778777417494  1.0000
  C   C7        1.0  0.9120548840266453  0.46491859772144273  0.6612160756876121  1.0000
  C   C8        1.0  0.803645116583688  0.7508112740574473  0.8386253678936555  1.0000
  C   C9        1.0  0.1930938949125008  0.5368427982615458  0.37761228324402657  1.0000
  C   C10       1.0  0.15935942534790837  0.31559471616488105  0.12257879797346051  1.0000
  C   C11       1.0  0.8069090128144226  0.4631597031912093  0.6223954929068468  1.0000
  C   C12       1.0  0.8406462694920693  0.6844123139478171  0.8774284104483812  1.0000
  C   C13       1.0  0.21218925019725532  0.43462443998851785  0.3829841405986087  1.0000
  C   C14       1.0  0.05179590798751829  0.32936547160316093  0.11723998144251618  1.0000
  C   C15       1.0  0.7878150396478106  0.5653772268723855  0.6170241755192335  1.0000
  C   C16       1.0  0.9482045045873236  0.6706378628294373  0.8827594260240447  1.0000
  C   C17       1.0  0.12874387139942908  0.33392896225400637  0.34840380716450164  1.0000
  C   C18       1.0  0.9856514158898974  0.28049546230484157  0.15180625825073693  1.0000
  C   C19       1.0  0.8712534414824662  0.666075758854454  0.6516025808446885  1.0000
  C   C20       1.0  0.014348272248724883  0.7195109851921084  0.8481932694644242  1.0000
  C   C21       1.0  0.14025716302452207  0.22211923481251725  0.35009608593146885  1.0000
  C   C22       1.0  0.8721855328288369  0.2904057691623975  0.15008830913435384  1.0000
  C   C23       1.0  0.8597328013211865  0.7778794599421484  0.6499071504485342  1.0000
  C   C24       1.0  0.12781628152851737  0.7096017293240704  0.8499141837438843  1.0000
  C   C25       1.0  0.23205321505125917  0.20299500558703434  0.39038163551879274  1.0000
  C   C26       1.0  0.812748368751592  0.3419211299490499  0.10979969614201213  1.0000
  C   C27       1.0  0.7679357826268574  0.7970020149803431  0.6096231516135832  1.0000
  C   C28       1.0  0.18725013734091794  0.6580732326534925  0.8901969545826843  1.0000
  C   C29       1.0  0.23744592140946005  0.0936610333701466  0.38687892327957474  1.0000
  C   C30       1.0  0.7068835350585728  0.3507484540317235  0.11324303475200986  1.0000
  C   C31       1.0  0.762542199232172  0.9063351193167435  0.6131249864780415  1.0000
  C   C32       1.0  0.2931133729645414  0.6492460978283389  0.8867486613698575  1.0000
  C   C33       1.0  0.14756201516365766  0.004899748038091934  0.3441805135961715  1.0000
  C   C34       1.0  0.6608342103740128  0.3035054286791095  0.15593268695267426  1.0000
  C   C35       1.0  0.8524265903225087  0.9950994689035396  0.6558205264159156  1.0000
  C   C36       1.0  0.3391552827404213  0.6964819781154784  0.8440566292661912  1.0000
  C   C37       1.0  0.05669099160870422  0.028437465180530773  0.3065867287547944  1.0000
  C   C38       1.0  0.7219829596106494  0.2502848475408896  0.1935511131569427  1.0000
  C   C39       1.0  0.9432996105636281  0.971561764525184  0.6934146267650548  1.0000
  C   C40       1.0  0.2780055865005696  0.7497058837121173  0.8064422992589969  1.0000
  C   C41       1.0  0.2857550028848906  0.6466295584113408  0.41021916201258796  1.0000
  C   C42       1.0  0.2366214606232191  0.3755077283937069  0.08992207788797656  1.0000
  C   C43       1.0  0.7142419777527352  0.35337607938720345  0.5897910933654842  1.0000
  C   C44       1.0  0.7633828330069791  0.6244853722923407  0.9100820320152181  1.0000
  C   C45       1.0  0.3389241927458572  0.07059364918345071  0.4276395484852458  1.0000
  C   C46       1.0  0.6429467025928233  0.41128909083083426  0.0723819116329025  1.0000
  C   C47       1.0  0.6610664962269795  0.9293986773826075  0.5723635632771717  1.0000
  C   C48       1.0  0.35704670068763994  0.5886999335809617  0.9276020775132635  1.0000
  C   C49       1.0  0.8289510446662192  0.19783419915530231  0.3576925794382221  1.0000
  C   C50       1.0  0.8402345217297976  0.9713770670564582  0.14248416588070967  1.0000
  C   C51       1.0  0.1710615479066888  0.8021595474997764  0.6423063884204082  1.0000
  C   C52       1.0  0.15977122322161125  0.02862402719587465  0.8575155278935682  1.0000
  C   C53       1.0  0.7608776533976779  0.15932742785184925  0.39325334505758747  1.0000
  C   C54       1.0  0.7661778528002754  0.8677473985716373  0.10687976175835705  1.0000
  C   C55       1.0  0.23913364328487324  0.8406700156282194  0.6067468521836119  1.0000
  C   C56       1.0  0.23383693198204034  0.1322550280331783  0.8931214082751496  1.0000
  C   C57       1.0  0.684452501516866  0.05042530127185791  0.3720136943734503  1.0000
  C   C58       1.0  0.6783733303067763  0.8126037079578906  0.12804484388906448  1.0000
  C   C59       1.0  0.3155566422850314  0.9495734595499028  0.6279893915822897  1.0000
  C   C60       1.0  0.32163865033778216  0.18740015591198037  0.8719501684280644  1.0000
  C   C61       1.0  0.6780155611709375  0.9850417351154801  0.31473647413115924  1.0000
  C   C62       1.0  0.6701879326069147  0.863488652086218  0.18530088262583186  1.0000
  C   C63       1.0  0.3219886458496646  0.014955013585947148  0.6852658751604749  1.0000
  C   C64       1.0  0.32981586217554354  0.13651180459228127  0.8146951828387898  1.0000
  C   C65       1.0  0.7475408888323899  0.02846154781791912  0.2803061430517885  1.0000
  C   C66       1.0  0.7480299190516604  0.9674445462366277  0.21977645765838358  1.0000
  C   C67       1.0  0.25245789939295815  0.9715378339548973  0.7196941549515828  1.0000
  C   C68       1.0  0.2519676629144244  0.03255933866798706  0.7802226416004245  1.0000
  C   C69       1.0  0.6120575731388558  0.005938853629736243  0.41137535217764315  1.0000
  C   C70       1.0  0.5946286481180892  0.7007691432180819  0.08862614188402773  1.0000
  C   C71       1.0  0.3879443276371861  0.9940682519656079  0.5886289056811408  1.0000
  C   C72       1.0  0.4053884489517757  0.2992318351371991  0.9113647421049648  1.0000
  N   N1        1.0  0.028432686093843543  0.33354912539618903  0.30827669438987476  1.0000
  N   N2        1.0  0.02533218082388087  0.22022903179530565  0.19190889249035334  1.0000
  N   N3        1.0  0.9715678560135789  0.6664552472618651  0.6917253627320009  1.0000
  N   N4        1.0  0.9746674208960542  0.7797778085927616  0.808088870244262  1.0000
  N   N5        1.0  0.05289860260300126  0.13469216492721606  0.3082062234631806  1.0000
  N   N6        1.0  0.8266410620868002  0.24492677014053033  0.19197164784056747  1.0000
  N   N7        1.0  0.9470972685949023  0.8653081602087339  0.6917920013518923  1.0000
  N   N8        1.0  0.17335393207461194  0.7550726871149323  0.8080256995997389  1.0000
  N   N9        1.0  0.8237665052619293  0.13442398977912262  0.30228940811488775  1.0000
  N   N10       1.0  0.8321168007080004  0.021641583195737744  0.19784363406553504  1.0000
  N   N11       1.0  0.17623456877996108  0.8655730569511134  0.6977064533525876  1.0000
  N   N12       1.0  0.16788236287550976  0.9783583130035607  0.8021536812437162  1.0000
  O   O1        1.0  0.25964802652313074  0.7358694151423106  0.403239934133083  1.0000
  O   O2        1.0  0.33271787736337904  0.3561876828028047  0.09682471614281242  1.0000
  O   O3        1.0  0.7403579538530068  0.26414057821433096  0.5967667240907631  1.0000
  O   O4        1.0  0.6672864361220974  0.6438071614046945  0.9031819348360983  1.0000
  O   O5        1.0  0.382485832070664  0.6439825734631482  0.4403717118167734  1.0000
  O   O6        1.0  0.2039449248191758  0.4421826503920768  0.0597854785576786  1.0000
  O   O7        1.0  0.6175078796308641  0.35601992574289903  0.559637792297174  1.0000
  O   O8        1.0  0.7960500973405191  0.5577916526623313  0.9402059844220788  1.0000
  O   O9        1.0  0.4006226298584821  0.150004460420817  0.4749228784180984  1.0000
  O   O10       1.0  0.6749415601266264  0.4254733153254404  0.025035085284585524  1.0000
  O   O11       1.0  0.5993729989171541  0.849994332587755  0.5250767812697389  1.0000
  O   O12       1.0  0.32505166653133005  0.5745250610434594  0.9749495801151298  1.0000
  O   O13       1.0  0.350055528739212  0.9754990697143169  0.4091997516048096  1.0000
  O   O14       1.0  0.5663597173051258  0.4409859949714913  0.09081809790053802  1.0000
  O   O15       1.0  0.6499439141465473  0.024498136208805588  0.5908053953528097  1.0000
  O   O16       1.0  0.43361870393952995  0.5589782481159842  0.9091601250782801  1.0000
  O   O17       1.0  0.5520742989285241  0.9035107660559518  0.39196233676611314  1.0000
  O   O18       1.0  0.5115446362675443  0.6601534495755812  0.1079642144773842  1.0000
  O   O19       1.0  0.4479328476144887  0.09649774737451376  0.6080404467888414  1.0000
  O   O20       1.0  0.48847461027966  0.33984826736434565  0.892027978273731  1.0000
  O   O21       1.0  0.6203628041578285  0.07646435061187874  0.4600441261314216  1.0000
  O   O22       1.0  0.6166917237642764  0.660442374088987  0.04001798283947273  1.0000
  O   O23       1.0  0.3796321629598438  0.9235439852233326  0.5399590839244864  1.0000
  O   O24       1.0  0.38332410086474794  0.33955873356213573  0.9599724697621427  1.0000
