data_image0
_chemical_formula_structural       Cd8H32C48N8Cl8O16
_chemical_formula_sum              "Cd8 H32 C48 N8 Cl8 O16"
_cell_length_a       9.927314103004777
_cell_length_b       9.92729980600258
_cell_length_c       15.811329377011047
_cell_angle_alpha    89.99992078581118
_cell_angle_beta     89.99989002193107
_cell_angle_gamma    90.00002311495152

_space_group_name_H-M_alt    "P 1"
_space_group_IT_number       1

loop_
  _space_group_symop_operation_xyz
  'x, y, z'

loop_
  _atom_site_type_symbol
  _atom_site_label
  _atom_site_symmetry_multiplicity
  _atom_site_fract_x
  _atom_site_fract_y
  _atom_site_fract_z
  _atom_site_occupancy
  Cd  Cd1       1.0  0.5677111778229005  0.25784541500915015  0.21975589373078463  1.0000
  Cd  Cd2       1.0  0.7421543369774781  0.0677116277459078  0.719755574673222  1.0000
  Cd  Cd3       1.0  0.7578444549586791  0.43228911630432515  0.7197560392657751  1.0000
  Cd  Cd4       1.0  0.9322891423212525  0.2421554215137148  0.21975568080512892  1.0000
  Cd  Cd5       1.0  0.4322890968745483  0.7421557212519402  0.7802437408976317  1.0000
  Cd  Cd6       1.0  0.2578449303981571  0.9322895085149764  0.2802440599557984  1.0000
  Cd  Cd7       1.0  0.24215481241675002  0.5677110126333033  0.2802435953636859  1.0000
  Cd  Cd8       1.0  0.0677111323759902  0.7578447074241195  0.7802439538237281  1.0000
  H   H1        1.0  0.2831466986324073  0.46720055447126885  0.9702931186963255  1.0000
  H   H2        1.0  0.5328011562242237  0.7831470878302722  0.4702918625552855  1.0000
  H   H3        1.0  0.9671996070627173  0.7168532171567035  0.4702928944496492  1.0000
  H   H4        1.0  0.21685375550596578  0.03280044395579299  0.9702927149415645  1.0000
  H   H5        1.0  0.7168525687422614  0.5328005817889262  0.02970714839059241  1.0000
  H   H6        1.0  0.4671991184728128  0.21685203378429915  0.529707772074005  1.0000
  H   H7        1.0  0.032800667633559  0.28314691178043455  0.5297073726370912  1.0000
  H   H8        1.0  0.7831475265130835  0.9671996849822403  0.0297069196866815  1.0000
  H   H9        1.0  0.3835204307887139  0.3364028039953481  0.8497649826653773  1.0000
  H   H10       1.0  0.6635980682494349  0.8835229803197245  0.3497642402005781  1.0000
  H   H11       1.0  0.8364030634210947  0.6164796044257556  0.3497648845332719  1.0000
  H   H12       1.0  0.1164793844117966  0.16359745222092667  0.849764586245449  1.0000
  H   H13       1.0  0.6164798439083228  0.6635963176192304  0.1502346519639133  1.0000
  H   H14       1.0  0.3364022064468344  0.11647714861741318  0.6502360268861624  1.0000
  H   H15       1.0  0.1635972112761479  0.3835205245120789  0.6502347500955851  1.0000
  H   H16       1.0  0.8835208902854459  0.8364026767169006  0.15023504838340074  1.0000
  H   H17       1.0  0.5537335533090086  0.1552447793525217  0.883104343945867  1.0000
  H   H18       1.0  0.8447566188030393  0.05373540847782719  0.3831045091704013  1.0000
  H   H19       1.0  0.655244209400756  0.4462670833906372  0.3831050852991069  1.0000
  H   H20       1.0  0.9462667540089598  0.3447545980744308  0.8831046574695451  1.0000
  H   H21       1.0  0.44626672138844004  0.8447563569085688  0.11689529068254963  1.0000
  H   H22       1.0  0.1552426485723899  0.9462647204598084  0.6168951254590597  1.0000
  H   H23       1.0  0.34475606529552033  0.5537330455465009  0.6168951817876405  1.0000
  H   H24       1.0  0.05373352068711061  0.6552445235394442  0.1168956096176359  1.0000
  H   H25       1.0  0.6183353980611342  0.11742678165876437  0.0341055004094812  1.0000
  H   H26       1.0  0.8825732764137298  0.11833589800532  0.5341056766797507  1.0000
  H   H27       1.0  0.6174270902678458  0.38166323975303124  0.534105722076589  1.0000
  H   H28       1.0  0.8816634748639702  0.3825724485722971  0.0341052264877106  1.0000
  H   H29       1.0  0.3816638693133285  0.8825733472781676  0.9658947666778772  1.0000
  H   H30       1.0  0.11742599096074002  0.8816642309316122  0.4658945904076006  1.0000
  H   H31       1.0  0.3825731844291909  0.6183358818615401  0.4658939125527014  1.0000
  H   H32       1.0  0.11833579251126025  0.6174266730420682  0.965894408142191  1.0000
  C   C1        1.0  0.3987825622899521  0.3608272312698658  0.0637640072305174  1.0000
  C   C2        1.0  0.6391722050675454  0.8987836874172286  0.5637633320707067  1.0000
  C   C3        1.0  0.8608262578890873  0.6012184266172368  0.5637639602222039  1.0000
  C   C4        1.0  0.1012186479334858  0.1391727391801609  0.0637642828904816  1.0000
  C   C5        1.0  0.6012177124065232  0.6391739049905352  0.9362362598557895  1.0000
  C   C6        1.0  0.3608280696285248  0.10121543419664647  0.4362369350164742  1.0000
  C   C7        1.0  0.13917401680815536  0.3987817023205976  0.4362356744066532  1.0000
  C   C8        1.0  0.8987816267625844  0.8608263824337142  0.9362359841967063  1.0000
  C   C9        1.0  0.3573661367404455  0.3886394162445441  0.9813769326012292  1.0000
  C   C10       1.0  0.611360167480477  0.8573666692691899  0.4813756074615867  1.0000
  C   C11       1.0  0.8886395546078774  0.6426336113376934  0.4813767985533063  1.0000
  C   C12       1.0  0.14263529084276166  0.11136055047957427  0.9813765500458373  1.0000
  C   C13       1.0  0.6426331306340244  0.611360712692395  0.0186233344861222  1.0000
  C   C14       1.0  0.3886390998945544  0.14263144502191946  0.5186240271687552  1.0000
  C   C15       1.0  0.111360720088598  0.3573675249227008  0.5186234685330008  1.0000
  C   C16       1.0  0.8573669984981009  0.8886395784586654  0.018623084581804502  1.0000
  C   C17       1.0  0.4130328414559301  0.31513310778862536  0.914810738170644  1.0000
  C   C18       1.0  0.6848665674681483  0.9130344626137936  0.4148099786103715  1.0000
  C   C19       1.0  0.8151333580734387  0.5869669717340997  0.41481067422810725  1.0000
  C   C20       1.0  0.08696778225828439  0.18486599802977818  0.9148109913014795  1.0000
  C   C21       1.0  0.5869654185965203  0.6848660138248518  0.08518952891775201  1.0000
  C   C22       1.0  0.3151326999070818  0.08696465900057859  0.5851896560195301  1.0000
  C   C23       1.0  0.18486590930219654  0.41303416452679176  0.5851889604009202  1.0000
  C   C24       1.0  0.9130345070816047  0.8151341309077651  0.08518927578404602  1.0000
  C   C25       1.0  0.5072546539515415  0.21506662181817393  0.9327244621067835  1.0000
  C   C26       1.0  0.7849347133379396  0.007256439306644298  0.4327246815611262  1.0000
  C   C27       1.0  0.7150669705277294  0.4927449360947662  0.4327251451865096  1.0000
  C   C28       1.0  0.9927444943850927  0.2849336537878385  0.9327247715871041  1.0000
  C   C29       1.0  0.4927446134240938  0.7849345144427174  0.067275172522244  1.0000
  C   C30       1.0  0.2150645540365232  0.9927436896302947  0.5672755855262253  1.0000
  C   C31       1.0  0.28493431149131954  0.5072551928432671  0.5672744894417362  1.0000
  C   C32       1.0  0.0072547729901373  0.7150654678265268  0.0672748630427975  1.0000
  C   C33       1.0  0.5440857493541315  0.19351797012181746  0.016770473821139806  1.0000
  C   C34       1.0  0.8064812058155721  0.044086104242367696  0.5167700840669553  1.0000
  C   C35       1.0  0.6935171992066457  0.4559140789695419  0.5167706056732371  1.0000
  C   C36       1.0  0.9559141838760822  0.30648230556272427  0.016770176515969102  1.0000
  C   C37       1.0  0.45591351802053726  0.8064831661383777  0.9832297932657783  1.0000
  C   C38       1.0  0.1935180615596579  0.9559130173720045  0.4832295505629461  1.0000
  C   C39       1.0  0.3064830754905969  0.5440860499682926  0.4832290289556198  1.0000
  C   C40       1.0  0.0440860908209615  0.6935168160518543  0.9832294581133284  1.0000
  C   C41       1.0  0.3425406656053482  0.43708755293012286  0.13803290544125704  1.0000
  C   C42       1.0  0.5629117753652649  0.8425417107858874  0.6380329323772076  1.0000
  C   C43       1.0  0.9370874679153403  0.6574592325635747  0.6380327872674771  1.0000
  C   C44       1.0  0.1574593102996147  0.06291225415844787  0.138033179574407  1.0000
  C   C45       1.0  0.6574586017700809  0.5629125760075055  0.8619667291882112  1.0000
  C   C46       1.0  0.43708849933101124  0.1574584181512506  0.3619673347095329  1.0000
  C   C47       1.0  0.0629128067819025  0.3425408963742598  0.36196684736137297  1.0000
  C   C48       1.0  0.8425409643976209  0.9370878747793865  0.8619664550544428  1.0000
  N   N1        1.0  0.4916434855195462  0.265135551104315  0.0806202604956567  1.0000
  N   N2        1.0  0.7348647479076078  0.9916437828859938  0.5806195017036586  1.0000
  N   N3        1.0  0.765135678172463  0.5083562794254561  0.5806203259040074  1.0000
  N   N4        1.0  0.008356665863281902  0.23486438226930062  0.0806199324831525  1.0000
  N   N5        1.0  0.5083567891767302  0.7348645778328232  0.9193800065910906  1.0000
  N   N6        1.0  0.26513552678866864  0.008356346051144199  0.41938076538308894  1.0000
  N   N7        1.0  0.2348645965245737  0.49164284218912246  0.41937930872528284  1.0000
  N   N8        1.0  0.9916436088339607  0.7651357466685339  0.9193797021456974  1.0000
  Cl  Cl1       1.0  0.7416595173549182  0.06502263821885627  0.20722751434458792  1.0000
  Cl  Cl2       1.0  0.9349779464925447  0.24165928289324498  0.7072276570069534  1.0000
  Cl  Cl3       1.0  0.5650218910570927  0.25834048139120813  0.7072272402855971  1.0000
  Cl  Cl4       1.0  0.7583408410811145  0.434978225861279  0.2072273435450427  1.0000
  Cl  Cl5       1.0  0.2583407573413509  0.9349774907182816  0.7927727527421597  1.0000
  Cl  Cl6       1.0  0.06502232820373169  0.758340846043893  0.29277261007979405  1.0000
  Cl  Cl7       1.0  0.43497838364014285  0.7416596475466262  0.2927723943432596  1.0000
  Cl  Cl8       1.0  0.2416594336163342  0.5650229103998112  0.792772291083381  1.0000
  O   O1        1.0  0.24876508332357614  0.520957281042662  0.1267169889716371  1.0000
  O   O2        1.0  0.4790421599457773  0.7487639401217263  0.6267164546666423  1.0000
  O   O3        1.0  0.02095753122574  0.7512348116048881  0.626716729695481  1.0000
  O   O4        1.0  0.2512351287324037  0.9790425704782421  0.126717420903347  1.0000
  O   O5        1.0  0.7512351913736665  0.4790428478951653  0.8732826456572198  1.0000
  O   O6        1.0  0.520957107429652  0.2512361888159019  0.3732831799628259  1.0000
  O   O7        1.0  0.9790427434712969  0.24876431000969024  0.3732829049338093  1.0000
  O   O8        1.0  0.7487641386420663  0.020957558458690094  0.8732828461840043  1.0000
  O   O9        1.0  0.3925419882911925  0.41347280288181315  0.21165224875934294  1.0000
  O   O10       1.0  0.5865273254273687  0.8925421392263215  0.7116516271552769  1.0000
  O   O11       1.0  0.9134727001645898  0.6074586421915027  0.7116521864209774  1.0000
  O   O12       1.0  0.10745776260352363  0.0865278495981769  0.21165193018806155  1.0000
  O   O13       1.0  0.6074582864050838  0.5865273260553251  0.7883480183274046  1.0000
  O   O14       1.0  0.41347194194826636  0.10745899703456976  0.2883480074737507  1.0000
  O   O15       1.0  0.0865275745316865  0.39254148674563527  0.288348080665763  1.0000
  O   O16       1.0  0.8925415047719056  0.9134722793394515  0.7883477044414064  1.0000
