data_image0
_chemical_formula_structural       Tb6H60C126N6O36
_chemical_formula_sum              "Tb6 H60 C126 N6 O36"
_cell_length_a       15.427463649991845
_cell_length_b       15.427453488516718
_cell_length_c       19.31733808200021
_cell_angle_alpha    90.00001674147124
_cell_angle_beta     89.99998921867954
_cell_angle_gamma    119.99991834950652

_space_group_name_H-M_alt    "P 1"
_space_group_IT_number       1

loop_
  _space_group_symop_operation_xyz
  'x, y, z'

loop_
  _atom_site_type_symbol
  _atom_site_label
  _atom_site_symmetry_multiplicity
  _atom_site_fract_x
  _atom_site_fract_y
  _atom_site_fract_z
  _atom_site_occupancy
  Tb  Tb1       1.0  0.9462478756617545  0.08052740049041064  0.6867022129132678  1.0000
  Tb  Tb2       1.0  0.8657202069088541  0.9462494858021132  0.5200333935267664  1.0000
  Tb  Tb3       1.0  0.9194729669853531  0.8657197172231507  0.3533685950000347  1.0000
  Tb  Tb4       1.0  0.05375240326742432  0.9194727442267879  0.1867023281979741  1.0000
  Tb  Tb5       1.0  0.1342797095114037  0.0537509780380745  0.0200332946843957  1.0000
  Tb  Tb6       1.0  0.08052730021751137  0.13428048260610134  0.8533686223146759  1.0000
  H   H1        1.0  0.08387676002170964  0.14502400883355193  0.43071722252103933  1.0000
  H   H2        1.0  0.9388523536523651  0.08387684697847665  0.2640482247156228  1.0000
  H   H3        1.0  0.8549754405171657  0.9388525428522102  0.0973871693718138  1.0000
  H   H4        1.0  0.9161235017390655  0.8549762165728156  0.9307172924914582  1.0000
  H   H5        1.0  0.06114727164094109  0.9161226751207323  0.7640484373966956  1.0000
  H   H6        1.0  0.14502484469602453  0.06114757233098091  0.5973876876001114  1.0000
  H   H7        1.0  0.2175367045483868  0.3616715682135379  0.5948345704146972  1.0000
  H   H8        1.0  0.8558646431335575  0.21753794369355017  0.428165061529775  1.0000
  H   H9        1.0  0.6383274054628104  0.8558664815576975  0.2615034732770454  1.0000
  H   H10       1.0  0.7824635808444217  0.6383285461254787  0.0948345106174315  1.0000
  H   H11       1.0  0.1441349706128179  0.7824616326746608  0.9281652305519046  1.0000
  H   H12       1.0  0.361672868203506  0.14413368789423234  0.7615034606552272  1.0000
  H   H13       1.0  0.3481536090256797  0.4847267066464624  0.5145864583001583  1.0000
  H   H14       1.0  0.8634270486762503  0.34815503471202897  0.3479169595406759  1.0000
  H   H15       1.0  0.5152712387279482  0.8634274987226435  0.1812548490710313  1.0000
  H   H16       1.0  0.6518463077778095  0.5152737553925704  0.014586389408414401  1.0000
  H   H17       1.0  0.13657257071623985  0.6518445151202032  0.8479165815477073  1.0000
  H   H18       1.0  0.48472904058450444  0.13657264419323664  0.6812548161982761  1.0000
  H   H19       1.0  0.1178405961818356  0.14464047483206596  0.2856273536038714  1.0000
  H   H20       1.0  0.9731993518974917  0.11783911687557244  0.1189588774469073  1.0000
  H   H21       1.0  0.8553598689152441  0.9731997844869726  0.9522968886487747  1.0000
  H   H22       1.0  0.8821596757871719  0.8553597025969921  0.785627428766098  1.0000
  H   H23       1.0  0.026800283604025376  0.8821603572464198  0.6189585696925519  1.0000
  H   H24       1.0  0.14464039132723633  0.026800448055169627  0.45229678196067624  1.0000
  H   H25       1.0  0.33766804767716263  0.34961607446141585  0.1413895789618778  1.0000
  H   H26       1.0  0.9880508985850442  0.33766649132403587  0.97472121922344  1.0000
  H   H27       1.0  0.6503836301251696  0.9880517443577901  0.8080596414009591  1.0000
  H   H28       1.0  0.6623322344401217  0.6503840552721056  0.6413896393140491  1.0000
  H   H29       1.0  0.011948711885757697  0.6623331004389287  0.4747207631110513  1.0000
  H   H30       1.0  0.3496159920715911  0.011947792294741109  0.3080595004537727  1.0000
  H   H31       1.0  0.42323818968541366  0.4773925792599769  0.23486985850042433  1.0000
  H   H32       1.0  0.9458449461122953  0.42323789179863514  0.0682008864764256  1.0000
  H   H33       1.0  0.5226082456474406  0.9458460723543284  0.9015399171307267  1.0000
  H   H34       1.0  0.5767620858547888  0.5226075813849463  0.7348699018889846  1.0000
  H   H35       1.0  0.0541549669190078  0.5767625879691921  0.5682005033432418  1.0000
  H   H36       1.0  0.47739239240160464  0.05415376916794663  0.4015397668374376  1.0000
  H   H37       1.0  0.5336231687185774  0.48189735598521827  0.3396084017405272  1.0000
  H   H38       1.0  0.051725353055623174  0.5336227817912657  0.17293848218379537  1.0000
  H   H39       1.0  0.5181027320086784  0.05172439699710914  0.0062787825271187  1.0000
  H   H40       1.0  0.46637709945243716  0.5181028392939169  0.8396084606607133  1.0000
  H   H41       1.0  0.9482742786479861  0.4663767101803698  0.6729384566385973  1.0000
  H   H42       1.0  0.48189755961473  0.9482756880589351  0.5062789395032183  1.0000
  H   H43       1.0  0.6900890499764502  0.6403475098243802  0.3694950314440604  1.0000
  H   H44       1.0  0.04974287191218014  0.6900894715927137  0.2028256412272285  1.0000
  H   H45       1.0  0.359654268279151  0.04974233456663062  0.0361648994957449  1.0000
  H   H46       1.0  0.3099118642857591  0.35965334353170425  0.8694950768929957  1.0000
  H   H47       1.0  0.9502574058825958  0.309910678456035  0.7028255788703106  1.0000
  H   H48       1.0  0.6403460212415273  0.9502577603719473  0.5361650331310344  1.0000
  H   H49       1.0  0.5148038297745999  0.7593567232515281  0.45676277586255043  1.0000
  H   H50       1.0  0.7554482827971402  0.514804614921708  0.2900922497927283  1.0000
  H   H51       1.0  0.2406429023279629  0.7554477009615611  0.12343270814461249  1.0000
  H   H52       1.0  0.48519643015367114  0.24064351076738427  0.9567627672061149  1.0000
  H   H53       1.0  0.24455198885772245  0.4851955639837727  0.7900923343577801  1.0000
  H   H54       1.0  0.7593563586233645  0.24455214887574778  0.6234326592138614  1.0000
  H   H55       1.0  0.35726252449634927  0.6021738600485805  0.4239456183946473  1.0000
  H   H56       1.0  0.7550882702594208  0.3572618435584685  0.2572750804763331  1.0000
  H   H57       1.0  0.3978256931645989  0.755086290431784  0.09061554533492  1.0000
  H   H58       1.0  0.6427377377408593  0.3978263631185826  0.9239456227521927  1.0000
  H   H59       1.0  0.24491200370439287  0.6427383244952695  0.7572752017523499  1.0000
  H   H60       1.0  0.6021739443310851  0.2449131743178796  0.5906155201016503  1.0000
  C   C1        1.0  0.1400538360945732  0.21949824671342819  0.4479856517909511  1.0000
  C   C2        1.0  0.9205557831453605  0.14005393212398323  0.2813171751142463  1.0000
  C   C3        1.0  0.7805020672883958  0.9205564154029132  0.1146550799610111  1.0000
  C   C4        1.0  0.8599464244512306  0.7805019844031378  0.9479857128210085  1.0000
  C   C5        1.0  0.07944448912692106  0.8599462438797546  0.7813168542672315  1.0000
  C   C6        1.0  0.2194982167098801  0.07944370549022041  0.6146550736013694  1.0000
  C   C7        1.0  0.1434315628542039  0.24806355092661653  0.5172912700806974  1.0000
  C   C8        1.0  0.8953677708703509  0.14343283346748578  0.3506217572715258  1.0000
  C   C9        1.0  0.75193567762166  0.8953693757979054  0.1839606943782357  1.0000
  C   C10       1.0  0.8565687279943932  0.751936537770931  0.0172912256629658  1.0000
  C   C11       1.0  0.10463249652578127  0.8565673654534934  0.8506219495217239  1.0000
  C   C12       1.0  0.24806422726500443  0.10463114224862123  0.6839606896049872  1.0000
  C   C13       1.0  0.2179609599572531  0.3436332670239608  0.5404083323475817  1.0000
  C   C14       1.0  0.8743273564805424  0.2179609947467116  0.373739341931504  1.0000
  C   C15       1.0  0.6563661392741409  0.8743288472319434  0.20707775581550436  1.0000
  C   C16       1.0  0.7820389550294707  0.6563672035536783  0.0404082768236336  1.0000
  C   C17       1.0  0.12567263533054548  0.782038189388395  0.8737389959587886  1.0000
  C   C18       1.0  0.34363478641541434  0.12567195241711465  0.7070777415951497  1.0000
  C   C19       1.0  0.28991250872861957  0.412158336069851  0.49597622962707527  1.0000
  C   C20       1.0  0.8777538472311974  0.2899130355059042  0.3293067270883796  1.0000
  C   C21       1.0  0.5878395124700264  0.8777534927803572  0.1626451383810945  1.0000
  C   C22       1.0  0.710087748440664  0.5878419109158983  0.9959762682098514  1.0000
  C   C23       1.0  0.1222464216646131  0.710087156366761  0.8293068825090586  1.0000
  C   C24       1.0  0.4121607681517432  0.12224664398187458  0.6626456307365842  1.0000
  C   C25       1.0  0.2845757455958734  0.38410918978351566  0.42663437466791265  1.0000
  C   C26       1.0  0.900466439496775  0.2845759068477351  0.2599653903420887  1.0000
  C   C27       1.0  0.6158898927370874  0.900465772902216  0.0933043221764152  1.0000
  C   C28       1.0  0.7154245164521672  0.6158910342727567  0.9266344189946594  1.0000
  C   C29       1.0  0.09953383427776447  0.7154242620955387  0.7599650327506566  1.0000
  C   C30       1.0  0.3841097445694218  0.09953369273655706  0.5933042957758872  1.0000
  C   C31       1.0  0.21047814737309525  0.2884278820927406  0.4016593959155514  1.0000
  C   C32       1.0  0.9220497829271752  0.21047840375405286  0.234991442260565  1.0000
  C   C33       1.0  0.7115714834628482  0.9220502215641064  0.06832934435417569  1.0000
  C   C34       1.0  0.7895221164321315  0.7115723337049858  0.9016594514394995  1.0000
  C   C35       1.0  0.0779498444105258  0.7895211087367714  0.7349911052033207  1.0000
  C   C36       1.0  0.2884288037948082  0.07794988401035845  0.568329327290634  1.0000
  C   C37       1.0  0.2306942899947232  0.28652968069864226  0.3283697931968774  1.0000
  C   C38       1.0  0.9441657205432039  0.23069471578259734  0.1617008066402263  1.0000
  C   C39       1.0  0.713469849191718  0.9441649884834648  0.9950393274326856  1.0000
  C   C40       1.0  0.7693053307730583  0.713469862669939  0.8283698522007867  1.0000
  C   C41       1.0  0.05583456014502275  0.7693054206673153  0.6617009858573155  1.0000
  C   C42       1.0  0.28653040804348967  0.05583525819245237  0.49503920620448844  1.0000
  C   C43       1.0  0.1839641542996802  0.21683116970984875  0.275391992376143  1.0000
  C   C44       1.0  0.9671342510936258  0.18396333663874762  0.108722485594356  1.0000
  C   C45       1.0  0.7831688915362992  0.9671317373333467  0.9420610110092724  1.0000
  C   C46       1.0  0.8160354701955089  0.7831683561404078  0.7753920606251156  1.0000
  C   C47       1.0  0.032865385128090764  0.8160361340984253  0.6087226791674141  1.0000
  C   C48       1.0  0.21683136942635883  0.03286849182407539  0.4420608948921583  1.0000
  C   C49       1.0  0.22389817287279365  0.24093352374474364  0.20837861827032358  1.0000
  C   C50       1.0  0.9829650877299088  0.2238979421674684  0.041709632816044  1.0000
  C   C51       1.0  0.7590648900812911  0.9829609104568888  0.8750476407482636  1.0000
  C   C52       1.0  0.7761014563373224  0.7590659799460013  0.7083786868938375  1.0000
  C   C53       1.0  0.017035201400638376  0.7761021546046935  0.5417103371176708  1.0000
  C   C54       1.0  0.2409353755962869  0.0170392965410144  0.3750475173160766  1.0000
  C   C55       1.0  0.3097884772302565  0.334447793449634  0.19435081005496357  1.0000
  C   C56       1.0  0.9753415301956282  0.3097884045472126  0.027682348404965803  1.0000
  C   C57       1.0  0.665551950835564  0.975338771436732  0.8610198342076956  1.0000
  C   C58       1.0  0.6902118011607999  0.6655523537966489  0.6943503520889321  1.0000
  C   C59       1.0  0.024658759921862956  0.6902116875864124  0.5276825138477861  1.0000
  C   C60       1.0  0.3344486900643986  0.0246610566866465  0.3610196985059417  1.0000
  C   C61       1.0  0.3574405754744563  0.4051857771470326  0.24599716454051188  1.0000
  C   C62       1.0  0.9522564636292687  0.3574413772923464  0.0793276701709047  1.0000
  C   C63       1.0  0.5948153321251798  0.9522558138840581  0.9126667043082719  1.0000
  C   C64       1.0  0.6425593250474436  0.5948147614132964  0.7459972148950911  1.0000
  C   C65       1.0  0.04774382285456375  0.6425587319189887  0.5793278210251458  1.0000
  C   C66       1.0  0.4051849309055983  0.047744405553451934  0.4126665633667486  1.0000
  C   C67       1.0  0.31724659841119535  0.38030627065950995  0.3127154668641623  1.0000
  C   C68       1.0  0.9369423254848857  0.31724805397546885  0.1460464865085456  1.0000
  C   C69       1.0  0.6196942465445051  0.9369403374611026  0.9793844851903303  1.0000
  C   C70       1.0  0.682754319845927  0.6196945639210159  0.8127149993168032  1.0000
  C   C71       1.0  0.06305795630476053  0.6827520772978987  0.6460461267722479  1.0000
  C   C72       1.0  0.38030573783357374  0.06305888160811432  0.47938486922998885  1.0000
  C   C73       1.0  0.4366946303079332  0.532187134774091  0.3816095434378112  1.0000
  C   C74       1.0  0.9045082300741643  0.43669453829490823  0.2149390176971124  1.0000
  C   C75       1.0  0.46781215199236226  0.9045058037204045  0.0482784613491702  1.0000
  C   C76       1.0  0.5633049867140019  0.46781242619943697  0.8816095760607253  1.0000
  C   C77       1.0  0.09549139867436915  0.5633049675651947  0.7149391428832672  1.0000
  C   C78       1.0  0.532187488482073  0.09549364702952805  0.5482784117604497  1.0000
  C   C79       1.0  0.5299986971609842  0.54358450867597  0.36424430873152863  1.0000
  C   C80       1.0  0.9864137097278632  0.5299985225249202  0.1975737934041106  1.0000
  C   C81       1.0  0.4564158842211726  0.9864139815243503  0.030913760404395405  1.0000
  C   C82       1.0  0.47000092108273617  0.4564150465553496  0.8642443527115446  1.0000
  C   C83       1.0  0.01358554600706449  0.4700013518287918  0.6975733914512148  1.0000
  C   C84       1.0  0.543584031433568  0.013586485913684514  0.5309136899891982  1.0000
  C   C85       1.0  0.6171912967762908  0.6314717316013017  0.38166234377099073  1.0000
  C   C86       1.0  0.9857200587721948  0.6171911438119649  0.214992352633665  1.0000
  C   C87       1.0  0.36852888456662936  0.985720131237699  0.0483323159285476  1.0000
  C   C88       1.0  0.3828089684358887  0.3685284775839294  0.8816623803399323  1.0000
  C   C89       1.0  0.014279569972586715  0.38280836206576657  0.7149924478984103  1.0000
  C   C90       1.0  0.6314703816686136  0.014279693765928388  0.5483322324721769  1.0000
  C   C91       1.0  0.6115674228214446  0.7080405087582377  0.41675362694203233  1.0000
  C   C92       1.0  0.9035284127542413  0.6115681006201966  0.2500831142959754  1.0000
  C   C93       1.0  0.29196008883968044  0.903528042732525  0.0834230682342181  1.0000
  C   C94       1.0  0.3884324656863783  0.2919600862666342  0.91675364479768  1.0000
  C   C95       1.0  0.09647121352162466  0.3884314168611027  0.7500831985254806  1.0000
  C   C96       1.0  0.7080401973559987  0.0964720678330976  0.5834235101255132  1.0000
  C   C97       1.0  0.5178630230508433  0.6983243002402945  0.43065565179270493  1.0000
  C   C98       1.0  0.8195390642020328  0.517862809757851  0.26398564628649973  1.0000
  C   C99       1.0  0.3016761619984012  0.8195392366448928  0.09732507665024309  1.0000
  C   C100      1.0  0.4821368644788607  0.3016762993816045  0.9306556578387771  1.0000
  C   C101      1.0  0.18046056109567862  0.4821367123206387  0.7639857397660634  1.0000
  C   C102      1.0  0.698324123219173  0.18046087851767112  0.5973250219315888  1.0000
  C   C103      1.0  0.43053397495027945  0.6110505970902765  0.41275204268608684  1.0000
  C   C104      1.0  0.8194833996234295  0.43053536759101957  0.24608151294850703  1.0000
  C   C105      1.0  0.3889484503159866  0.8194814049473751  0.0794209469355636  1.0000
  C   C106      1.0  0.5694656398805337  0.3889489741812326  0.9127520559794887  1.0000
  C   C107      1.0  0.18051622693397465  0.5694641485670645  0.7460816267989117  1.0000
  C   C108      1.0  0.6110511879673269  0.18051805610053862  0.5794209053410952  1.0000
  C   C109      1.0  0.07160855054340227  0.18284278460991735  0.5704217766158592  1.0000
  C   C110      1.0  0.8887655007192307  0.0716087667478432  0.40375381114621683  1.0000
  C   C111      1.0  0.8171551215244012  0.8887647877906348  0.2370911974591081  1.0000
  C   C112      1.0  0.9283923847609971  0.8171579698506973  0.0704217366286244  1.0000
  C   C113      1.0  0.11123411474466871  0.9283908015482255  0.9037540191658024  1.0000
  C   C114      1.0  0.18284413143015146  0.11123509963047704  0.7370912040248783  1.0000
  C   C115      1.0  0.17861069519862136  0.16977809188633594  0.1502629457119866  1.0000
  C   C116      1.0  0.008832367162476415  0.1786113468048143  0.9835925793253537  1.0000
  C   C117      1.0  0.830220281714631  0.008830250220839402  0.8169313364121606  1.0000
  C   C118      1.0  0.8213892120589605  0.8302224150171893  0.650262506467719  1.0000
  C   C119      1.0  0.9911672426841424  0.8213882478917399  0.4835925308948319  1.0000
  C   C120      1.0  0.16977933985792518  0.9911692893653664  0.3169314509979273  1.0000
  C   C121      1.0  0.7031827782885998  0.7968409085524186  0.443251587740221  1.0000
  C   C122      1.0  0.9063430964568726  0.7031836920695653  0.2765836704411555  1.0000
  C   C123      1.0  0.20315941614307345  0.9063432387683649  0.1099210325511635  1.0000
  C   C124      1.0  0.296816460160919  0.2031590470403658  0.943251598636067  1.0000
  C   C125      1.0  0.09365680191302064  0.29681685660489177  0.7765837337136858  1.0000
  C   C126      1.0  0.796840493952871  0.09365725479523956  0.6099209427755737  1.0000
  N   N1        1.0  0.3482536865951433  0.4384686780148784  0.3724333266029092  1.0000
  N   N2        1.0  0.9097860000628729  0.3482546984458638  0.2057638297778936  1.0000
  N   N3        1.0  0.5615312402520946  0.9097840448774264  0.0391027600523941  1.0000
  N   N4        1.0  0.6517465792663659  0.5615315281185718  0.872433367810217  1.0000
  N   N5        1.0  0.09021390328975808  0.651745826810405  0.7057639763958221  1.0000
  N   N6        1.0  0.4384690490618938  0.09021605103259137  0.5391027233111529  1.0000
  O   O1        1.0  0.07375758743815204  0.2198369238019069  0.6294666654833064  1.0000
  O   O2        1.0  0.8539202389075629  0.07376044647863018  0.46279921639659705  1.0000
  O   O3        1.0  0.7801606470591697  0.8539199189954233  0.2961360808843949  1.0000
  O   O4        1.0  0.9262426955180133  0.7801632019890122  0.1294666171857344  1.0000
  O   O5        1.0  0.1460800205959889  0.9262397895364034  0.9627994186793672  1.0000
  O   O6        1.0  0.21983924993506324  0.1460806361444824  0.7961360900241985  1.0000
  O   O7        1.0  0.008417157544819517  0.08866688796356932  0.559190409247293  1.0000
  O   O8        1.0  0.9197491922132671  0.008417543208970885  0.3925229579888381  1.0000
  O   O9        1.0  0.9113306809244295  0.9197476881390259  0.22585931520430344  1.0000
  O   O10       1.0  0.991583130355835  0.9113332145888933  0.05919038174433669  1.0000
  O   O11       1.0  0.08025004980540758  0.9915823956092638  0.8925231854097576  1.0000
  O   O12       1.0  0.08866959524971922  0.08025246952643533  0.7258598463571388  1.0000
  O   O13       1.0  0.10124939159859994  0.08192767708970192  0.1603580174764616  1.0000
  O   O14       1.0  0.01932181068217181  0.1012489575874298  0.9936840220271108  1.0000
  O   O15       1.0  0.9180712021608102  0.019320696565884483  0.8270258895719209  1.0000
  O   O16       1.0  0.8987502409901469  0.9180718107219334  0.6603581047812028  1.0000
  O   O17       1.0  0.9806777984544087  0.898750640446181  0.4936845108957755  1.0000
  O   O18       1.0  0.08192944113088907  0.9806791203166583  0.327026014907176  1.0000
  O   O19       1.0  0.21608409020718972  0.19580436854609926  0.09008177629952742  1.0000
  O   O20       1.0  0.020278005424366124  0.2160888159229941  0.9234129662130925  1.0000
  O   O21       1.0  0.8041938503450228  0.020277516689226515  0.7567512054076317  1.0000
  O   O22       1.0  0.783916195520007  0.8041957442213175  0.5900818542807542  1.0000
  O   O23       1.0  0.9797222568503301  0.7839114070680252  0.4234129107560988  1.0000
  O   O24       1.0  0.19580642365564674  0.979722651191281  0.2567513134121313  1.0000
  O   O25       1.0  0.7897458647083655  0.8033467739845578  0.4354078511810968  1.0000
  O   O26       1.0  0.9864014161286649  0.7897462624414544  0.2687404613815261  1.0000
  O   O27       1.0  0.19665195661844612  0.9863987462998126  0.1020747232165533  1.0000
  O   O28       1.0  0.21025374852842302  0.1966528047786227  0.935407873562795  1.0000
  O   O29       1.0  0.013598857028469542  0.2102539094035691  0.768740516480257  1.0000
  O   O30       1.0  0.8033473058355938  0.013601096474971486  0.6020746137811414  1.0000
  O   O31       1.0  0.6969001087697682  0.8640214667406597  0.4768286860851276  1.0000
  O   O32       1.0  0.8328805929026758  0.6969002202185948  0.3101607652602141  1.0000
  O   O33       1.0  0.13598152550832787  0.832881158863657  0.1434996720685859  1.0000
  O   O34       1.0  0.30310014974668326  0.1359787739135925  0.9768291980291437  1.0000
  O   O35       1.0  0.16711902914624946  0.3030993171287548  0.8101608189628919  1.0000
  O   O36       1.0  0.8640187564604959  0.16711897156758942  0.6434995893444508  1.0000
