data_image0
_chemical_formula_structural       Fe2H12C20N8O16
_chemical_formula_sum              "Fe2 H12 C20 N8 O16"
_cell_length_a       6.969769773031593
_cell_length_b       11.136485576039844
_cell_length_c       11.563195469092134
_cell_angle_alpha    89.99988907299903
_cell_angle_beta     89.99963857307206
_cell_angle_gamma    100.63707979625103

_space_group_name_H-M_alt    "P 1"
_space_group_IT_number       1

loop_
  _space_group_symop_operation_xyz
  'x, y, z'

loop_
  _atom_site_type_symbol
  _atom_site_label
  _atom_site_symmetry_multiplicity
  _atom_site_fract_x
  _atom_site_fract_y
  _atom_site_fract_z
  _atom_site_occupancy
  Fe  Fe1       1.0  0.9999997760443549  0.9999990868077049  1.2291999988179206e-12  1.0000
  Fe  Fe2       1.0  0.4999983790240634  0.4999994775077141  0.500000645110248  1.0000
  H   H1        1.0  0.5020987458416356  0.19420968248716963  0.8135630448283852  1.0000
  H   H2        1.0  0.002092466669331825  0.6942022311103954  0.6864419404812383  1.0000
  H   H3        1.0  0.49790278784764297  0.8057911856091238  0.1864365157569097  1.0000
  H   H4        1.0  0.9979076244527646  0.3057986080896455  0.3135567552935612  1.0000
  H   H5        1.0  0.9096247546315438  0.2846767304012515  0.7328501841328576  1.0000
  H   H6        1.0  0.40962930858150765  0.7846765056103918  0.767150721815625  1.0000
  H   H7        1.0  0.09037677905207891  0.7153241376935284  0.2671502412652842  1.0000
  H   H8        1.0  0.5903736676749602  0.215324391382147  0.23284970358017185  1.0000
  H   H9        1.0  0.007966619276487648  0.4445813116604498  0.5811045040560715  1.0000
  H   H10       1.0  0.5079657372293057  0.9445856088503036  0.9188904737251491  1.0000
  H   H11       1.0  0.9920332478843008  0.5554186143457898  0.4188950565328042  1.0000
  H   H12       1.0  0.4920324633973294  0.055413375064382805  0.08110995168015482  1.0000
  C   C1        1.0  0.11079999184627812  0.39748475958190704  0.6236998751236059  1.0000
  C   C2        1.0  0.6108006620448518  0.8974874077073379  0.8762957256208924  1.0000
  C   C3        1.0  0.8891977608747226  0.6025123979496811  0.37629968547130954  1.0000
  C   C4        1.0  0.38919753858743883  0.10251157620884749  0.12370383497156472  1.0000
  C   C5        1.0  0.2167701886986748  0.2696687732069022  0.7442754922750937  1.0000
  C   C6        1.0  0.7167694269558424  0.7696654202191624  0.7557286580030366  1.0000
  C   C7        1.0  0.7832284598449134  0.7303320370938874  0.2557240683149047  1.0000
  C   C8        1.0  0.28323066416625414  0.23033541898088564  0.24427003777176282  1.0000
  C   C9        1.0  0.3712097032985823  0.3312314962350413  0.6781490002379941  1.0000
  C   C10       1.0  0.8712108622589554  0.8312334208852544  0.8218528058522951  1.0000
  C   C11       1.0  0.6287918303850404  0.6687693718597387  0.3218514251601476  1.0000
  C   C12       1.0  0.1287875623289878  0.16876647622323293  0.1781467547389326  1.0000
  C   C13       1.0  0.21460661366938177  0.17722897123238815  0.8335735637666702  1.0000
  C   C14       1.0  0.7146012505882311  0.6772258138153402  0.6664290394829778  1.0000
  C   C15       1.0  0.7853930295357545  0.8227700415815563  0.1664259968234347  1.0000
  C   C16       1.0  0.2854000591397465  0.3227741410871444  0.33357138591640023  1.0000
  C   C17       1.0  0.5795308990600744  0.3264166060083724  0.6709603448232073  1.0000
  C   C18       1.0  0.07953397098270903  0.8264134259853434  0.8290406805641555  1.0000
  C   C19       1.0  0.4204685201894165  0.6735814936132769  0.3290392157681268  1.0000
  C   C20       1.0  0.9204675627065696  0.17358744211094285  0.17095888002113924  1.0000
  N   N1        1.0  0.30224924382710566  0.40992809291810045  0.6035165526484364  1.0000
  N   N2        1.0  0.8022547482136204  0.9099280467209566  0.8964835964885227  1.0000
  N   N3        1.0  0.6977535084793729  0.5900718908836423  0.3964830079357355  1.0000
  N   N4        1.0  0.1977453428971572  0.09007279247607158  0.10351682891197811  1.0000
  N   N5        1.0  0.055034809427603235  0.31346537454209056  0.7074355487320433  1.0000
  N   N6        1.0  0.5550340133737777  0.8134637195769868  0.792564715377374  1.0000
  N   N7        1.0  0.944966276339066  0.6865336671665928  0.2925657414814041  1.0000
  N   N8        1.0  0.4449654058813763  0.18653438004616868  0.2074339804011132  1.0000
  O   O1        1.0  0.054332749108525  0.1308411109622369  0.8795559651306635  1.0000
  O   O2        1.0  0.5543351019460658  0.630843708507001  0.6204515666878123  1.0000
  O   O3        1.0  0.9456668940909554  0.8691579018501941  0.12044446027228872  1.0000
  O   O4        1.0  0.44566620778756777  0.3691562463969901  0.3795479938987186  1.0000
  O   O5        1.0  0.38125134796405996  0.14630349910043347  0.8623153796702713  1.0000
  O   O6        1.0  0.8812452413199027  0.6462958758660092  0.6376910694814557  1.0000
  O   O7        1.0  0.6187501857138997  0.85369736899284  0.13768591054072496  1.0000
  O   O8        1.0  0.11875507375783911  0.3537058765263339  0.36230762629211455  1.0000
  O   O9        1.0  0.674937488208883  0.3916665519202309  0.5921756787348685  1.0000
  O   O10       1.0  0.17493878439869096  0.8916776217594348  0.9078231856579679  1.0000
  O   O11       1.0  0.3250623789405864  0.6083333740829958  0.4078256114797016  1.0000
  O   O12       1.0  0.8250610827620972  0.10832230424681197  0.09217637493090793  1.0000
  O   O13       1.0  0.6548172117744643  0.25933732231600704  0.7421317901707951  1.0000
  O   O14       1.0  0.15481688763838267  0.7593343035967308  0.7578691200920176  1.0000
  O   O15       1.0  0.3451828793306504  0.7406635168795145  0.2578695000425455  1.0000
  O   O16       1.0  0.8451848700122041  0.24066747769336413  0.2421295756792078  1.0000
