data_image0
_chemical_formula_structural       Co4H80C72N8O24
_chemical_formula_sum              "Co4 H80 C72 N8 O24"
_cell_length_a       9.429938296222634
_cell_length_b       13.611528482221582
_cell_length_c       19.003725982479704
_cell_angle_alpha    111.5822932920707
_cell_angle_beta     103.54510089637395
_cell_angle_gamma    88.67816315015241

_space_group_name_H-M_alt    "P 1"
_space_group_IT_number       1

loop_
  _space_group_symop_operation_xyz
  'x, y, z'

loop_
  _atom_site_type_symbol
  _atom_site_label
  _atom_site_symmetry_multiplicity
  _atom_site_fract_x
  _atom_site_fract_y
  _atom_site_fract_z
  _atom_site_occupancy
  Co  Co1       1.0  0.8295308863608638  0.42354588803600995  0.2666528897192962  1.0000
  Co  Co2       1.0  0.6819161586586019  0.15444142955248447  0.7333489118070987  1.0000
  Co  Co3       1.0  0.1780513509949131  0.5765354854977859  0.7316835411840473  1.0000
  Co  Co4       1.0  0.3216269071908827  0.8413230391265428  0.26617102160587086  1.0000
  H   H1        1.0  0.5892201794606037  0.33871133775860324  0.21936933364757755  1.0000
  H   H2        1.0  0.9357266900287935  0.12475657325997261  0.7854968194423934  1.0000
  H   H3        1.0  0.4286611982501896  0.6584750210114337  0.7868589290362069  1.0000
  H   H4        1.0  0.06863792391095563  0.8707594204581567  0.2117653487887667  1.0000
  H   H5        1.0  0.5859939307943948  0.4609295905029357  0.2244599316197268  1.0000
  H   H6        1.0  0.9300134460180088  0.23995506498785357  0.7788551643334288  1.0000
  H   H7        1.0  0.4298398743825089  0.5356452970719944  0.7773725510355193  1.0000
  H   H8        1.0  0.07393867944295353  0.7582027333051612  0.22223703180220875  1.0000
  H   H9        1.0  0.9291813933978117  0.6087252920470476  0.24690338634154335  1.0000
  H   H10       1.0  0.5705912016507853  0.3511342286678741  0.7492491764455593  1.0000
  H   H11       1.0  0.06710424353588003  0.39644898393489564  0.7483333227993755  1.0000
  H   H12       1.0  0.4355872280604486  0.6435541069314326  0.24935319228850983  1.0000
  H   H13       1.0  0.895707538864997  0.5276597932047054  0.1618539726489275  1.0000
  H   H14       1.0  0.590191118413948  0.3420025499616629  0.8302135929576979  1.0000
  H   H15       1.0  0.09736550973497772  0.48792715763047306  0.8298444126581617  1.0000
  H   H16       1.0  0.4124760116631876  0.65414219757848  0.16878393690103624  1.0000
  H   H17       1.0  0.22252763043377402  0.4792001885027091  0.5065726213555665  1.0000
  H   H18       1.0  0.26980371236931694  0.9704411000343285  0.4909035049581975  1.0000
  H   H19       1.0  0.7620752070355934  0.5172151324534795  0.4889331754056984  1.0000
  H   H20       1.0  0.7304118478587468  0.027384575509557932  0.5093878375679993  1.0000
  H   H21       1.0  0.8553073427088904  0.31094382367930257  0.4536712459230331  1.0000
  H   H22       1.0  0.6490334895883692  0.8570148217633928  0.5455982469333805  1.0000
  H   H23       1.0  0.14284194965755853  0.6874682794884494  0.5478033880318522  1.0000
  H   H24       1.0  0.3554453878460748  0.134466043466496  0.4485762208035312  1.0000
  H   H25       1.0  0.950482541246153  0.3245762024051543  0.589976774268834  1.0000
  H   H26       1.0  0.5552982154864381  0.7307668378847013  0.40917701313308913  1.0000
  H   H27       1.0  0.049363645403900605  0.6762629354970998  0.4106075596725419  1.0000
  H   H28       1.0  0.45658411565706564  0.2597414521861127  0.586510621732913  1.0000
  H   H29       1.0  0.6462187080394132  0.20419128658878805  0.5144987682589744  1.0000
  H   H30       1.0  0.8642881854195751  0.6858176853180566  0.48520788520374236  1.0000
  H   H31       1.0  0.35399641981342717  0.7953904766227639  0.4886463985748508  1.0000
  H   H32       1.0  0.1475881067853777  0.30880803887284  0.5140962166401408  1.0000
  H   H33       1.0  0.967132264996202  0.4548271269265242  0.4249877320208029  1.0000
  H   H34       1.0  0.5246836304155522  0.026812422098366647  0.5716524436996694  1.0000
  H   H35       1.0  0.01774296662290451  0.5429689310263724  0.5698435367495449  1.0000
  H   H36       1.0  0.47604895842174966  0.9684879030760882  0.42833521402323554  1.0000
  H   H37       1.0  0.37003101089844387  0.4687659028618186  0.3052140247060394  1.0000
  H   H38       1.0  0.12028848385929787  0.1595089650461858  0.6948230231843482  1.0000
  H   H39       1.0  0.6175143447385311  0.5361489433935774  0.692888317239728  1.0000
  H   H40       1.0  0.8823858641569374  0.8418037608860018  0.3054922520439051  1.0000
  H   H41       1.0  0.10977387818998352  0.4465890932321983  0.23313569733994657  1.0000
  H   H42       1.0  0.3804181568017242  0.20831831547674556  0.7660730011558174  1.0000
  H   H43       1.0  0.8784081518002154  0.559892128806638  0.764401964633393  1.0000
  H   H44       1.0  0.6227396516731645  0.7912002366410815  0.23373960108270364  1.0000
  H   H45       1.0  0.5445500958484288  0.20361517770674453  0.37517797337310554  1.0000
  H   H46       1.0  0.9626680275831416  0.8219332153617743  0.6218843469209788  1.0000
  H   H47       1.0  0.452048589504237  0.7978149421689622  0.6261608771442371  1.0000
  H   H48       1.0  0.041052556614133116  0.17391695258709913  0.3769240932316009  1.0000
  H   H49       1.0  0.5300991285184226  0.4155267586148525  0.426142740086867  1.0000
  H   H50       1.0  0.9657293969661822  0.9851810850925347  0.5709071737192631  1.0000
  H   H51       1.0  0.45461439378111373  0.5824125637681162  0.5702401055418136  1.0000
  H   H52       1.0  0.03546170509977031  0.01479634624248393  0.4296595866520718  1.0000
  H   H53       1.0  0.531183741644199  0.5516272655259443  0.4451164865915873  1.0000
  H   H54       1.0  0.9569607083634039  0.10438549663857798  0.5551767222868946  1.0000
  H   H55       1.0  0.4564568798675949  0.446434172041542  0.5512714220402659  1.0000
  H   H56       1.0  0.044173063589056545  0.8956605449278924  0.44548855089163925  1.0000
  H   H57       1.0  0.8139673054105501  0.36409144392720094  0.10274395921402404  1.0000
  H   H58       1.0  0.6843007770304012  0.2587493777055628  0.90763128029797  1.0000
  H   H59       1.0  0.1824394826939796  0.6466041899658848  0.9055974882385345  1.0000
  H   H60       1.0  0.3189836638575798  0.738971534980827  0.09144493436175348  1.0000
  H   H61       1.0  0.9536093953478326  0.23039012012149834  0.2681985201678145  1.0000
  H   H62       1.0  0.5621549460980049  0.9589417527770578  0.739331654180184  1.0000
  H   H63       1.0  0.05389526391478939  0.7812638821669325  0.7398540109571601  1.0000
  H   H64       1.0  0.4400011267691469  0.03810341743222526  0.26092839372714144  1.0000
  H   H65       1.0  0.050959232359197394  0.07928927896334413  0.17619056921960666  1.0000
  H   H66       1.0  0.45437721338813475  0.9017352507956744  0.8264761944060555  1.0000
  H   H67       1.0  0.946856785512381  0.9294698569399528  0.8290306047711626  1.0000
  H   H68       1.0  0.5446014677944505  0.09771960819394113  0.17392898908608603  1.0000
  H   H69       1.0  0.91765489589514  0.22287193080769901  0.004228321264555742  1.0000
  H   H70       1.0  0.5715486387245575  0.217838969755519  0.0014322806929030168  1.0000
  H   H71       1.0  0.06899166120694392  0.7845952331792816  0.0009062508622648851  1.0000
  H   H72       1.0  0.42983500167396466  0.7819753125096086  0.9978558781148552  1.0000
  H   H73       1.0  0.0898165706236682  0.07674792318059814  0.9828317408454837  1.0000
  H   H74       1.0  0.40153551846849916  0.09378673365747399  0.018617641904349107  1.0000
  H   H75       1.0  0.9006982412545383  0.9316362195713026  0.021253642767185058  1.0000
  H   H76       1.0  0.5974085177623039  0.9070809756931129  0.9811307026040413  1.0000
  H   H77       1.0  0.15071220527752868  0.0214814390979612  0.055136741597834805  1.0000
  H   H78       1.0  0.3460858227781785  0.9664035540645839  0.9447769961646841  1.0000
  H   H79       1.0  0.8407510270882669  0.9862187514861063  0.948429032564164  1.0000
  H   H80       1.0  0.652473632603872  0.03435322054286161  0.0551383671242718  1.0000
  C   C1        1.0  0.20395016006190766  0.4716952678904391  0.44595894396262287  1.0000
  C   C2        1.0  0.28822352233211757  0.022785587938379585  0.5519875350070151  1.0000
  C   C3        1.0  0.781603626642074  0.527199260549331  0.5500675906950718  1.0000
  C   C4        1.0  0.7126078929518441  0.9753186397717714  0.44826498711719875  1.0000
  C   C5        1.0  0.7550667698213401  0.2685996505650934  0.44999844516902954  1.0000
  C   C6        1.0  0.7507244113249599  0.8168376855533594  0.5491965153122892  1.0000
  C   C7        1.0  0.24263234890321428  0.7307928003418597  0.5520343899004632  1.0000
  C   C8        1.0  0.25506169179588767  0.17628315040439446  0.44704009516669885  1.0000
  C   C9        1.0  0.8508297880003254  0.2801163984459977  0.5845028577475163  1.0000
  C   C10       1.0  0.6571730390930882  0.6912099814096493  0.41464329494449725  1.0000
  C   C11       1.0  0.15008353300330415  0.7203468330927337  0.41718618782551453  1.0000
  C   C12       1.0  0.35531218768018397  0.3000380185193734  0.5816418560728424  1.0000
  C   C13       1.0  0.744948774359365  0.24731506859215102  0.517232460334924  1.0000
  C   C14       1.0  0.7631269108974409  0.7265866346649191  0.48199217362760305  1.0000
  C   C15       1.0  0.2543086423334132  0.7525158301728324  0.4850753606211314  1.0000
  C   C16       1.0  0.2473421016703341  0.2662844156839553  0.5152408871316467  1.0000
  C   C17       1.0  0.0607267844611883  0.4591959904706755  0.4017479595092724  1.0000
  C   C18       1.0  0.43096199020024534  0.054152462974087844  0.5961921625496772  1.0000
  C   C19       1.0  0.9249231881968569  0.5407063901062655  0.5943786653049727  1.0000
  C   C20       1.0  0.5702255550560624  0.9426634505845823  0.40386735597498824  1.0000
  C   C21       1.0  0.3202487345194385  0.4749337236888849  0.4124715648055642  1.0000
  C   C22       1.0  0.1715901019874053  0.05954126947837328  0.586406012497605  1.0000
  C   C23       1.0  0.6660582436102017  0.5254296223721795  0.5843597546422644  1.0000
  C   C24       1.0  0.8297063074927565  0.9399893466702665  0.4139287685606023  1.0000
  C   C25       1.0  0.8408722720534528  0.2578136056471436  0.6538395317630687  1.0000
  C   C26       1.0  0.6672146282999094  0.5990805630571501  0.3446489566526197  1.0000
  C   C27       1.0  0.16282131216409113  0.7426723600546267  0.34816439662881754  1.0000
  C   C28       1.0  0.34428851635017566  0.3930985570662458  0.651275088817208  1.0000
  C   C29       1.0  0.6649540381247263  0.2816829838720096  0.3206678247698846  1.0000
  C   C30       1.0  0.8478816101670503  0.9596137626083562  0.6797888579713105  1.0000
  C   C31       1.0  0.33942837310546287  0.7184384996397668  0.6821137414362186  1.0000
  C   C32       1.0  0.15360104834220317  0.035355994954940725  0.3171924385184113  1.0000
  C   C33       1.0  0.2843879598670541  0.4655096858505061  0.3342616327051077  1.0000
  C   C34       1.0  0.20637622581948983  0.12739990034158682  0.6650650062641363  1.0000
  C   C35       1.0  0.7026352282633183  0.5378336669380204  0.6631696795656128  1.0000
  C   C36       1.0  0.7958061720490832  0.8727309090076999  0.33512961467871366  1.0000
  C   C37       1.0  0.1396366158604394  0.4533920514085636  0.2936826863423931  1.0000
  C   C38       1.0  0.35134521075296027  0.15530595855461388  0.7049672526121996  1.0000
  C   C39       1.0  0.8480773215679066  0.5506349126943634  0.703229369075608  1.0000
  C   C40       1.0  0.6511983526191472  0.8437359517726365  0.29497988730835095  1.0000
  C   C41       1.0  0.6487363709793783  0.24498158427310554  0.38343450309595545  1.0000
  C   C42       1.0  0.8583764057956175  0.8584092113937346  0.6153110793119085  1.0000
  C   C43       1.0  0.3492480938452688  0.7553475032208326  0.6186393154469273  1.0000
  C   C44       1.0  0.14469598052459529  0.1363969134653331  0.3820803047360998  1.0000
  C   C45       1.0  0.4784177899707273  0.4880238429284703  0.45490474980241674  1.0000
  C   C46       1.0  0.014018304179202794  0.030762797999706454  0.5438250587694711  1.0000
  C   C47       1.0  0.5077777109384342  0.5107240119504226  0.541651566456409  1.0000
  C   C48       1.0  0.9870490125384281  0.9692402156879113  0.45669617360010073  1.0000
  C   C49       1.0  0.8723247490360536  0.301055046867873  0.11657429280884914  1.0000
  C   C50       1.0  0.62782710246298  0.1815649229072773  0.8914541912903858  1.0000
  C   C51       1.0  0.12414468889210178  0.7090248589442966  0.8903250853314051  1.0000
  C   C52       1.0  0.3746172902639131  0.8165403040107577  0.1079316953912582  1.0000
  C   C53       1.0  0.9493944466528461  0.22540791480748368  0.2093172445270781  1.0000
  C   C54       1.0  0.5615838976242455  0.013590738906216983  0.7979374043704937  1.0000
  C   C55       1.0  0.054515655110236656  0.7852498270706008  0.7982351897423217  1.0000
  C   C56       1.0  0.4400058829102066  0.9841541985918737  0.20204342508827733  1.0000
  C   C57       1.0  0.004159663443395808  0.14207054114807957  0.15720585030460651  1.0000
  C   C58       1.0  0.5004181207164463  0.9830915734271031  0.8471345434047282  1.0000
  C   C59       1.0  0.9938350467772638  0.8671488650019157  0.8485526827458403  1.0000
  C   C60       1.0  0.4993473235442352  0.016055453988670396  0.152900822618065  1.0000
  C   C61       1.0  0.9283189352725998  0.2214210444407314  0.06223708887399943  1.0000
  C   C62       1.0  0.5665469926191732  0.15791760710612845  0.9436508251871205  1.0000
  C   C63       1.0  0.06298308831576803  0.786854619527432  0.9434607593430543  1.0000
  C   C64       1.0  0.43447084143866727  0.8414182555689679  0.05576794609375927  1.0000
  C   C65       1.0  0.9975986715992846  0.13997786734950776  0.08233088504919553  1.0000
  C   C66       1.0  0.5000849524237054  0.05654715325256616  0.9215108488269053  1.0000
  C   C67       1.0  0.9952984553565187  0.8682132120462  0.9226390736745317  1.0000
  C   C68       1.0  0.4994589303719721  0.943327061762332  0.07824307948929748  1.0000
  C   C69       1.0  0.05482345836629321  0.0503294740585432  0.02472423893794231  1.0000
  C   C70       1.0  0.4399558244781686  0.024821987208199156  0.977008578424716  1.0000
  C   C71       1.0  0.9362381520658545  0.9577850201795713  0.9794190070202479  1.0000
  C   C72       1.0  0.55879740423498  0.9758015285942959  0.02285282343210342  1.0000
  N   N1        1.0  0.027715776928481328  0.4496915990815324  0.3263708644776316  1.0000
  N   N2        1.0  0.46340736385415227  0.11955187331857799  0.6716512498201085  1.0000
  N   N3        1.0  0.9590796370493705  0.5521236307524474  0.6699155156706524  1.0000
  N   N4        1.0  0.5387117802692529  0.8777276178813338  0.3282859219538069  1.0000
  N   N5        1.0  0.885888659723918  0.3051484647408885  0.19000691583868712  1.0000
  N   N6        1.0  0.6238520548662476  0.11161720484685848  0.8190705154176215  1.0000
  N   N7        1.0  0.11818999339536164  0.7064405339406221  0.8181630763944627  1.0000
  N   N8        1.0  0.3789757317020346  0.8856589269327841  0.1806008745096222  1.0000
  O   O1        1.0  0.6291642982492931  0.3914423622053889  0.20003158310755967  1.0000
  O   O2        1.0  0.8956742318712756  0.19671469397161467  0.8053682955726064  1.0000
  O   O3        1.0  0.39145976048949654  0.6050933307705931  0.8050356889223238  1.0000
  O   O4        1.0  0.10879147131975493  0.7986010473595614  0.19378068633798062  1.0000
  O   O5        1.0  0.9466925033847815  0.29479343946892567  0.7149403136001311  1.0000
  O   O6        1.0  0.5578123984573082  0.5739322931465054  0.2851449463168977  1.0000
  O   O7        1.0  0.05565872200615734  0.7090405896648236  0.2876392287275708  1.0000
  O   O8        1.0  0.4518991425287808  0.4180744635542339  0.7116894464169548  1.0000
  O   O9        1.0  0.859932390466433  0.5472678254501844  0.20886768884618337  1.0000
  O   O10       1.0  0.6360545824986303  0.3226290048667196  0.786613642092398  1.0000
  O   O11       1.0  0.1354257048188927  0.4607425290879875  0.783471009186741  1.0000
  O   O12       1.0  0.3688642511562179  0.6728090573737759  0.2131532829546786  1.0000
  O   O13       1.0  0.7883574553914486  0.3277154051478348  0.32994085043674914  1.0000
  O   O14       1.0  0.7242249774415086  0.0020696559352019936  0.6740907251396353  1.0000
  O   O15       1.0  0.21780531789706006  0.669817046306001  0.6743275820731969  1.0000
  O   O16       1.0  0.2764040082940867  0.9920032641952474  0.32357332429303676  1.0000
  O   O17       1.0  0.7301741547648462  0.20068159174209668  0.648292748370132  1.0000
  O   O18       1.0  0.7830807226054118  0.5477631714088531  0.3479604294124173  1.0000
  O   O19       1.0  0.2767951722962465  0.7961388139754533  0.3532141309728092  1.0000
  O   O20       1.0  0.2302410260752055  0.44500994493308355  0.6465879498385904  1.0000
  O   O21       1.0  0.5541634091602319  0.2677995014180182  0.2635192048234459  1.0000
  O   O22       1.0  0.9613270203097671  0.9985917568826252  0.7347207760024406  1.0000
  O   O23       1.0  0.4516690718509865  0.7343236642880981  0.7380498643632694  1.0000
  O   O24       1.0  0.04103444513169315  0.9973876924686921  0.26153612819154415  1.0000
