data_image0
_chemical_formula_structural       Co6H30C30O24
_chemical_formula_sum              "Co6 H30 C30 O24"
_cell_length_a       6.551310187164469
_cell_length_b       15.28383713279271
_cell_length_c       15.280771429747453
_cell_angle_alpha    117.97733546167699
_cell_angle_beta     98.21924425327006
_cell_angle_gamma    98.23642599231064

_space_group_name_H-M_alt    "P 1"
_space_group_IT_number       1

loop_
  _space_group_symop_operation_xyz
  'x, y, z'

loop_
  _atom_site_type_symbol
  _atom_site_label
  _atom_site_symmetry_multiplicity
  _atom_site_fract_x
  _atom_site_fract_y
  _atom_site_fract_z
  _atom_site_occupancy
  Co  Co1       1.0  0.03492099001714881  0.3990920399596831  0.7212356081078468  1.0000
  Co  Co2       1.0  0.3137845318537416  0.2787747101478075  0.6778940001463454  1.0000
  Co  Co3       1.0  0.6356703488657374  0.32207766412957983  0.6008596562356416  1.0000
  Co  Co4       1.0  0.9650653754036398  0.6008828158147992  0.2787547219705715  1.0000
  Co  Co5       1.0  0.6862129951252526  0.7212161761807251  0.32209406917505123  1.0000
  Co  Co6       1.0  0.36430484385957124  0.6779025337713662  0.39912593885939884  1.0000
  H   H1        1.0  0.6893569088574979  0.547130572304951  0.5699288586754108  1.0000
  H   H2        1.0  0.11925351466347675  0.43012726100518955  0.9772248643624905  1.0000
  H   H3        1.0  0.1419260457067324  0.0225345060322297  0.4528003649272492  1.0000
  H   H4        1.0  0.31067045315040087  0.45287710610890736  0.4300996973249127  1.0000
  H   H5        1.0  0.8806883915414331  0.5698483510216548  0.022784649424423355  1.0000
  H   H6        1.0  0.8580122522876864  0.9774059973735235  0.5471767588097266  1.0000
  H   H7        1.0  0.37528109029421575  0.6942743358734659  0.8570347253849918  1.0000
  H   H8        1.0  0.5187527842777158  0.14263594258950718  0.8369988333644471  1.0000
  H   H9        1.0  0.6812853564957209  0.1628605379470898  0.30563947924020607  1.0000
  H   H10       1.0  0.6245896546431949  0.3057188274768948  0.14293016144102932  1.0000
  H   H11       1.0  0.48139786661195666  0.857343512029921  0.16299471419076636  1.0000
  H   H12       1.0  0.3186950366531889  0.8372494209526168  0.6943287431698196  1.0000
  H   H13       1.0  0.39532741433526297  0.6305812306138776  0.9305530989573114  1.0000
  H   H14       1.0  0.4651668416696211  0.0693644962792277  0.6997887782270666  1.0000
  H   H15       1.0  0.7653378008768286  0.3000524128236393  0.3693476159345935  1.0000
  H   H16       1.0  0.6047372310643553  0.3694478295883954  0.06941777845159446  1.0000
  H   H17       1.0  0.534695217293816  0.9306301891436919  0.30021358352284033  1.0000
  H   H18       1.0  0.23484896151775558  0.7000300845028278  0.6307030310031294  1.0000
  H   H19       1.0  0.14053476654204639  0.6349031597978296  0.875200249397196  1.0000
  H   H20       1.0  0.26566700980718133  0.12444468112685309  0.7595928612214493  1.0000
  H   H21       1.0  0.5058970741100451  0.24043769782381466  0.3648010946301667  1.0000
  H   H22       1.0  0.8594765763711152  0.3650694073253219  0.1248088857791743  1.0000
  H   H23       1.0  0.7344167689281775  0.8756148977252067  0.24054075868527042  1.0000
  H   H24       1.0  0.49423878443045066  0.7597302851731981  0.6352112034437454  1.0000
  H   H25       1.0  0.41124440469794615  0.511967988499407  0.7695555220110464  1.0000
  H   H26       1.0  0.6417337500431016  0.23050747064436183  0.7423712590571938  1.0000
  H   H27       1.0  0.8991388089328894  0.25761999746641345  0.4880822886803102  1.0000
  H   H28       1.0  0.5887738236033186  0.4880396910108544  0.23044956146251389  1.0000
  H   H29       1.0  0.35822961216925364  0.7694612783337861  0.25759514402821543  1.0000
  H   H30       1.0  0.10082630651881883  0.7423800446263299  0.5119041295525265  1.0000
  C   C1        1.0  0.9374386724741086  0.4698847099545702  0.5701948865658579  1.0000
  C   C2        1.0  0.3671495692722572  0.42985080661549085  0.8997060306150572  1.0000
  C   C3        1.0  0.46734276390368024  0.100227197829355  0.53011595241  1.0000
  C   C4        1.0  0.0626151891308594  0.5301359459637068  0.4298499099783442  1.0000
  C   C5        1.0  0.6328232293614349  0.5701370227648113  0.10029150069772197  1.0000
  C   C6        1.0  0.5326460271557139  0.8997369737577614  0.4698577401631426  1.0000
  C   C7        1.0  0.11567302553748247  0.44253141633577536  0.5283018456289382  1.0000
  C   C8        1.0  0.5873833992704434  0.4717280392383998  0.9142762447577155  1.0000
  C   C9        1.0  0.6730277068378214  0.08577018954060381  0.5574601395836823  1.0000
  C   C10       1.0  0.8843862505212172  0.5574938203810689  0.47173823679357707  1.0000
  C   C11       1.0  0.4125755723300131  0.5282475764668035  0.08571535457143402  1.0000
  C   C12       1.0  0.32696576057602306  0.9141878769065458  0.4425070552979805  1.0000
  C   C13       1.0  0.24232421963751702  0.38053398565867264  0.5521628361852606  1.0000
  C   C14       1.0  0.6903395537869131  0.44784965431625057  0.8284571076639367  1.0000
  C   C15       1.0  0.8617410088584805  0.17165118585194253  0.6194458133799472  1.0000
  C   C16       1.0  0.7576547167968569  0.6194568971233565  0.44783978065299823  1.0000
  C   C17       1.0  0.3096289035785773  0.5521389361308593  0.17155883402264044  1.0000
  C   C18       1.0  0.1382242267305926  0.8283152724229554  0.3805320663245553  1.0000
  C   C19       1.0  0.8269063672592197  0.5268217747019861  0.5397488638269863  1.0000
  C   C20       1.0  0.2870382920279154  0.460276935103593  0.9870604563128396  1.0000
  C   C21       1.0  0.29987238105530173  0.012780456607288196  0.4731453035678612  1.0000
  C   C22       1.0  0.17314752872142236  0.4731988818268603  0.46028939095440796  1.0000
  C   C23       1.0  0.7129168315186974  0.5396941004038709  0.012931373963518053  1.0000
  C   C24       1.0  0.7000844041410302  0.9871783681194515  0.5268291259704158  1.0000
  C   C25       1.0  0.30087553137546763  0.6295282044917131  0.864403230156846  1.0000
  C   C26       1.0  0.4368512223175642  0.1353824762799931  0.7649654244948181  1.0000
  C   C27       1.0  0.6716370645358793  0.23496721963918082  0.37032985151314085  1.0000
  C   C28       1.0  0.6991123159012744  0.37047412979696753  0.13558698611059583  1.0000
  C   C29       1.0  0.5631784253907312  0.8646267285343185  0.23506791585548112  1.0000
  C   C30       1.0  0.32844389680010266  0.7651282463213817  0.6296640114006421  1.0000
  O   O1        1.0  0.8694573772389944  0.445849861115235  0.6367803194474817  1.0000
  O   O2        1.0  0.23271469115194776  0.3632236342774959  0.8090885551087937  1.0000
  O   O3        1.0  0.4234326155007366  0.19080285499609317  0.5541131917060582  1.0000
  O   O4        1.0  0.13054506027349078  0.5541356807445936  0.3632297633789108  1.0000
  O   O5        1.0  0.7672569930454004  0.6367588525047478  0.1909031300672409  1.0000
  O   O6        1.0  0.5765345628252874  0.8091582605391564  0.4458642673909239  1.0000
  O   O7        1.0  0.15331155780744873  0.32800577812320597  0.5904059910034007  1.0000
  O   O8        1.0  0.5631821472959401  0.4096901417140869  0.737684407497035  1.0000
  O   O9        1.0  0.8252450749284538  0.2623624641328989  0.6719941540244321  1.0000
  O   O10       1.0  0.846640974279687  0.6719599157728596  0.409567467727392  1.0000
  O   O11       1.0  0.4368425823948598  0.5903274607043514  0.2623270414018323  1.0000
  O   O12       1.0  0.1747128131737625  0.7376078095237588  0.3279857115814409  1.0000
  O   O13       1.0  0.42286128723460337  0.37597808655068116  0.5336549551648629  1.0000
  O   O14       1.0  0.8893822952514583  0.46627244830597897  0.8424164441030086  1.0000
  O   O15       1.0  0.04686220946279459  0.157745041319501  0.6240068244725238  1.0000
  O   O16       1.0  0.5771379628702036  0.6240227194792424  0.46636797515972017  1.0000
  O   O17       1.0  0.11057818108835701  0.5336848472948574  0.15759021919496527  1.0000
  O   O18       1.0  0.9531148823131442  0.8422420261391962  0.37598145493438306  1.0000
  O   O19       1.0  0.27849307182922445  0.5352743281825242  0.7716882051756428  1.0000
  O   O20       1.0  0.5069178849764953  0.22823481502161508  0.7636000733041611  1.0000
  O   O21       1.0  0.7430525995869318  0.23648356912549667  0.4646468081760062  1.0000
  O   O22       1.0  0.7215355152260514  0.46473564152567787  0.22832644961943768  1.0000
  O   O23       1.0  0.4931018377514249  0.7717545442011158  0.2364220366670723  1.0000
  O   O24       1.0  0.25691200908458717  0.7635180042106456  0.5352885973039606  1.0000
