data_image0
_chemical_formula_structural       NiH18C8O8
_chemical_formula_sum              "Ni1 H18 C8 O8"
_cell_length_a       4.93574745812815
_cell_length_b       6.160750953829333
_cell_length_c       9.31597937555376
_cell_angle_alpha    81.6367666587051
_cell_angle_beta     80.91614847310944
_cell_angle_gamma    77.16573083692343

_space_group_name_H-M_alt    "P 1"
_space_group_IT_number       1

loop_
  _space_group_symop_operation_xyz
  'x, y, z'

loop_
  _atom_site_type_symbol
  _atom_site_label
  _atom_site_symmetry_multiplicity
  _atom_site_fract_x
  _atom_site_fract_y
  _atom_site_fract_z
  _atom_site_occupancy
  Ni  Ni1       1.0  0.5000006960829708  0.5000039868805146  0.500002755399642  1.0000
  H   H1        1.0  0.021470338143409214  0.7558486738290993  0.4835223591338078  1.0000
  H   H2        1.0  0.9785233385252  0.24416419559264574  0.5164747703344545  1.0000
  H   H3        1.0  0.628177496178317  0.7121388491258005  0.6962870270681591  1.0000
  H   H4        1.0  0.37181398852509767  0.2878758364617156  0.3037187061974365  1.0000
  H   H5        1.0  0.10816871366764486  0.9201216976443763  0.2008535262123416  1.0000
  H   H6        1.0  0.8918441431951009  0.0798727922694766  0.7991480349525093  1.0000
  H   H7        1.0  0.8015495599642577  0.2970914376946965  0.16522742306878513  1.0000
  H   H8        1.0  0.19844829612648596  0.702896228914568  0.8347676756146853  1.0000
  H   H9        1.0  0.6216489359926526  0.20156921858993831  0.04574019345444923  1.0000
  H   H10       1.0  0.3783492328800121  0.7984316593588331  0.9542416729416986  1.0000
  H   H11       1.0  0.024680679426282333  0.5993931821825245  0.09609908412607379  1.0000
  H   H12       1.0  0.9753195438204258  0.4006095765814166  0.903895275463505  1.0000
  H   H13       1.0  0.7566842928704247  0.7748475508036065  0.0034509394396167094  1.0000
  H   H14       1.0  0.2433179125316798  0.22514676021059907  0.996539829712397  1.0000
  H   H15       1.0  0.8696280783529886  0.489301930309658  0.6771410695738994  1.0000
  H   H16       1.0  0.13036393810921962  0.5107111313772491  0.3228680059900384  1.0000
  H   H17       1.0  0.2723758844380695  0.884131525207778  0.44407778997777575  1.0000
  H   H18       1.0  0.7276097678168226  0.11586650060806392  0.555935614942122  1.0000
  C   C1        1.0  0.6987745470620439  0.8742584846546748  0.2852084195009752  1.0000
  C   C2        1.0  0.30126392586974055  0.12571399119215704  0.7147801734186531  1.0000
  C   C3        1.0  0.9082281155978648  0.9380515439331347  0.15723498053924354  1.0000
  C   C4        1.0  0.09174218417606989  0.06196195688468009  0.8428018553855097  1.0000
  C   C5        1.0  0.8263922373843186  0.17782706710545432  0.08496993300629192  1.0000
  C   C6        1.0  0.17362762272467333  0.8221621816248117  0.9150186390376831  1.0000
  C   C7        1.0  0.9563580444781221  0.769955806233824  0.043859346940372766  1.0000
  C   C8        1.0  0.04366418035728967  0.23004665160836174  0.9561158004691421  1.0000
  O   O1        1.0  0.77761626697324  0.6864196821745667  0.36465643639179746  1.0000
  O   O2        1.0  0.22235890371023706  0.3136100119590424  0.6353438777686051  1.0000
  O   O3        1.0  0.18526979966560472  0.7789308519302978  0.5233036519731514  1.0000
  O   O4        1.0  0.8147215464531283  0.22107723662553272  0.47670923169740587  1.0000
  O   O5        1.0  0.6651486803135069  0.5499906494884003  0.6832640748548614  1.0000
  O   O6        1.0  0.33486163088803517  0.4500073668725335  0.316748090421946  1.0000
  O   O7        1.0  0.4584089051111703  0.9984337242519814  0.3101445861837817  1.0000
  O   O8        1.0  0.5415969532558265  0.001522068953377698  0.6898509733351901  1.0000
