data_image0
_chemical_formula_structural       Hf6H28C78N6O32
_chemical_formula_sum              "Hf6 H28 C78 N6 O32"
_cell_length_a       14.911735985102995
_cell_length_b       14.875671438752674
_cell_length_c       14.896307614735013
_cell_angle_alpha    90.53339242556379
_cell_angle_beta     90.68576297533
_cell_angle_gamma    90.71185105550408

_space_group_name_H-M_alt    "P 1"
_space_group_IT_number       1

loop_
  _space_group_symop_operation_xyz
  'x, y, z'

loop_
  _atom_site_type_symbol
  _atom_site_label
  _atom_site_symmetry_multiplicity
  _atom_site_fract_x
  _atom_site_fract_y
  _atom_site_fract_z
  _atom_site_occupancy
  Hf  Hf1       1.0  0.975389698070842  0.8326817794468014  0.7824319229970698  1.0000
  Hf  Hf2       1.0  0.8314994755937519  0.019118151975362697  0.7394225798376224  1.0000
  Hf  Hf3       1.0  0.0073156643157759  0.9107194345588638  0.0018340933710803027  1.0000
  Hf  Hf4       1.0  0.7887251534131324  0.8749147877375733  0.9259818050564304  1.0000
  Hf  Hf5       1.0  0.0506663542164389  0.05185570735854839  0.8179198976811504  1.0000
  Hf  Hf6       1.0  0.8666439805817066  0.09469988683887458  0.9582588030662718  1.0000
  H   H1        1.0  0.14463607839216053  0.5896045435269028  0.16735521655023428  1.0000
  H   H2        1.0  0.11317135879215101  0.40971713482648636  0.17635177317573889  1.0000
  H   H3        1.0  0.6784181791610352  0.3908659766039903  0.623765301904612  1.0000
  H   H4        1.0  0.6622025863899808  0.5723748969668564  0.6250315746321106  1.0000
  H   H5        1.0  0.5467517148363259  0.2596118731048662  0.09307985286026367  1.0000
  H   H6        1.0  0.36735315464808593  0.2695381626362021  0.0621754186207184  1.0000
  H   H7        1.0  0.34703765673940984  0.7180342254877132  0.6312639425803324  1.0000
  H   H8        1.0  0.5279347700813233  0.7186668806242763  0.6141802045450717  1.0000
  H   H9        1.0  0.21418046059023513  0.18630570256226517  0.4978081411375256  1.0000
  H   H10       1.0  0.2254351606511023  0.1555797516617332  0.3183923566801568  1.0000
  H   H11       1.0  0.6729793048408795  0.7213847311883725  0.2967260621705278  1.0000
  H   H12       1.0  0.674901932355958  0.7062584986893653  0.4781302244627028  1.0000
  H   H13       1.0  0.7848641720145437  0.8281731127034601  0.7351360657975333  1.0000
  H   H14       1.0  0.13606814942399129  0.8963277429610271  0.8645098804498872  1.0000
  H   H15       1.0  0.8517471370664326  0.9566422327046948  0.08682781018381289  1.0000
  H   H16       1.0  0.9132775942851057  0.1804492606637709  0.8028964515762027  1.0000
  H   H17       1.0  0.07457533696850761  0.4334219188225815  0.4819749172405209  1.0000
  H   H18       1.0  0.9305163969477519  0.3301581943011626  0.24929735647100415  1.0000
  H   H19       1.0  0.8353185082704967  0.46515486581770193  0.2514567696168015  1.0000
  H   H20       1.0  0.9792853688673591  0.5670135696680415  0.4843141109580741  1.0000
  H   H21       1.0  0.5318640574848317  0.1192844907048212  0.3406791184770199  1.0000
  H   H22       1.0  0.2995626648936067  0.9746573332138269  0.23754651119705975  1.0000
  H   H23       1.0  0.30110776166053915  0.8797700103301763  0.3729420354137928  1.0000
  H   H24       1.0  0.5336562235763793  0.0244124670875792  0.47506260919588067  1.0000
  H   H25       1.0  0.2854629053020048  0.3439295625821045  0.8807904931883284  1.0000
  H   H26       1.0  0.3912290251205519  0.5752032164653259  0.025569775677361396  1.0000
  H   H27       1.0  0.5248276374536687  0.5766876046178027  0.9302310221232728  1.0000
  H   H28       1.0  0.420105659206648  0.3452702504259547  0.7854699260497424  1.0000
  C   C1        1.0  0.2272268481862483  0.5523584323240129  0.051261903949843195  1.0000
  C   C2        1.0  0.17566145860874371  0.5370608754764702  0.1279491929723946  1.0000
  C   C3        1.0  0.1591132357429643  0.44447016966730496  0.13218781918893535  1.0000
  C   C4        1.0  0.20128792283548344  0.4031056991774945  0.0590816640909608  1.0000
  C   C5        1.0  0.5930430827472578  0.3975509675870228  0.7431501161468856  1.0000
  C   C6        1.0  0.6373507479381785  0.43115683325243026  0.6678365901237979  1.0000
  C   C7        1.0  0.6291425627338398  0.5248021944352388  0.6687996878576782  1.0000
  C   C8        1.0  0.5786828243555463  0.548551407879792  0.7438657034984286  1.0000
  C   C9        1.0  0.5088126078803583  0.14382464286237004  0.1765836155728593  1.0000
  C   C10       1.0  0.49409255895147913  0.220521619742911  0.12455318358549046  1.0000
  C   C11       1.0  0.4017035717417771  0.22526897504036467  0.10835481106717278  1.0000
  C   C12       1.0  0.35988853651089414  0.15245795889561722  0.15118182091573115  1.0000
  C   C13       1.0  0.3540821240159246  0.8375927165705547  0.5454465273003848  1.0000
  C   C14       1.0  0.3873081811936743  0.762158893622285  0.5899585571945065  1.0000
  C   C15       1.0  0.4806714590229291  0.7627397742497877  0.5812579064458488  1.0000
  C   C16       1.0  0.504649820111375  0.8377514138007668  0.5303772172537718  1.0000
  C   C17       1.0  0.09921996529087813  0.2697917988507186  0.45890878120008677  1.0000
  C   C18       1.0  0.1756706227255691  0.2177891736722656  0.44474599786277463  1.0000
  C   C19       1.0  0.18097646583024843  0.20162886510263425  0.352343545350763  1.0000
  C   C20       1.0  0.1085678249069773  0.24429496141451065  0.3099803155393913  1.0000
  C   C21       1.0  0.7926184174582573  0.6363759388460649  0.3041644216167896  1.0000
  C   C22       1.0  0.7173792401266682  0.6807437275604968  0.33730269196728097  1.0000
  C   C23       1.0  0.7186502113968771  0.6730556888704128  0.4309251553524263  1.0000
  C   C24       1.0  0.7937587150555102  0.622731489594358  0.4550360662922229  1.0000
  C   C25       1.0  0.10918176465100521  0.7408347035054703  0.9226995433823217  1.0000
  C   C26       1.0  0.9045501753770325  0.7056583389996547  0.6789149894622283  1.0000
  C   C27       1.0  0.6609649758401872  0.7726032063916504  0.8546723370206947  1.0000
  C   C28       1.0  0.1427147288024884  0.9194586028973788  0.678548600033956  1.0000
  C   C29       1.0  0.7271186477853888  0.18635049787858554  0.8253682197261583  1.0000
  C   C30       1.0  0.9830826232868688  0.0892443971909316  0.1298382908800377  1.0000
  C   C31       1.0  0.729078769906238  0.9480009169799783  0.6116476576945898  1.0000
  C   C32       1.0  0.9708683976373466  0.15349817444942465  0.6478160831085729  1.0000
  C   C33       1.0  0.1785817999924575  0.0280592748523247  0.9968219980246429  1.0000
  C   C34       1.0  0.8752111551002103  0.7703935257032339  0.09330791276504159  1.0000
  C   C35       1.0  0.6966501511807479  0.0143700525077293  0.059539381948312084  1.0000
  C   C36       1.0  0.045339142997441705  0.22307316010373762  0.9347069952091329  1.0000
  C   C37       1.0  0.8587111979885053  0.7007261665687424  0.1574817661283774  1.0000
  C   C38       1.0  0.8324201284614787  0.6591760416968668  0.2227673472101586  1.0000
  C   C39       1.0  0.862399921715351  0.6436157462493454  0.6153111259737186  1.0000
  C   C40       1.0  0.8317400252050078  0.621912884699867  0.54147972562982  1.0000
  C   C41       1.0  0.0324220601292495  0.1563701991270108  0.1797762882760807  1.0000
  C   C42       1.0  0.0666823630281712  0.21104960049152774  0.23206462340531428  1.0000
  C   C43       1.0  0.9971319443183405  0.22590332136019947  0.590467429661693  1.0000
  C   C44       1.0  0.0440363941660493  0.2607476935113411  0.5332364321197715  1.0000
  C   C45       1.0  0.0205948250811616  0.43907418516856456  0.4326003365889689  1.0000
  C   C46       1.0  0.0071311479512701  0.3703851382027423  0.3680659733012277  1.0000
  C   C47       1.0  0.9418239700076753  0.3817297324338398  0.30078497937468274  1.0000
  C   C48       1.0  0.8882566931250084  0.4582606700559494  0.3018991922208726  1.0000
  C   C49       1.0  0.8988887045252341  0.5241979775567387  0.3695156630864175  1.0000
  C   C50       1.0  0.9673069750052434  0.5149329288945806  0.43368183494251156  1.0000
  C   C51       1.0  0.2727890724716673  0.8773623804288632  0.5682230749786612  1.0000
  C   C52       1.0  0.20748614915871147  0.9029638726907336  0.6097849628547465  1.0000
  C   C53       1.0  0.5912725591426807  0.8752477270589762  0.5287470511848866  1.0000
  C   C54       1.0  0.6653662590086499  0.905732731789989  0.5497651281674506  1.0000
  C   C55       1.0  0.22865170496375245  0.0772610352457903  0.063987483290461  1.0000
  C   C56       1.0  0.28168774700127125  0.11065934494796892  0.11848524189196748  1.0000
  C   C57       1.0  0.5828600207469207  0.08843092483351  0.16655653888959418  1.0000
  C   C58       1.0  0.6395164708269692  0.04108026607153899  0.13165544725516296  1.0000
  C   C59       1.0  0.4825840144791443  0.06512966150386748  0.3465232036052725  1.0000
  C   C60       1.0  0.41823113792812455  0.05144451406698639  0.2777318662337862  1.0000
  C   C61       1.0  0.35085023771011237  0.9861498144380434  0.28928384816246216  1.0000
  C   C62       1.0  0.3516652716293295  0.9327373175905647  0.36609724378254055  1.0000
  C   C63       1.0  0.4191088929633224  0.9435675774690394  0.4322039748522144  1.0000
  C   C64       1.0  0.4833146645601403  0.0121015021999966  0.4227729017386039  1.0000
  C   C65       1.0  0.6577550629419235  0.25059324029110996  0.8086491236387585  1.0000
  C   C66       1.0  0.6160738917327181  0.3159598997230546  0.782823533286013  1.0000
  C   C67       1.0  0.5988784908431697  0.7092063871302371  0.812185716631866  1.0000
  C   C68       1.0  0.5775207190446993  0.6351582556242191  0.781601909190712  1.0000
  C   C69       1.0  0.1679267463234027  0.3251841054365769  0.0171543384065131  1.0000
  C   C70       1.0  0.11261616406519441  0.27285568273706673  0.9839429725368729  1.0000
  C   C71       1.0  0.2170336448312398  0.6270807580094983  0.9964198114317069  1.0000
  C   C72       1.0  0.18163124589723623  0.6840259071558916  0.949448701573466  1.0000
  C   C73       1.0  0.3375830789473397  0.3949406069731011  0.8921856172273264  1.0000
  C   C74       1.0  0.32707544755493956  0.4620016189593343  0.9578262896813994  1.0000
  C   C75       1.0  0.396356777651647  0.5259793804411145  0.971413185318802  1.0000
  C   C76       1.0  0.4721540400962709  0.5265998476139018  0.9181269202918613  1.0000
  C   C77       1.0  0.48066862273701366  0.46259839413065856  0.8494610045766391  1.0000
  C   C78       1.0  0.4140066874984498  0.3956003077846404  0.8386028176080486  1.0000
  N   N1        1.0  0.2507812904032178  0.46934671378173226  0.013975567319874897  1.0000
  N   N2        1.0  0.5526384378853207  0.4694562737852976  0.7875854985195332  1.0000
  N   N3        1.0  0.42573697242755065  0.10715301455837077  0.20081892205105586  1.0000
  N   N4        1.0  0.42593966917420545  0.8818352507422703  0.504565747415654  1.0000
  N   N5        1.0  0.0629529180036386  0.2937464643848813  0.3756153209269043  1.0000
  N   N6        1.0  0.8372142014877613  0.5963071781663557  0.3762894583131811  1.0000
  O   O1        1.0  0.0815335543600355  0.7888131303420562  0.9883031569994782  1.0000
  O   O2        1.0  0.931036252567381  0.7813416011485472  0.6467607624748553  1.0000
  O   O3        1.0  0.7358796462509432  0.7397944606354443  0.8820453070114737  1.0000
  O   O4        1.0  0.08916332514039743  0.8537503645392237  0.6936779175099446  1.0000
  O   O5        1.0  0.1459797877536886  0.9944165805687745  0.7215291959943568  1.0000
  O   O6        1.0  0.6476965003119801  0.8567392755730336  0.8630750338631257  1.0000
  O   O7        1.0  0.9134326372258387  0.6914546570130539  0.7628575483246676  1.0000
  O   O8        1.0  0.0765766733901998  0.7398944687834472  0.8429842994246781  1.0000
  O   O9        1.0  0.9571514309285333  0.967156799970695  0.7542294880698888  1.0000
  O   O10       1.0  0.922980124958734  0.8469919241051826  0.9079203234996169  1.0000
  O   O11       1.0  0.82270165251618  0.866341569883616  0.7733050784046682  1.0000
  O   O12       1.0  0.07349762211837431  0.9133946295795711  0.863996566319315  1.0000
  O   O13       1.0  0.7425904604402191  0.1328986670338494  0.7599012786379119  1.0000
  O   O14       1.0  0.013809994862462803  0.009984276571685796  0.12366583769465928  1.0000
  O   O15       1.0  0.6966186905480144  0.9752925315081525  0.686702145567551  1.0000
  O   O16       1.0  0.0366325661199127  0.12639073605222959  0.6960043780263304  1.0000
  O   O17       1.0  0.17247056759115512  0.05900081008417151  0.9176079387237122  1.0000
  O   O18       1.0  0.8097487756141463  0.7855822734419887  0.039661243272050194  1.0000
  O   O19       1.0  0.7445490379297085  0.0802678034540989  0.031867342088702295  1.0000
  O   O20       1.0  0.9662709187969442  0.2167408439487488  0.9655070002767868  1.0000
  O   O21       1.0  0.6960250553615737  0.9344866426618452  0.027256569188580198  1.0000
  O   O22       1.0  0.0721433132608524  0.18859265448733  0.8602913806930983  1.0000
  O   O23       1.0  0.8130252764855969  0.9562304956084519  0.5981917269903576  1.0000
  O   O24       1.0  0.9497399323228208  0.8140239213038569  0.0971277928099994  1.0000
  O   O25       1.0  0.1437076998207019  0.9536235360516725  0.023727950829588496  1.0000
  O   O26       1.0  0.8913977856785492  0.1204129356859056  0.6468910739995407  1.0000
  O   O27       1.0  0.7702522583929011  0.19001562126592828  0.9002044243609999  1.0000
  O   O28       1.0  0.9088318938973144  0.11620003599846739  0.09503398166522457  1.0000
  O   O29       1.0  0.9885193537119719  0.0327873008342365  0.9396948166758604  1.0000
  O   O30       1.0  0.8032796177848525  0.0008263830558732029  0.873684620797867  1.0000
  O   O31       1.0  0.8690383513007235  0.9565039305328683  0.024258650272642502  1.0000
  O   O32       1.0  0.9128401692768976  0.11772319487100451  0.8201213908629085  1.0000
