data_image0
_chemical_formula_structural       Cd4H32C32N24Cl4O16
_chemical_formula_sum              "Cd4 H32 C32 N24 Cl4 O16"
_cell_length_a       7.655887706186428
_cell_length_b       12.2911103860315
_cell_length_c       15.382843841141433
_cell_angle_alpha    104.0432012463521
_cell_angle_beta     90.00183480612495
_cell_angle_gamma    90.0005635066979

_space_group_name_H-M_alt    "P 1"
_space_group_IT_number       1

loop_
  _space_group_symop_operation_xyz
  'x, y, z'

loop_
  _atom_site_type_symbol
  _atom_site_label
  _atom_site_symmetry_multiplicity
  _atom_site_fract_x
  _atom_site_fract_y
  _atom_site_fract_z
  _atom_site_occupancy
  Cd  Cd1       1.0  0.8541258587949939  0.0030108230348560054  0.7422051774726698  1.0000
  Cd  Cd2       1.0  0.35413226474333465  0.9969822207138889  0.7577827735778655  1.0000
  Cd  Cd3       1.0  0.1458547861029658  0.9969899760730315  0.257792741390425  1.0000
  Cd  Cd4       1.0  0.6458562167458339  0.003013089027554402  0.24220119123869216  1.0000
  H   H1        1.0  0.8870954044433076  0.6990605145442502  0.6968616347855274  1.0000
  H   H2        1.0  0.38710935037138233  0.3009333608005278  0.8031399747257382  1.0000
  H   H3        1.0  0.11290352804833499  0.30094546396129124  0.30316514214103313  1.0000
  H   H4        1.0  0.6128830487201924  0.6990518773879445  0.19681818948678406  1.0000
  H   H5        1.0  0.33775453522117965  0.6956425166672845  0.728661613691898  1.0000
  H   H6        1.0  0.8377640803019304  0.3043441637258725  0.7713399436117003  1.0000
  H   H7        1.0  0.6622352527332608  0.3043398618324602  0.27133377526627817  1.0000
  H   H8        1.0  0.16221395242960307  0.6956601495196395  0.2286631341738073  1.0000
  H   H9        1.0  0.7427006497016747  0.5064836258070926  0.6651705342889969  1.0000
  H   H10       1.0  0.2427355012117758  0.49349823776282886  0.8348176702594117  1.0000
  H   H11       1.0  0.2573100381456612  0.49351790839963877  0.33484832191953734  1.0000
  H   H12       1.0  0.7572751851688438  0.5064844280045974  0.1651621608063678  1.0000
  H   H13       1.0  0.5150645770182862  0.5046545133062138  0.6415351560815453  1.0000
  H   H14       1.0  0.0151180325370106  0.4953453025475625  0.8584877546762186  1.0000
  H   H15       1.0  0.4849487231683226  0.4953354218613982  0.3584855995005185  1.0000
  H   H16       1.0  0.9848978791640733  0.5046652353876553  0.14150274139230132  1.0000
  H   H17       1.0  0.7941058141838157  0.8937914737167675  0.9300364762073772  1.0000
  H   H18       1.0  0.2940878524760251  0.1061969072400686  0.5699555968747348  1.0000
  H   H19       1.0  0.20589834185354758  0.1061917891438071  0.0699603661828334  1.0000
  H   H20       1.0  0.7058993226884879  0.893786688607449  0.43002699586186577  1.0000
  H   H21       1.0  0.3369918501783076  0.8316290114017448  0.9325515774893633  1.0000
  H   H22       1.0  0.8369946117736617  0.16837146432003888  0.5674634051642118  1.0000
  H   H23       1.0  0.6630149187306885  0.16837790891208468  0.0674545518996865  1.0000
  H   H24       1.0  0.16301215728595514  0.8316273481257639  0.43254912823687874  1.0000
  H   H25       1.0  0.9626158077269764  0.8120100379647397  0.07191773778543364  1.0000
  H   H26       1.0  0.4626141532044273  0.18799748759662555  0.42808315061296315  1.0000
  H   H27       1.0  0.0373713684105326  0.1880026587988866  0.9280867874741362  1.0000
  H   H28       1.0  0.5373743289869565  0.8120200325554165  0.5719163545397237  1.0000
  H   H29       1.0  0.14680750505384313  0.7303662003804163  0.026451521277635913  1.0000
  H   H30       1.0  0.6468288135250474  0.2696370133877082  0.47354635377725884  1.0000
  H   H31       1.0  0.8531888145048684  0.2696433267805389  0.9735576593746132  1.0000
  H   H32       1.0  0.3532001597640573  0.7303567347217098  0.5264405933315217  1.0000
  C   C1        1.0  0.7527288395109794  0.7283795347350549  0.7079600488608977  1.0000
  C   C2        1.0  0.25274026003096134  0.271608907476363  0.792046354242153  1.0000
  C   C3        1.0  0.24726748005033977  0.27161594723170174  0.29205255977547045  1.0000
  C   C4        1.0  0.7472443029014285  0.7283797873359178  0.2079390697602151  1.0000
  C   C5        1.0  0.4703101849489997  0.7268773631629201  0.7257416168097137  1.0000
  C   C6        1.0  0.9703246491201655  0.27311044633265874  0.7742517746324111  1.0000
  C   C7        1.0  0.52967568443443  0.2731116072552027  0.2742516586106873  1.0000
  C   C8        1.0  0.029662526431302197  0.7268884234868622  0.22573865768568885  1.0000
  C   C9        1.0  0.6149230307564367  0.5382592474583419  0.6920816207565964  1.0000
  C   C10       1.0  0.1149359657027773  0.4617368837282855  0.8079246349384945  1.0000
  C   C11       1.0  0.385083738560354  0.4617423096928022  0.3079378897017975  1.0000
  C   C12       1.0  0.8850629653069219  0.5382617794587502  0.1920599089266872  1.0000
  C   C13       1.0  0.5707412434352577  0.4989172893648827  0.7758815949941109  1.0000
  C   C14       1.0  0.0707073657813382  0.5010722101400518  0.7241390919894857  1.0000
  C   C15       1.0  0.4292772818278792  0.5010829126908618  0.22414678606192956  1.0000
  C   C16       1.0  0.9292967902660366  0.49892758998813497  0.2758541023511257  1.0000
  C   C17       1.0  0.9327450662677067  0.8954101218728282  0.9162597127158707  1.0000
  C   C18       1.0  0.4327293131840477  0.10458632439333118  0.5837300380630737  1.0000
  C   C19       1.0  0.0672577834241608  0.10458206422851647  0.083730216106531  1.0000
  C   C20       1.0  0.5672552498170446  0.8954057467720915  0.41625661918104845  1.0000
  C   C21       1.0  0.2117494091296805  0.8634971251111594  0.9169465054217554  1.0000
  C   C22       1.0  0.7117435667433583  0.1365135586085273  0.5830650564906039  1.0000
  C   C23       1.0  0.7882573595666074  0.1365070964304067  0.08305395547777292  1.0000
  C   C24       1.0  0.2882553649711568  0.8634932697949083  0.4169384556948117  1.0000
  C   C25       1.0  0.022706643298164405  0.7646793234111231  0.009499068398348222  1.0000
  C   C26       1.0  0.5227180932556194  0.23533261827514448  0.4905003505271281  1.0000
  C   C27       1.0  0.9772896761706136  0.2353284581569142  0.9905078599233051  1.0000
  C   C28       1.0  0.4773082680903827  0.7646665273640493  0.5094979335380074  1.0000
  C   C29       1.0  0.8997780352034397  0.669145338547061  0.9629188529269188  1.0000
  C   C30       1.0  0.3997836748215917  0.3308745079167608  0.5370828837596875  1.0000
  C   C31       1.0  0.10023657097734431  0.3308609271966745  0.0370923660618701  1.0000
  C   C32       1.0  0.6002661984669545  0.6691492484730048  0.4629281036447211  1.0000
  N   N1        1.0  0.6976797975224899  0.8334498919481276  0.7244337690412337  1.0000
  N   N2        1.0  0.19769756148900802  0.16653842264979352  0.7755620083353492  1.0000
  N   N3        1.0  0.3023073784938504  0.16654615271519896  0.2755711328484907  1.0000
  N   N4        1.0  0.8022987570137801  0.8334518340894521  0.2244204338285983  1.0000
  N   N5        1.0  0.518932779345505  0.832355473137099  0.7359407240475024  1.0000
  N   N6        1.0  0.018948479267066894  0.1676351299801624  0.7640559433947942  1.0000
  N   N7        1.0  0.4810570086361708  0.16763519696298346  0.2640534951697617  1.0000
  N   N8        1.0  0.981045227217308  0.8323645782228796  0.23593463371949508  1.0000
  N   N9        1.0  0.6135099461217591  0.6597200420160192  0.7080038848459511  1.0000
  N   N10       1.0  0.11352769248259878  0.3402737419365565  0.7920071463968201  1.0000
  N   N11       1.0  0.3864915985004629  0.3402782535851898  0.2920176637447653  1.0000
  N   N12       1.0  0.8864725447325907  0.6597232904976238  0.2079784165685581  1.0000
  N   N13       1.0  0.006882419151679599  0.9506634671658248  0.8625465428939664  1.0000
  N   N14       1.0  0.5068631664823542  0.04932921618177492  0.637441843444492  1.0000
  N   N15       1.0  0.993109981311676  0.04933062523522119  0.1374502181555215  1.0000
  N   N16       1.0  0.49312009026678544  0.9506611323498931  0.36254321574157444  1.0000
  N   N17       1.0  0.1835345419197409  0.9303969869934293  0.8627869556189938  1.0000
  N   N18       1.0  0.6835155993543651  0.06959971193111161  0.6372146031019386  1.0000
  N   N19       1.0  0.8164656958668742  0.0696080728579247  0.1372136499632717  1.0000
  N   N20       1.0  0.3164650453521176  0.9303967576442885  0.36277866636049083  1.0000
  N   N21       1.0  0.057214453214008594  0.8405886508023883  0.952378701238729  1.0000
  N   N22       1.0  0.5572078971052435  0.1594217582243971  0.5476245771484685  1.0000
  N   N23       1.0  0.9427897030208287  0.159408863951235  0.047620601722393005  1.0000
  N   N24       1.0  0.44278711591149295  0.8405840940110351  0.452374864560106  1.0000
  Cl  Cl1       1.0  0.6092354982658038  0.0923998116170992  0.8639132230686856  1.0000
  Cl  Cl2       1.0  0.1092244277981251  0.9075851270505384  0.6360845091672334  1.0000
  Cl  Cl3       1.0  0.3907438403858166  0.9075901808431229  0.1360854313055811  1.0000
  Cl  Cl4       1.0  0.8907562169654426  0.0924138805313532  0.3639098487974835  1.0000
  O   O1        1.0  0.48579356864969714  0.561677690565503  0.8389812591611729  1.0000
  O   O2        1.0  0.9857325237269025  0.4383092596793928  0.661030431058599  1.0000
  O   O3        1.0  0.514231487302787  0.4383247509685972  0.16103970476329724  1.0000
  O   O4        1.0  0.014266407225108002  0.5617042181488685  0.33894886671026114  1.0000
  O   O5        1.0  0.6114203130206803  0.39935906788818426  0.7778809651253553  1.0000
  O   O6        1.0  0.11139573817810339  0.6006447294270174  0.7221311120402875  1.0000
  O   O7        1.0  0.38858776271531076  0.6006452110091375  0.22214486811780185  1.0000
  O   O8        1.0  0.888595356254008  0.3993635689266312  0.2778668010009753  1.0000
  O   O9        1.0  0.8567913852532455  0.5992083282649573  0.006802924532408388  1.0000
  O   O10       1.0  0.3568458692043635  0.4008146090339863  0.49319444086854264  1.0000
  O   O11       1.0  0.14317489199121516  0.4008035989336634  0.9932034186578563  1.0000
  O   O12       1.0  0.6432026987066806  0.5992389028788594  0.5068333895158333  1.0000
  O   O13       1.0  0.8481888937789178  0.6644474867391139  0.8839039464349201  1.0000
  O   O14       1.0  0.3482116891683518  0.3355546889210572  0.6160848394765567  1.0000
  O   O15       1.0  0.15181003766641507  0.33553675223785717  0.1160969663527283  1.0000
  O   O16       1.0  0.6518251222221351  0.6644508304675297  0.3839288521011923  1.0000
