data_image0
_chemical_formula_structural       Zn8H72C104N16O32
_chemical_formula_sum              "Zn8 H72 C104 N16 O32"
_cell_length_a       10.99883361997103
_cell_length_b       17.55513701336962
_cell_length_c       20.543571995881198
_cell_angle_alpha    110.18732148349844
_cell_angle_beta     93.79885023522431
_cell_angle_gamma    89.89979347677892

_space_group_name_H-M_alt    "P 1"
_space_group_IT_number       1

loop_
  _space_group_symop_operation_xyz
  'x, y, z'

loop_
  _atom_site_type_symbol
  _atom_site_label
  _atom_site_symmetry_multiplicity
  _atom_site_fract_x
  _atom_site_fract_y
  _atom_site_fract_z
  _atom_site_occupancy
  Zn  Zn1       1.0  0.8113779980258047  0.5616835227179778  0.7744082905863436  1.0000
  Zn  Zn2       1.0  0.1886227462324328  0.4383149867945306  0.22559135806384484  1.0000
  Zn  Zn3       1.0  0.8184124458396981  0.4460212738019537  0.8447291761649538  1.0000
  Zn  Zn4       1.0  0.18158473747006104  0.5539790545597543  0.15527236042870382  1.0000
  Zn  Zn5       1.0  0.8610092792530041  0.06270819681508749  0.2794610196569209  1.0000
  Zn  Zn6       1.0  0.13898609036412074  0.9372927582011741  0.7205386976756712  1.0000
  Zn  Zn7       1.0  0.8736795878713579  0.9465684248757714  0.3504782595548619  1.0000
  Zn  Zn8       1.0  0.1263158095603742  0.053433133421883404  0.649522126440985  1.0000
  H   H1        1.0  0.7788666144739979  0.782361081252816  0.9547322138792749  1.0000
  H   H2        1.0  0.22114141084447433  0.21763741779790283  0.04526669930303479  1.0000
  H   H3        1.0  0.7869073087241746  0.8950997736062761  0.07106069614149386  1.0000
  H   H4        1.0  0.2130971123823286  0.1048999561087669  0.9289374932000882  1.0000
  H   H5        1.0  0.8696272229228657  0.7231803342488308  0.1726379639527451  1.0000
  H   H6        1.0  0.13037088771294245  0.27682060646539963  0.8273628134750338  1.0000
  H   H7        1.0  0.8575408498494497  0.6100746413834205  0.05718194206740186  1.0000
  H   H8        1.0  0.142461776096404  0.3899250664152235  0.9428195887126735  1.0000
  H   H9        1.0  0.4268521548255039  0.6045602274205565  0.7673281204946604  1.0000
  H   H10       1.0  0.5731414165478484  0.3954413391537416  0.2326717206978017  1.0000
  H   H11       1.0  0.19846989705097684  0.606523896882898  0.7675785457684156  1.0000
  H   H12       1.0  0.8015235622848069  0.3934746268655332  0.23242135256941757  1.0000
  H   H13       1.0  0.20540808363316648  0.409920113355959  0.8468277880604729  1.0000
  H   H14       1.0  0.7945927123920884  0.5900796064934613  0.1531727121359907  1.0000
  H   H15       1.0  0.4330369811351319  0.4051151064869103  0.8429629400841064  1.0000
  H   H16       1.0  0.566963882885112  0.5948864383032062  0.15703762298117852  1.0000
  H   H17       1.0  0.8273254689937987  0.3977657510338092  0.5655290222905193  1.0000
  H   H18       1.0  0.1726717861731615  0.602236398494455  0.43447306295220045  1.0000
  H   H19       1.0  0.8597102821287949  0.2849863558734001  0.4521583556533243  1.0000
  H   H20       1.0  0.14028698926612296  0.7150164082586488  0.5478429409119414  1.0000
  H   H21       1.0  0.8724194087871384  0.11324968454184164  0.5589205690803211  1.0000
  H   H22       1.0  0.1275787142144154  0.8867518745502994  0.4410789338897771  1.0000
  H   H23       1.0  0.8481272866872447  0.22541291931718632  0.6715080692501516  1.0000
  H   H24       1.0  0.15186897393777335  0.7745874226181684  0.3284919804912292  1.0000
  H   H25       1.0  0.8182831619801547  0.4612497666405277  0.9931224394462317  1.0000
  H   H26       1.0  0.1817194036951548  0.538748108669161  0.0068800000254897  1.0000
  H   H27       1.0  0.8552799971486635  0.37224256765974684  0.06378354927442592  1.0000
  H   H28       1.0  0.1447243034167371  0.627753497077386  0.936216457450449  1.0000
  H   H29       1.0  0.8709247663385754  0.16970326029705518  0.8700686420908991  1.0000
  H   H30       1.0  0.12907599028540773  0.8302958675933709  0.12992973210160846  1.0000
  H   H31       1.0  0.8327050992045599  0.2679312492487115  0.8082048918256531  1.0000
  H   H32       1.0  0.16729662800896253  0.732069079179098  0.19179533498516574  1.0000
  H   H33       1.0  0.7680951368851368  0.12796332242422892  0.0589647199331651  1.0000
  H   H34       1.0  0.23191198119747014  0.8720351751036121  0.9410346495178032  1.0000
  H   H35       1.0  0.7361886873553305  0.06333755010523129  0.14789735097265577  1.0000
  H   H36       1.0  0.26381580096706614  0.9366633748502057  0.8521036330361368  1.0000
  H   H37       1.0  0.0023845126273727  0.20993484007233582  0.2857830799968326  1.0000
  H   H38       1.0  0.9976182014036539  0.7900673034966562  0.7142182107548507  1.0000
  H   H39       1.0  0.0464116150415279  0.2814299459234136  0.2034691783842177  1.0000
  H   H40       1.0  0.9535937287497165  0.7185697702179823  0.796530497809641  1.0000
  H   H41       1.0  0.4716672931577578  0.09970776260921353  0.2672431907345683  1.0000
  H   H42       1.0  0.528328995281882  0.9002931826075342  0.732757527670067  1.0000
  H   H43       1.0  0.24182782230750632  0.0928423578739341  0.2635888102156372  1.0000
  H   H44       1.0  0.7581684344552997  0.9071579878355469  0.7364107537455098  1.0000
  H   H45       1.0  0.264325464369172  0.9121149723377543  0.3608968735307343  1.0000
  H   H46       1.0  0.7356707089497762  0.08788356352756213  0.6391006844406489  1.0000
  H   H47       1.0  0.4926415070571082  0.9159306076771828  0.3607271008338984  1.0000
  H   H48       1.0  0.5073565556738943  0.0840691189260099  0.6392733108278463  1.0000
  H   H49       1.0  0.852959923695032  0.9583292646376408  0.49867962412431405  1.0000
  H   H50       1.0  0.14703914208144653  0.04167289171050471  0.5013210628008407  1.0000
  H   H51       1.0  0.7951715526279846  0.8659482506929097  0.560763994580931  1.0000
  H   H52       1.0  0.2048330392284399  0.13405509493634332  0.4392386925204119  1.0000
  H   H53       1.0  0.7950905033492435  0.6674183465984174  0.36319571551744195  1.0000
  H   H54       1.0  0.20491495942490456  0.3325837751202841  0.6368076068899029  1.0000
  H   H55       1.0  0.8536725221837713  0.7689395844446028  0.3102055468566221  1.0000
  H   H56       1.0  0.1463310589027529  0.2310613389879564  0.6897958934208361  1.0000
  H   H57       1.0  0.5847008585895922  0.754606304214889  0.6745619924705153  1.0000
  H   H58       1.0  0.4153000208795206  0.2453952254786955  0.3254405137157121  1.0000
  H   H59       1.0  0.6425797496504161  0.6898919797431163  0.7626303690565094  1.0000
  H   H60       1.0  0.357418272900219  0.31010652520077303  0.2373706483996614  1.0000
  H   H61       1.0  0.9408385875589078  0.5810050438124963  0.6582549479723028  1.0000
  H   H62       1.0  0.0591576290235309  0.418994080237688  0.34174522178327743  1.0000
  H   H63       1.0  0.896515038305374  0.6402147034006234  0.5643338020747848  1.0000
  H   H64       1.0  0.10348673681294683  0.3597868391382306  0.43566679050206847  1.0000
  H   H65       1.0  0.9449670993336171  0.16124632013331566  0.9803907473521464  1.0000
  H   H66       1.0  0.055037289316949504  0.838752180374165  0.019609019344336846  1.0000
  H   H67       1.0  0.019715214072803605  0.2820945312803859  0.08918850201315111  1.0000
  H   H68       1.0  0.980289166853332  0.7179039767753538  0.910810293122857  1.0000
  H   H69       1.0  0.7148327584442812  0.650356948680006  0.46305327719574046  1.0000
  H   H70       1.0  0.2851718171841783  0.34964578234546206  0.5369501985830495  1.0000
  H   H71       1.0  0.6206127966698674  0.7614536696222132  0.5626646958125788  1.0000
  H   H72       1.0  0.37939177973769495  0.23854969110356455  0.43733604816782184  1.0000
  C   C1        1.0  0.8196713858080574  0.62330308799217  0.9301151606716687  1.0000
  C   C2        1.0  0.1803375258770004  0.3766941720514582  0.06988633093758521  1.0000
  C   C3        1.0  0.8186023417468107  0.6898055078542316  0.9992394325013906  1.0000
  C   C4        1.0  0.1814047523833935  0.31019238261809085  0.0007597540665572421  1.0000
  C   C5        1.0  0.7983151908553765  0.7700440655963946  0.002858067689729259  1.0000
  C   C6        1.0  0.20169192722723037  0.22995443193144643  0.9971413017612388  1.0000
  C   C7        1.0  0.8029953457376848  0.8324278284614195  0.06705822746168626  1.0000
  C   C8        1.0  0.1970100220059621  0.1675724947354951  0.9329416316151933  1.0000
  C   C9        1.0  0.8295733876643966  0.815490483977918  0.12832454342431998  1.0000
  C   C10       1.0  0.17042924292277215  0.18450984974690243  0.8716747413375998  1.0000
  C   C11       1.0  0.8477218044080603  0.7351153600205791  0.12458668514042871  1.0000
  C   C12       1.0  0.15227992280546232  0.26488496840723746  0.8754135416703903  1.0000
  C   C13       1.0  0.8412609645379663  0.6725235750135783  0.060570343505922636  1.0000
  C   C14       1.0  0.15874256478154086  0.32747613808206916  0.9394302452252601  1.0000
  C   C15       1.0  0.8421297895139477  0.8834474834029611  0.1972890074337813  1.0000
  C   C16       1.0  0.15786737834694262  0.1165528600552648  0.802710586038934  1.0000
  C   C17       1.0  0.5796216953094913  0.5042218364691777  0.8059694701692661  1.0000
  C   C18       1.0  0.4203772275316737  0.4957773072461509  0.19402738765938216  1.0000
  C   C19       1.0  0.44313317400499136  0.5048355354430144  0.8052155556440893  1.0000
  C   C20       1.0  0.5568648176479059  0.4951629996939177  0.19478157557021092  1.0000
  C   C21       1.0  0.3771473211949115  0.561608033537546  0.7839137785554369  1.0000
  C   C22       1.0  0.6228498072647073  0.438391717961686  0.21608368891332222  1.0000
  C   C23       1.0  0.2506604752109709  0.5629122384710784  0.784321448115996  1.0000
  C   C24       1.0  0.7493356818800122  0.4370856827904533  0.2156768985328341  1.0000
  C   C25       1.0  0.1885879325195958  0.5084697892238595  0.8075969561773845  1.0000
  C   C26       1.0  0.8114082245713875  0.49152813203767226  0.19240139047145274  1.0000
  C   C27       1.0  0.25462631774435357  0.4518052465660818  0.8289304216556842  1.0000
  C   C28       1.0  0.7453726244078993  0.5481938782785889  0.17106886507414024  1.0000
  C   C29       1.0  0.38082449097767324  0.4492821376029782  0.8270386764329913  1.0000
  C   C30       1.0  0.6191744712647634  0.5507175980713445  0.17296030739962026  1.0000
  C   C31       1.0  0.052614166210112515  0.5109772026383725  0.8100737989654121  1.0000
  C   C32       1.0  0.9473847280373352  0.4890207080952609  0.18992512199837114  1.0000
  C   C33       1.0  0.821152149342801  0.38461436151649764  0.6925782608425095  1.0000
  C   C34       1.0  0.17884412286887397  0.6153859690964654  0.3074232462395727  1.0000
  C   C35       1.0  0.8354787964947903  0.31790786093624496  0.6247890479318058  1.0000
  C   C36       1.0  0.16451936590802774  0.682094290114897  0.3752125810422413  1.0000
  C   C37       1.0  0.8385754066435142  0.33515109432577367  0.563136350225399  1.0000
  C   C38       1.0  0.16142364676721138  0.664850443644461  0.43686561115744377  1.0000
  C   C39       1.0  0.8559666556412682  0.2730497893705035  0.5006882796159502  1.0000
  C   C40       1.0  0.14403150676155724  0.7269523616806384  0.49931334935810406  1.0000
  C   C41       1.0  0.8672609872352482  0.1928446801987249  0.4990398202932623  1.0000
  C   C42       1.0  0.13273623625487121  0.8071568698222792  0.5009611105059619  1.0000
  C   C43       1.0  0.862787742223354  0.1756025506589936  0.56055182818276  1.0000
  C   C44       1.0  0.13721040859282146  0.8243996117145403  0.43944834345058587  1.0000
  C   C45       1.0  0.8486679232338407  0.2378781211428631  0.6231328141921039  1.0000
  C   C46       1.0  0.15133016344956474  0.7621222125158482  0.3768677803526542  1.0000
  C   C47       1.0  0.880450183323106  0.12506072869551593  0.43170120348032975  1.0000
  C   C48       1.0  0.11954154962611344  0.874940227777515  0.5682993673664357  1.0000
  C   C49       1.0  0.8300512173204098  0.39619006966092496  0.9682839653191379  1.0000
  C   C50       1.0  0.16994955475244924  0.6038090431329696  0.031716351994305135  1.0000
  C   C51       1.0  0.8505265227235412  0.3465494913490517  0.007350377705819316  1.0000
  C   C52       1.0  0.14947600355049673  0.653447792001643  0.9926499357619463  1.0000
  C   C53       1.0  0.869417478771219  0.26356895566448924  0.9727247340532587  1.0000
  C   C54       1.0  0.13058503977838853  0.7364283352344645  0.02727460785403217  1.0000
  C   C55       1.0  0.8585701221777741  0.23373912173495637  0.8995092678509521  1.0000
  C   C56       1.0  0.1414333515124966  0.7662593847979126  0.10048998355372164  1.0000
  C   C57       1.0  0.8376604210963023  0.287811131717632  0.864808274796843  1.0000
  C   C58       1.0  0.16234034711433054  0.7121879848503955  0.1351915567363663  1.0000
  C   C59       1.0  0.9128664348888337  0.20903482708941115  0.12341044594109007  1.0000
  C   C60       1.0  0.08713708284402343  0.7909648973286282  0.8765886854493914  1.0000
  C   C61       1.0  0.8219840971387956  0.14761531819333842  0.10850154479102513  1.0000
  C   C62       1.0  0.17802034327879573  0.8523843926510468  0.8914990734517331  1.0000
  C   C63       1.0  0.8035621958222096  0.11223362864726742  0.1578361829918791  1.0000
  C   C64       1.0  0.19644137753988392  0.8877673023335575  0.8421642857251044  1.0000
  C   C65       1.0  0.9525305473487793  0.19409955728298206  0.2350153058302595  1.0000
  C   C66       1.0  0.047472118777442104  0.8059013721749653  0.7649856191553823  1.0000
  C   C67       1.0  0.9771009661406114  0.2333115691587012  0.1894604142184733  1.0000
  C   C68       1.0  0.0229025593166767  0.7666881477110793  0.8105396887324758  1.0000
  C   C69       1.0  0.6312369616637882  0.010860856328619701  0.31523219327405627  1.0000
  C   C70       1.0  0.36876014670564683  0.9891382843409603  0.6847655770919161  1.0000
  C   C71       1.0  0.4947663993592002  0.008747471304026502  0.31474445287220476  1.0000
  C   C72       1.0  0.5052279873026323  0.9912516647969342  0.6852546862997569  1.0000
  C   C73       1.0  0.42455821008010025  0.0590336117172754  0.2875962676310593  1.0000
  C   C74       1.0  0.5754389098759916  0.9409655176299057  0.7124029600756215  1.0000
  C   C75       1.0  0.29786295852669303  0.05531075939330781  0.2857112592175284  1.0000
  C   C76       1.0  0.7021332225166933  0.944687768923743  0.7142872703143298  1.0000
  C   C77       1.0  0.23998097855529477  0.0024751660432471997  0.3125307352379352  1.0000
  C   C78       1.0  0.7600151391344241  0.9975221632592836  0.6874654854069461  1.0000
  C   C79       1.0  0.3103404280332144  0.9527662711325109  0.34019401711417885  1.0000
  C   C80       1.0  0.6896557414235219  0.04723226850693861  0.6598030550769636  1.0000
  C   C81       1.0  0.4367611874985045  0.9552111926172276  0.34059085748737067  1.0000
  C   C82       1.0  0.5632359085051775  0.04478732967443481  0.6594081873362895  1.0000
  C   C83       1.0  0.10368634795739246  0.9994887861580682  0.31233127198558464  1.0000
  C   C84       1.0  0.8963114883944527  0.0005061179681292033  0.6876633045898969  1.0000
  C   C85       1.0  0.8391476463644453  0.8934280171575752  0.4707741857214671  1.0000
  C   C86       1.0  0.1608514433644288  0.10657474624609622  0.5292266840867085  1.0000
  C   C87       1.0  0.8066424230084976  0.841901783356342  0.505188014215655  1.0000
  C   C88       1.0  0.19336125388763042  0.15810156829829947  0.4948141575938719  1.0000
  C   C89       1.0  0.7879296455683119  0.7590240833595134  0.4666718524359225  1.0000
  C   C90       1.0  0.2120749741027339  0.24097986555113252  0.533331503328668  1.0000
  C   C91       1.0  0.8070477232328558  0.7313772846028642  0.3952836484636677  1.0000
  C   C92       1.0  0.1929559173451239  0.26862484161834743  0.6047196149205262  1.0000
  C   C93       1.0  0.8397541708437474  0.787214453696038  0.3655050204731793  1.0000
  C   C94       1.0  0.16024763208918813  0.212787692124202  0.6344962407669283  1.0000
  C   C95       1.0  0.7350077129101964  0.7010034460783032  0.6109770162172978  1.0000
  C   C96       1.0  0.26499503665988305  0.29899929322381524  0.38902591475810766  1.0000
  C   C97       1.0  0.6646581144294644  0.7166841134075598  0.6690197806018005  1.0000
  C   C98       1.0  0.3353418346304764  0.2833174374079378  0.3309802671716752  1.0000
  C   C99       1.0  0.696715967612434  0.6815615448834934  0.718200357636263  1.0000
  C   C100      1.0  0.3032838933623411  0.3184375701616632  0.2817999301656045  1.0000
  C   C101      1.0  0.8629324710050524  0.6198652283740673  0.6593302307508395  1.0000
  C   C102      1.0  0.13706741778433706  0.38013448995248217  0.34067072571428975  1.0000
  C   C103      1.0  0.8381287868233045  0.6522844588806793  0.6073997880085074  1.0000
  C   C104      1.0  0.16187208878358927  0.3477170745870382  0.3926022323974792  1.0000
  N   N1        1.0  0.8259599650638736  0.3683426080897405  0.89818458979272  1.0000
  N   N2        1.0  0.17403989977311343  0.6316565031812831  0.10181618378938855  1.0000
  N   N3        1.0  0.8994062383847066  0.21149732244801817  0.00828070725238211  1.0000
  N   N4        1.0  0.1005981263134643  0.7885005710039439  0.9917188765610802  1.0000
  N   N5        1.0  0.9420964686358175  0.24520867340906  0.07735808117161723  1.0000
  N   N6        1.0  0.05790705295925851  0.7547910472348532  0.9226415359990907  1.0000
  N   N7        1.0  0.8680038160493738  0.13357085137268146  0.21986666186908368  1.0000
  N   N8        1.0  0.13199798688356884  0.8664312944475656  0.7801345993710314  1.0000
  N   N9        1.0  0.8543425675593996  0.8673156223243625  0.4020396722191393  1.0000
  N   N10       1.0  0.1456547239257091  0.1326877526373452  0.5979613214489133  1.0000
  N   N11       1.0  0.7515601902251632  0.7039498183063773  0.4966601779500905  1.0000
  N   N12       1.0  0.24844799811879886  0.29605230420680334  0.5033422614315057  1.0000
  N   N13       1.0  0.7014204855559073  0.7323764537846245  0.5601703050632736  1.0000
  N   N14       1.0  0.29858410630051685  0.2676268918446283  0.43983238203806957  1.0000
  N   N15       1.0  0.7935840309618954  0.6331134590389667  0.7138093842737943  1.0000
  N   N16       1.0  0.20641489496239276  0.3668850512019191  0.2861906911334842  1.0000
  O   O1        1.0  0.845675840873135  0.6439694312280866  0.8783687701543171  1.0000
  O   O2        1.0  0.15432845969227324  0.35602663350905334  0.12163123657055763  1.0000
  O   O3        1.0  0.7969145516991105  0.5517351175344775  0.9278136944769528  1.0000
  O   O4        1.0  0.2030980638697316  0.4482633362927758  0.07218973828533141  1.0000
  O   O5        1.0  0.8188404084200586  0.9543801672501786  0.19723125326039082  1.0000
  O   O6        1.0  0.1811485989593464  0.04562078842835862  0.802770200612123  1.0000
  O   O7        1.0  0.8769482533711328  0.8646129210795339  0.2500506236455706  1.0000
  O   O8        1.0  0.1230525828344895  0.13538802042918263  0.7499492707564598  1.0000
  O   O9        1.0  0.6318017125690077  0.5623609010584973  0.7935577819604801  1.0000
  O   O10       1.0  0.36819811364580357  0.437638247953835  0.206438133819276  1.0000
  O   O11       1.0  0.6332000792468264  0.44671755398438523  0.8193276946393482  1.0000
  O   O12       1.0  0.3667979641730882  0.5532821914894586  0.18067028812122032  1.0000
  O   O13       1.0  0.004790627843405602  0.4787644894797012  0.849252425600163  1.0000
  O   O14       1.0  0.9952073753961487  0.521234034334839  0.15074616295483884  1.0000
  O   O15       1.0  0.9955133731495995  0.5462360796738964  0.7725474497511866  1.0000
  O   O16       1.0  0.004486531867755203  0.4537642532564306  0.22745271803648853  1.0000
  O   O17       1.0  0.7898119722071331  0.4536927582225944  0.6906792088375653  1.0000
  O   O18       1.0  0.21018522733058392  0.546308184742891  0.3093215390786455  1.0000
  O   O19       1.0  0.8432399600725305  0.3669903526042405  0.7473904284506573  1.0000
  O   O20       1.0  0.15675542113123703  0.6330105910896294  0.2526107462226364  1.0000
  O   O21       1.0  0.9023614416198885  0.14372387930455235  0.37884058304777557  1.0000
  O   O22       1.0  0.09763108266540851  0.8562740396396153  0.6211591028954686  1.0000
  O   O23       1.0  0.8668399314436575  0.053468179211059015  0.43269887211179986  1.0000
  O   O24       1.0  0.1331482050180313  0.9465340003780369  0.5673019464547122  1.0000
  O   O25       1.0  0.6800718208940142  0.06780402723629213  0.2998712781367132  1.0000
  O   O26       1.0  0.31992340965001637  0.9321939113730195  0.7001250958796064  1.0000
  O   O27       1.0  0.687152824032097  0.9554026943207463  0.3306914182691756  1.0000
  O   O28       1.0  0.3128443755056197  0.044598248644739207  0.6693093296470352  1.0000
  O   O29       1.0  0.04371554466040101  0.0320094407975589  0.2740530469089251  1.0000
  O   O30       1.0  0.9562804733574951  0.967985464057023  0.7259419564236395  1.0000
  O   O31       1.0  0.05894254045056613  0.9649641966324796  0.35103141222345613  1.0000
  O   O32       1.0  0.9410544126178098  0.03503131302636581  0.6489638035036975  1.0000
