data_image0
_chemical_formula_structural       Lu2H52C42N10O24
_chemical_formula_sum              "Lu2 H52 C42 N10 O24"
_cell_length_a       9.515053817744917
_cell_length_b       10.131409665825004
_cell_length_c       14.849
_cell_angle_alpha    73.31963753732524
_cell_angle_beta     78.01990770683285
_cell_angle_gamma    75.37141645739037

_space_group_name_H-M_alt    "P 1"
_space_group_IT_number       1

loop_
  _space_group_symop_operation_xyz
  'x, y, z'

loop_
  _atom_site_type_symbol
  _atom_site_label
  _atom_site_symmetry_multiplicity
  _atom_site_fract_x
  _atom_site_fract_y
  _atom_site_fract_z
  _atom_site_occupancy
  Lu  Lu1       1.0  0.21178817747566106  0.39604747281894953  0.2823108619203722  1.0000
  Lu  Lu2       1.0  0.7882148800197798  0.603950573525573  0.7176885752526727  1.0000
  H   H1        1.0  0.1075715764770564  0.3164966097600725  0.4881113130402497  1.0000
  H   H2        1.0  0.8924304066522525  0.6835014365844501  0.511887593587595  1.0000
  H   H3        1.0  0.4972646700959587  0.5331466200554473  0.2683266012756178  1.0000
  H   H4        1.0  0.5027353342868396  0.46685563811504227  0.7316737640345963  1.0000
  H   H5        1.0  0.9207396122626506  0.4473590956875383  0.18094270264941062  1.0000
  H   H6        1.0  0.0792623147573224  0.5526442154394501  0.8190551803819517  1.0000
  H   H7        1.0  0.3457411451485655  0.17334822747032055  0.48975471602971504  1.0000
  H   H8        1.0  0.6542608379807361  0.826649818874202  0.5102455374901709  1.0000
  H   H9        1.0  0.48214865611109303  0.0736311416542819  0.6268022454643257  1.0000
  H   H10       1.0  0.5178541752892514  0.9263679576467324  0.3731983624616291  1.0000
  H   H11       1.0  0.6887696071108493  0.1751519419431133  0.6392357557874746  1.0000
  H   H12       1.0  0.31123407256053787  0.8248482103143926  0.36076183931442785  1.0000
  H   H13       1.0  0.7626959382944777  0.37359844038459755  0.5099637999882489  1.0000
  H   H14       1.0  0.23730666701077746  0.6264017118729085  0.49003393801448425  1.0000
  H   H15       1.0  0.745306254048522  0.5272100513469695  0.36064578226605454  1.0000
  H   H16       1.0  0.2546929020632405  0.4727911538670355  0.6393542286380907  1.0000
  H   H17       1.0  0.7534595766868932  0.6761486413926576  0.22376297512178672  1.0000
  H   H18       1.0  0.24653957942486932  0.3238525638213474  0.7762370357823585  1.0000
  H   H19       1.0  0.468011946710334  0.7740883366482194  0.13586834857373017  1.0000
  H   H20       1.0  0.5319850606691646  0.22591286856577844  0.864133968470135  1.0000
  H   H21       1.0  0.5139463367399131  0.8441225789218407  0.22009519977554245  1.0000
  H   H22       1.0  0.4860538937379815  0.1558786262921643  0.7799060151198205  1.0000
  H   H23       1.0  0.5679469679824792  0.9921114022106892  0.055504864372096514  1.0000
  H   H24       1.0  0.43205111376314415  0.0078898030033088  0.9444952894328722  1.0000
  H   H25       1.0  0.7281110188557207  0.9167955301673415  0.10809820493558685  1.0000
  H   H26       1.0  0.27188858944622046  0.0832035691336728  0.8919014848007976  1.0000
  H   H27       1.0  0.7746371017811101  0.8919752397103764  0.9423750421984564  1.0000
  H   H28       1.0  0.22535628641912814  0.10802280663414619  0.057624334189959804  1.0000
  H   H29       1.0  0.6272618635009906  0.8043250353060498  0.9659776338920381  1.0000
  H   H30       1.0  0.3727315246992405  0.19567301103847254  0.034025109726499594  1.0000
  H   H31       1.0  0.8603041948208628  0.628145407825599  0.9750755995670486  1.0000
  H   H32       1.0  0.1396898155553217  0.37185474443190697  0.02492462853432901  1.0000
  H   H33       1.0  0.9095554220478733  0.6980132829732995  0.057973260917599176  1.0000
  H   H34       1.0  0.0904450345251178  0.30198686928421375  0.942024089440757  1.0000
  H   H35       1.0  0.6471074300048159  0.5578395027767442  0.08756251566587989  1.0000
  H   H36       1.0  0.35289195220204317  0.44216064948076905  0.9124396917154698  1.0000
  H   H37       1.0  0.7373259310086624  0.330142925911538  0.0989999390039173  1.0000
  H   H38       1.0  0.2626719246418716  0.6698593322589588  0.9010034058920411  1.0000
  H   H39       1.0  0.8122487863146404  0.09620652886781038  0.1033699116730062  1.0000
  H   H40       1.0  0.187749295430983  0.9037946763461875  0.8966309155779868  1.0000
  H   H41       1.0  0.9727953081054751  0.8588323811314069  0.15243477949366016  1.0000
  H   H42       1.0  0.027200851002980597  0.1411677711261063  0.8475678565901603  1.0000
  H   H43       1.0  0.17409719757295516  0.8319704080341807  0.24441942581339055  1.0000
  H   H44       1.0  0.8259008841726683  0.1680307971798172  0.7555820748836268  1.0000
  H   H45       1.0  0.2180921376319702  0.0381759906163168  0.28457460105038723  1.0000
  H   H46       1.0  0.7819083189410135  0.9618241616411964  0.7154254430920659  1.0000
  H   H47       1.0  0.9998538039842799  0.1418669342375694  0.4113783341744933  1.0000
  H   H48       1.0  0.00014970570134663567  0.8581290061939696  0.5886207818307838  1.0000
  H   H49       1.0  0.9912148545942615  0.14357798853896497  0.5326515917274435  1.0000
  H   H50       1.0  0.008789955552593686  0.8564168989360752  0.4673475575161418  1.0000
  H   H51       1.0  0.1604094211811429  0.06821683936640709  0.46877533059884496  1.0000
  H   H52       1.0  0.8395947106804301  0.9317812069781155  0.5312232902273449  1.0000
  C   C1        1.0  0.4692853268876789  0.33635326330824  0.4218079096201137  1.0000
  C   C2        1.0  0.5307162040514443  0.6636468889492662  0.5781926650675401  1.0000
  C   C3        1.0  0.4348549891476665  0.21882225954078646  0.49487861184199033  1.0000
  C   C4        1.0  0.5651478422526779  0.781176839760235  0.5051213226379403  1.0000
  C   C5        1.0  0.5124270021877494  0.162955546882749  0.571102838630722  1.0000
  C   C6        1.0  0.4875745287513666  0.8370446053747642  0.42889706261090055  1.0000
  C   C7        1.0  0.6303735216216069  0.2189623027543774  0.5780938116804109  1.0000
  C   C8        1.0  0.36962930977874464  0.781036796546644  0.4219054493534955  1.0000
  C   C9        1.0  0.671066721481715  0.3295016754071938  0.5065041816026437  1.0000
  C   C10       1.0  0.3289361099186365  0.6704974238938206  0.4934944059852384  1.0000
  C   C11       1.0  0.5938657637717243  0.3888189264933501  0.4273378602184437  1.0000
  C   C12       1.0  0.4061344667061704  0.6111822787206549  0.5726606608928293  1.0000
  C   C13       1.0  0.6473845487523279  0.4956066151610088  0.3536180388265535  1.0000
  C   C14       1.0  0.35261698218679527  0.5043935370964974  0.6463845561991662  1.0000
  C   C15       1.0  0.6643858499660596  0.6555601830817324  0.19620002599194916  1.0000
  C   C16       1.0  0.33561522878287786  0.3444420750887645  0.8038001964174413  1.0000
  C   C17       1.0  0.5598259919888733  0.7947536607831438  0.160564719865512  1.0000
  C   C18       1.0  0.4401729380277928  0.20524859738734585  0.83943646179155  1.0000
  C   C19       1.0  0.6424005729368503  0.8915014092884448  0.08012456070095202  1.0000
  C   C20       1.0  0.3575977349038624  0.1084987429690614  0.919875095797124  1.0000
  C   C21       1.0  0.7129662730760558  0.8222821553405382  0.9983393326350977  1.0000
  C   C22       1.0  0.287027963395218  0.17771694396047613  0.001661745051435988  1.0000
  C   C23       1.0  0.8156934153267771  0.681521878377296  0.03273725136283905  1.0000
  C   C24       1.0  0.18430381814781072  0.318478273880217  0.9672625480360677  1.0000
  C   C25       1.0  0.7344404263786403  0.5835126879931778  0.11399956051542402  1.0000
  C   C26       1.0  0.2655570331910369  0.4164864113078437  0.8860024353606804  1.0000
  C   C27       1.0  0.8259062401939872  0.329568011666268  0.13585364729929236  1.0000
  C   C28       1.0  0.17409189766096492  0.670427928765271  0.8641475301021587  1.0000
  C   C29       1.0  0.923711556885088  0.1999111609234774  0.16618339088626047  1.0000
  C   C30       1.0  0.07628952186384198  0.8000910972470194  0.8338168315231229  1.0000
  C   C31       1.0  0.9016251457156985  0.0806364612033335  0.14326923087777027  1.0000
  C   C32       1.0  0.09837270993483564  0.9193657969671634  0.8567307467880666  1.0000
  C   C33       1.0  0.9900284915776538  0.9497288504041705  0.170729130692429  1.0000
  C   C34       1.0  0.009968515801837398  0.0502723548098345  0.8292718394593876  1.0000
  C   C35       1.0  0.10310123554020124  0.9352306924497354  0.22313017610179037  1.0000
  C   C36       1.0  0.89689577183929  0.0647705127642695  0.7768701206040092  1.0000
  C   C37       1.0  0.12844204440486354  0.0496921757820985  0.2460443636979122  1.0000
  C   C38       1.0  0.8715568856118027  0.9503100823883982  0.7539554710671013  1.0000
  C   C39       1.0  0.04180632759536001  0.18662179702319995  0.21744469545433276  1.0000
  C   C40       1.0  0.9581932807065812  0.8133773022778144  0.7825536473900101  1.0000
  C   C41       1.0  0.060783782803426285  0.1520785063083139  0.46310782091213537  1.0000
  C   C42       1.0  0.9392208012483322  0.847917434123218  0.5368911521923181  1.0000
  N   N1        1.0  0.5919184951146548  0.5600001695007251  0.27459854400157  1.0000
  N   N2        1.0  0.40807653351833306  0.4400052475392471  0.7253984972644361  1.0000
  N   N3        1.0  0.8340999393601578  0.45056429525274666  0.1478157204078414  1.0000
  N   N4        1.0  0.16590238374067212  0.5494421747437243  0.8521868788734821  1.0000
  N   N5        1.0  0.9901379644425677  0.6030787255492314  0.3595537357557461  1.0000
  N   N6        1.0  0.009862718225512889  0.396920373751783  0.6404437907417418  1.0000
  N   N7        1.0  0.2530355551557193  0.6209221262824656  0.11794015452247207  1.0000
  N   N8        1.0  0.7469612261286828  0.3790801318880311  0.8820592925981643  1.0000
  N   N9        1.0  0.4480533394020084  0.1920697939188543  0.22997792983117193  1.0000
  N   N10       1.0  0.5519484176322037  0.80792930538216  0.7700228209956066  1.0000
  O   O1        1.0  0.3938282657487803  0.39740578669513826  0.3515445084240199  1.0000
  O   O2        1.0  0.6061700420919394  0.6025943655623749  0.6484564949661049  1.0000
  O   O3        1.0  0.06607021826456358  0.2972917362811742  0.23599912417389393  1.0000
  O   O4        1.0  0.9339343096778665  0.7027094689328308  0.7639981518880531  1.0000
  O   O5        1.0  0.11193899098797999  0.562196636745476  0.3911942381681115  1.0000
  O   O6        1.0  0.8880572242298047  0.4377982507295711  0.6088087480661669  1.0000
  O   O7        1.0  0.880772469042718  0.6774722077045681  0.39688310413121997  1.0000
  O   O8        1.0  0.1192303062482978  0.3225321563789123  0.6031090722919998  1.0000
  O   O9        1.0  0.9821337022330425  0.5627167972530955  0.2866338769390566  1.0000
  O   O10       1.0  0.017876027554294183  0.4372801961349282  0.71336420552214  1.0000
  O   O11       1.0  0.17995909668186985  0.5322516070362581  0.11565364878493511  1.0000
  O   O12       1.0  0.820042208162164  0.4677495981777469  0.88434405597949  1.0000
  O   O13       1.0  0.2856083380788448  0.7148616398204837  0.04829216073094501  1.0000
  O   O14       1.0  0.7143944933214997  0.2851374594805307  0.9517077737489855  1.0000
  O   O15       1.0  0.2919574448266857  0.6056626807834675  0.19970405394334284  1.0000
  O   O16       1.0  0.7080319858805453  0.39434378921300345  0.8002968929177712  1.0000
  O   O17       1.0  0.41623052079169304  0.3171820844371283  0.17594804298525446  1.0000
  O   O18       1.0  0.583772536703748  0.6828159619073944  0.824050047295735  1.0000
  O   O19       1.0  0.5588969089621257  0.1057442087829301  0.21042886746734982  1.0000
  O   O20       1.0  0.4411104459978504  0.8942538375615925  0.7895760591165982  1.0000
  O   O21       1.0  0.3556137263657391  0.1638505599019382  0.3059511397654687  1.0000
  O   O22       1.0  0.6443832810137521  0.8361506453120597  0.6940484834942993  1.0000
  O   O23       1.0  0.09825703964715161  0.2890965758948454  0.4307873964835238  1.0000
  O   O24       1.0  0.9017432469400716  0.7108993645366937  0.5692121482242314  1.0000
