data_image0
_chemical_formula_structural       Zn8H80C80N48
_chemical_formula_sum              "Zn8 H80 C80 N48"
_cell_length_a       16.770783751345235
_cell_length_b       16.37239938413769
_cell_length_c       18.478949261523805
_cell_angle_alpha    90.00178965409452
_cell_angle_beta     89.99928924580585
_cell_angle_gamma    89.73368033642079

_space_group_name_H-M_alt    "P 1"
_space_group_IT_number       1

loop_
  _space_group_symop_operation_xyz
  'x, y, z'

loop_
  _atom_site_type_symbol
  _atom_site_label
  _atom_site_symmetry_multiplicity
  _atom_site_fract_x
  _atom_site_fract_y
  _atom_site_fract_z
  _atom_site_occupancy
  Zn  Zn1       1.0  0.5026387754695419  0.3557309322417481  0.9990696019463029  1.0000
  Zn  Zn2       1.0  0.3668709783105156  0.49866007401995893  0.9954717284363639  1.0000
  Zn  Zn3       1.0  0.4973488754338291  0.6442713107688575  0.9990725387683455  1.0000
  Zn  Zn4       1.0  0.6331156101025144  0.501340734691979  0.9954670806193775  1.0000
  Zn  Zn5       1.0  0.9973105986802295  0.8561432657143087  0.48182040652750396  1.0000
  Zn  Zn6       1.0  0.8666170275291591  0.0020326821628202994  0.4814308025268873  1.0000
  Zn  Zn7       1.0  0.002698283091128001  0.14386330505907804  0.4818294729228255  1.0000
  Zn  Zn8       1.0  0.13339185910975  0.9979756973778674  0.48141816559221706  1.0000
  H   H1        1.0  0.2960916068863568  0.5275929635876364  0.2989975375154614  1.0000
  H   H2        1.0  0.2227232774099761  0.38209588747219664  0.6043219214643543  1.0000
  H   H3        1.0  0.220980507934641  0.9518179017944347  0.7704378803117038  1.0000
  H   H4        1.0  0.7772928107541474  0.6178977519113502  0.6043299836580118  1.0000
  H   H5        1.0  0.7992003449703304  0.9700503448907295  0.1784492264154949  1.0000
  H   H6        1.0  0.22967041758560916  0.6006052875710067  0.3938889040609227  1.0000
  H   H7        1.0  0.20078607038387733  0.02996398502662599  0.17843888065259964  1.0000
  H   H8        1.0  0.7703343599521445  0.39939182153892006  0.393878680540233  1.0000
  H   H9        1.0  0.4139138780418746  0.6707324176370901  0.2914347872218315  1.0000
  H   H10       1.0  0.8345412753876077  0.7484941942787058  0.12713315908754205  1.0000
  H   H11       1.0  0.5860968002165237  0.32926170684189765  0.2914120549658251  1.0000
  H   H12       1.0  0.7312026871632041  0.8965337637447489  0.08530974232013482  1.0000
  H   H13       1.0  0.16543669398462407  0.2515329880713607  0.1271306064455899  1.0000
  H   H14       1.0  0.39968877687643806  0.3039093619435674  0.7130295406319009  1.0000
  H   H15       1.0  0.8213405078592119  0.26348562587931906  0.8342160064095269  1.0000
  H   H16       1.0  0.6003187983320686  0.6960900725733552  0.7130357003378337  1.0000
  H   H17       1.0  0.17864993747014776  0.7364873534442606  0.8342120407749151  1.0000
  H   H18       1.0  0.9018696072640112  0.1869286796433585  0.7709016752374609  1.0000
  H   H19       1.0  0.3198017144018904  0.22998627029690505  0.6472925532061425  1.0000
  H   H20       1.0  0.098133627880884  0.8130662242006392  0.7708817253587555  1.0000
  H   H21       1.0  0.6802045245120211  0.770014174401943  0.6472960563426113  1.0000
  H   H22       1.0  0.9137323880900112  0.8233044285925499  0.1897498413466394  1.0000
  H   H23       1.0  0.703918828402827  0.47239794233600907  0.2989886935997461  1.0000
  H   H24       1.0  0.3336105443496393  0.7473431250782737  0.3524378406763233  1.0000
  H   H25       1.0  0.0862429314248985  0.1767050670565878  0.1897575171349146  1.0000
  H   H26       1.0  0.666415413104879  0.252636277654517  0.3524186444123529  1.0000
  H   H27       1.0  0.5242325475159858  0.28884023315958973  0.7662676982701911  1.0000
  H   H28       1.0  0.5660587997459956  0.29186558216746045  0.8490284882773269  1.0000
  H   H29       1.0  0.1675899362391817  0.6067450292448198  0.8699087883213963  1.0000
  H   H30       1.0  0.2132132915655731  0.5279427621662973  0.9119488234576281  1.0000
  H   H31       1.0  0.4757666372297892  0.7111617262901929  0.766272752563431  1.0000
  H   H32       1.0  0.4339352018170076  0.7081302603916483  0.849031113961118  1.0000
  H   H33       1.0  0.8323933312361405  0.39322699810440986  0.8699118462597824  1.0000
  H   H34       1.0  0.26878388148978866  0.10349034528412908  0.08531344502578972  1.0000
  H   H35       1.0  0.7867709183372044  0.4720305225135276  0.911953972878706  1.0000
  H   H36       1.0  0.5459330714570426  0.6724564137345793  0.23512406554425522  1.0000
  H   H37       1.0  0.5731753889958924  0.6866466561558153  0.1481419893379226  1.0000
  H   H38       1.0  0.146504621356101  0.37424865321936096  0.0737244016457268  1.0000
  H   H39       1.0  0.2012467512802516  0.45956600399694725  0.0655275131038735  1.0000
  H   H40       1.0  0.4540699826033219  0.32753927505810043  0.2351195126928474  1.0000
  H   H41       1.0  0.42681923478001954  0.31336405766298  0.148137693271309  1.0000
  H   H42       1.0  0.8534841354961316  0.6257747732510309  0.0737178139858869  1.0000
  H   H43       1.0  0.7987446760043538  0.5404563295102276  0.0655257836662102  1.0000
  H   H44       1.0  0.044943865478011  0.8185010190146399  0.2463312122900945  1.0000
  H   H45       1.0  0.2868656545093486  0.451757137976358  0.7017062070310587  1.0000
  H   H46       1.0  0.07242643436232751  0.8067665451706246  0.3335921497480356  1.0000
  H   H47       1.0  0.6465421985698256  0.13082626351732068  0.40935470647706756  1.0000
  H   H48       1.0  0.7041109363026123  0.050731506256752795  0.3894009847557954  1.0000
  H   H49       1.0  0.9550373005182776  0.18150265280614516  0.24634437730556874  1.0000
  H   H50       1.0  0.9275576994591005  0.1932398291803565  0.3336079734793813  1.0000
  H   H51       1.0  0.35347638903171225  0.8691650441632388  0.4093648544727415  1.0000
  H   H52       1.0  0.29591490407334936  0.949257405570449  0.3893963928639296  1.0000
  H   H53       1.0  0.0292889138045425  0.19642666863696684  0.7180829415800574  1.0000
  H   H54       1.0  0.06999279002674541  0.19689117755286387  0.634897051697955  1.0000
  H   H55       1.0  0.6991758129548984  0.9671994820892276  0.5369850095001709  1.0000
  H   H56       1.0  0.7151136457584925  0.11652995973380337  0.8692007855832671  1.0000
  H   H57       1.0  0.6503289257213111  0.8888976065393375  0.5755770734680752  1.0000
  H   H58       1.0  0.9707315400295183  0.8035865053982505  0.7180764881493645  1.0000
  H   H59       1.0  0.9300233629304485  0.8031195338821603  0.634893069996558  1.0000
  H   H60       1.0  0.30083003823926185  0.03279751280915379  0.5369779603276542  1.0000
  H   H61       1.0  0.3496755986723628  0.11110105233710497  0.5755699386202053  1.0000
  H   H62       1.0  0.38150576235413775  0.7998352448505699  0.9419484678246733  1.0000
  H   H63       1.0  0.6720167915694262  0.49528434280910705  0.827233029869987  1.0000
  H   H64       1.0  0.6184714333819913  0.2001434705226615  0.9419452936319389  1.0000
  H   H65       1.0  0.32798268355336546  0.5047199893938695  0.8272364316107712  1.0000
  H   H66       1.0  0.3854404514446087  0.1968033009721424  0.0519984567196587  1.0000
  H   H67       1.0  0.7131428803734963  0.5482471263862366  0.7017111012121333  1.0000
  H   H68       1.0  0.6758380386464181  0.510873137525941  0.1656657347145227  1.0000
  H   H69       1.0  0.6145478791480343  0.8032151800468481  0.052002977217476605  1.0000
  H   H70       1.0  0.3241553818248093  0.48913922019035266  0.165674924101026  1.0000
  H   H71       1.0  0.8842381677669876  0.30620075203699315  0.4342753504269439  1.0000
  H   H72       1.0  0.1724731053154045  0.9886277338759727  0.31050321183609964  1.0000
  H   H73       1.0  0.1157771317243643  0.6938011850019091  0.4342657662903449  1.0000
  H   H74       1.0  0.8275189436639749  0.011384611514344598  0.3105184199957237  1.0000
  H   H75       1.0  0.8824117560964524  0.7021996464665958  0.5416106520196421  1.0000
  H   H76       1.0  0.1789744310128896  0.0015090381981722  0.6468711666764975  1.0000
  H   H77       1.0  0.1176046328671632  0.29780495444972377  0.5416066319391036  1.0000
  H   H78       1.0  0.2848792041861898  0.8834383648033179  0.8692139249131826  1.0000
  H   H79       1.0  0.8210587110808304  0.9984797865148847  0.6468883914269767  1.0000
  H   H80       1.0  0.7790460899989994  0.04815804869853929  0.7704277191605515  1.0000
  C   C1        1.0  0.4663954896048352  0.36202712275350984  0.8371755833198833  1.0000
  C   C2        1.0  0.7633916086810543  0.1491527642871162  0.42990986076156906  1.0000
  C   C3        1.0  0.0267679752318202  0.12366992325449641  0.3180143976681364  1.0000
  C   C4        1.0  0.23662624107551272  0.8508458625592322  0.4299083573784372  1.0000
  C   C5        1.0  0.9674502483170997  0.13184857028149108  0.644053485264891  1.0000
  C   C6        1.0  0.7655038327851145  0.8633777026124316  0.5500769133751859  1.0000
  C   C7        1.0  0.032569786982854496  0.8681577958233289  0.6440428720927756  1.0000
  C   C8        1.0  0.2345045338655822  0.13662311883803818  0.5500650341549616  1.0000
  C   C9        1.0  0.34985741101404233  0.7420645541423097  0.9415849966763902  1.0000
  C   C10       1.0  0.6248082351871672  0.539218743187014  0.8383084039372548  1.0000
  C   C11       1.0  0.650121589023982  0.25791352968406034  0.941583074170012  1.0000
  C   C12       1.0  0.266667977949659  0.6388891420872298  0.9263572306673213  1.0000
  C   C13       1.0  0.3751884881271578  0.4607831869964085  0.8383100441578648  1.0000
  C   C14       1.0  0.3516061211953456  0.253198411986105  0.0463218911460999  1.0000
  C   C15       1.0  0.6259582949247501  0.47007392517429014  0.15638349308667904  1.0000
  C   C16       1.0  0.6483800320004817  0.7468172901006155  0.0463152602512267  1.0000
  C   C17       1.0  0.374038450609433  0.5299330000764824  0.1563906338556933  1.0000
  C   C18       1.0  0.8511362131873241  0.24937574304966154  0.4365732862647676  1.0000
  C   C19       1.0  0.12357009091252281  0.030716647826096687  0.3211578199684126  1.0000
  C   C20       1.0  0.1488766190284778  0.7506269394245704  0.43656495330683504  1.0000
  C   C21       1.0  0.876415669961041  0.9692877722704978  0.3211680534416459  1.0000
  C   C22       1.0  0.8499741240603101  0.7597607404450314  0.5393136169146331  1.0000
  C   C23       1.0  0.5336012876596428  0.6379716866508288  0.8371754198199497  1.0000
  C   C24       1.0  0.1286926713271228  0.9609573655158383  0.6384582962921996  1.0000
  C   C25       1.0  0.1500387724525254  0.24024250207732212  0.5393043795449091  1.0000
  C   C26       1.0  0.8713353645247252  0.03903706913272491  0.6384691359403405  1.0000
  C   C27       1.0  0.40482661284506344  0.39714480279619113  0.7941779965682799  1.0000
  C   C28       1.0  0.27651898003594516  0.7226420095480318  0.9085140969949989  1.0000
  C   C29       1.0  0.5951728236728114  0.6028545265163385  0.7941773161207524  1.0000
  C   C30       1.0  0.723462951344203  0.2773335147730194  0.9085116849511579  1.0000
  C   C31       1.0  0.4117436324692179  0.5840137939829118  0.20501929529030602  1.0000
  C   C32       1.0  0.2709234251489363  0.26882197584829015  0.06332486663912822  1.0000
  C   C33       1.0  0.5882640068890339  0.4159862293211771  0.20500927915205844  1.0000
  C   C34       1.0  0.7333103572100867  0.36108743296792756  0.9263561864832397  1.0000
  C   C35       1.0  0.7290615399831069  0.7311959497622451  0.0633158415364647  1.0000
  C   C36       1.0  0.9132671498020598  0.9127113739202314  0.2739996306610807  1.0000
  C   C37       1.0  0.7711749298981871  0.2340704379252329  0.416999907542575  1.0000
  C   C38       1.0  0.08671068989380609  0.08729148432704648  0.2739972862330688  1.0000
  C   C39       1.0  0.22884218396304587  0.7659249845404971  0.4170040722562832  1.0000
  C   C40       1.0  0.903645526111532  0.09861424676229547  0.6851068933848765  1.0000
  C   C41       1.0  0.7757141023844054  0.7803105780861087  0.5704224136018183  1.0000
  C   C42       1.0  0.09637731317909728  0.9013853787971013  0.6850958640066835  1.0000
  C   C43       1.0  0.2242953579230544  0.21969022177644595  0.570414488482257  1.0000
  C   C44       1.0  0.3221821599361121  0.586520780550515  0.3134689433202952  1.0000
  C   C45       1.0  0.4727173160694775  0.6198081137625379  0.1621340768541728  1.0000
  C   C46       1.0  0.7795269633304542  0.8635792567978909  0.11259482817450112  1.0000
  C   C47       1.0  0.6778331641181197  0.41346670455578755  0.31345399802896884  1.0000
  C   C48       1.0  0.22045511132296267  0.13644157293712306  0.112598561496263  1.0000
  C   C49       1.0  0.31105255248449026  0.39132928861370425  0.6886533069057137  1.0000
  C   C50       1.0  0.7637626391516078  0.14975387857849395  0.8431054362213288  1.0000
  C   C51       1.0  0.6889540560684465  0.6086723730298758  0.6886542916502024  1.0000
  C   C52       1.0  0.23623227590154264  0.8502184050259343  0.843108254274  1.0000
  C   C53       1.0  0.806504058157053  0.10545378318222728  0.7876471130561526  1.0000
  C   C54       1.0  0.2683542283451885  0.3470454657428944  0.6333376079501036  1.0000
  C   C55       1.0  0.19350702192694058  0.8945268414347182  0.7876457685563523  1.0000
  C   C56       1.0  0.262047592054195  0.35298238947703436  0.0467766690424014  1.0000
  C   C57       1.0  0.73165727055585  0.6529523256839054  0.6333403237300105  1.0000
  C   C58       1.0  0.8240275684917577  0.909882308137746  0.16540282316906027  1.0000
  C   C59       1.0  0.2783112596296249  0.6329355896737138  0.3669217477460123  1.0000
  C   C60       1.0  0.17595392979294638  0.0901312511298329  0.1654010085583337  1.0000
  C   C61       1.0  0.7217010419287889  0.3670526025988464  0.3669077050534  1.0000
  C   C62       1.0  0.3853923826594396  0.6138797392596088  0.2741033730080177  1.0000
  C   C63       1.0  0.7859755442963844  0.7818065539694101  0.10032483290865461  1.0000
  C   C64       1.0  0.6146200792634104  0.3861145858498458  0.2740878190600355  1.0000
  C   C65       1.0  0.2140045710445406  0.2182129408638005  0.10032765922476021  1.0000
  C   C66       1.0  0.37376840980353887  0.3630033102340632  0.7284169780480028  1.0000
  C   C67       1.0  0.5272810292729204  0.38019731836017456  0.1621293397144399  1.0000
  C   C68       1.0  0.7737630878258841  0.22963239165454744  0.8614185617099963  1.0000
  C   C69       1.0  0.6262380359882087  0.6369976417848303  0.7284205753668189  1.0000
  C   C70       1.0  0.22622283353501157  0.770344022318838  0.8614184232495745  1.0000
  C   C71       1.0  0.8726811408201058  0.1312527038848472  0.7516199372150896  1.0000
  C   C72       1.0  0.2752042828324548  0.2659813257459617  0.6177719751480952  1.0000
  C   C73       1.0  0.12733050416036923  0.8687422880239237  0.7516098643750482  1.0000
  C   C74       1.0  0.7248059545971371  0.7340173800369882  0.6177786455516809  1.0000
  C   C75       1.0  0.8864985272135258  0.8816423760247217  0.2055420564958013  1.0000
  C   C76       1.0  0.28536400084614405  0.714489521953851  0.3796853146639024  1.0000
  C   C77       1.0  0.1134786422991567  0.11836621873227669  0.205542313861848  1.0000
  C   C78       1.0  0.737937355888576  0.6470327282244027  0.0467707072631214  1.0000
  C   C79       1.0  0.7146550221704401  0.2854982035752157  0.3796704813194581  1.0000
  C   C80       1.0  0.9732137441290902  0.8763294232868545  0.3180086281585659  1.0000
  N   N1        1.0  0.4700285244380424  0.4003507672297245  0.9018271732555831  1.0000
  N   N2        1.0  0.8326007476234167  0.11773251321542227  0.45402221317230834  1.0000
  N   N3        1.0  0.030835756767153596  0.09297191555275928  0.3858087069442462  1.0000
  N   N4        1.0  0.16741087537742058  0.8822736403606013  0.4540016679693936  1.0000
  N   N5        1.0  0.9699843255260561  0.09649917150125727  0.5779500040449363  1.0000
  N   N6        1.0  0.8284212318193268  0.8889109143321575  0.5111372238481239  1.0000
  N   N7        1.0  0.0300367919826812  0.9035039085938832  0.5779402431722148  1.0000
  N   N8        1.0  0.17158845874594417  0.11109127656688138  0.5111242132638908  1.0000
  N   N9        1.0  0.38147021778853224  0.6764788940482092  0.9749660109889645  1.0000
  N   N10       1.0  0.5863567883798028  0.5383946952041397  0.901897405048345  1.0000
  N   N11       1.0  0.6185070238864228  0.3235036002738524  0.974961808119808  1.0000
  N   N12       1.0  0.3291320542786949  0.6119422256540474  0.9655537756340494  1.0000
  N   N13       1.0  0.4136389423264504  0.46160976201656456  0.9018992699030264  1.0000
  N   N14       1.0  0.3877131738853805  0.321500031927954  0.023207356824741506  1.0000
  N   N15       1.0  0.592398023737381  0.4645782966125223  0.0909067064379201  1.0000
  N   N16       1.0  0.6122713965168955  0.6785130854712023  0.0232074694496447  1.0000
  N   N17       1.0  0.4075890078756855  0.5354339267193208  0.09091029913765421  1.0000
  N   N18       1.0  0.8876729356627989  0.17994468539321667  0.4574200343074821  1.0000
  N   N19       1.0  0.090590931757653  0.035334307042802486  0.3869753432609714  1.0000
  N   N20       1.0  0.1123361763020654  0.82006349987234  0.45739535853348207  1.0000
  N   N21       1.0  0.909399752296487  0.9646666655334781  0.3869819322737841  1.0000
  N   N22       1.0  0.8817592882722565  0.8242051834639312  0.5048380170565281  1.0000
  N   N23       1.0  0.5299672117066124  0.5996530749898665  0.9018266364269961  1.0000
  N   N24       1.0  0.08930220416677061  0.961287926097725  0.5754518985673513  1.0000
  N   N25       1.0  0.1182529984839178  0.17579785856614186  0.5048253011578723  1.0000
  N   N26       1.0  0.9107238020197101  0.0387082903177003  0.5754618752004816  1.0000
  N   N27       1.0  0.5144733328992145  0.29598769197444597  0.8200954395249483  1.0000
  N   N28       1.0  0.20191368194318218  0.5890277226316056  0.9123446580322537  1.0000
  N   N29       1.0  0.4855234276156679  0.704011942956498  0.820099941923992  1.0000
  N   N30       1.0  0.7980687255159182  0.4109455847183767  0.9123487676687674  1.0000
  N   N31       1.0  0.527068153476712  0.678381455237826  0.183187103832978  1.0000
  N   N32       1.0  0.19349780155210536  0.4009762498736506  0.0486880606048459  1.0000
  N   N33       1.0  0.47293067093363556  0.3216227750205363  0.1831798971586807  1.0000
  N   N34       1.0  0.6708449124595431  0.3880403244635103  0.9655499212128332  1.0000
  N   N35       1.0  0.8064900380563459  0.599043867915931  0.0486836673782776  1.0000
  N   N36       1.0  0.0263566910737225  0.8153998953151458  0.298524589393601  1.0000
  N   N37       1.0  0.6962301663186424  0.0988937103969718  0.4236866834360669  1.0000
  N   N38       1.0  0.9736245010229965  0.18459952414095673  0.2985378878562059  1.0000
  N   N39       1.0  0.3037896895820468  0.901103939623418  0.4236903511263037  1.0000
  N   N40       1.0  0.018557131951411104  0.19392925935714797  0.6640722530681558  1.0000
  N   N41       1.0  0.70390539460589  0.9163341310695328  0.5685028145290334  1.0000
  N   N42       1.0  0.9814598105426527  0.8060819507291794  0.6640648008746055  1.0000
  N   N43       1.0  0.2960987713292198  0.083665332176075  0.5684951246671375  1.0000
  N   N44       1.0  0.4684244693521222  0.5912305257574955  0.093654390181257  1.0000
  N   N45       1.0  0.3314635361993226  0.3837760329322535  0.0228979433499674  1.0000
  N   N46       1.0  0.5315636661865781  0.40878063820030514  0.0936521050064556  1.0000
  N   N47       1.0  0.6685216441293279  0.6162364556251774  0.022897258947701005  1.0000
  N   N48       1.0  0.9691514048887058  0.9070259327649663  0.38580590289794975  1.0000
