data_image0
_chemical_formula_structural       Mn2H22C22N2O14F8
_chemical_formula_sum              "Mn2 H22 C22 N2 O14 F8"
_cell_length_a       6.165764209597178
_cell_length_b       7.407599316655314
_cell_length_c       15.64130628271066
_cell_angle_alpha    82.84669350550288
_cell_angle_beta     89.75198555224354
_cell_angle_gamma    82.14589292530707

_space_group_name_H-M_alt    "P 1"
_space_group_IT_number       1

loop_
  _space_group_symop_operation_xyz
  'x, y, z'

loop_
  _atom_site_type_symbol
  _atom_site_label
  _atom_site_symmetry_multiplicity
  _atom_site_fract_x
  _atom_site_fract_y
  _atom_site_fract_z
  _atom_site_occupancy
  Mn  Mn1       1.0  0.07987786113789497  0.728902373242171  0.1028277209737425  1.0000
  Mn  Mn2       1.0  0.9201118576256347  0.2711116013566651  0.8971704423825602  1.0000
  H   H1        1.0  0.6517820476912703  0.7803021060429672  0.21508395787119378  1.0000
  H   H2        1.0  0.3482193664060773  0.21969127566445215  0.7849171921762875  1.0000
  H   H3        1.0  0.021158346861092484  0.6142808060678108  0.39455192677262124  1.0000
  H   H4        1.0  0.9788485536394801  0.3857181973198109  0.6054457082026589  1.0000
  H   H5        1.0  0.7966406367261312  0.5961355092387635  0.4675389806671789  1.0000
  H   H6        1.0  0.20336742398993832  0.4038662195184344  0.5324597834009452  1.0000
  H   H7        1.0  0.9037348642328098  0.8080397620523527  0.4449403757581366  1.0000
  H   H8        1.0  0.09627480820584107  0.19196199461975988  0.5550577425177183  1.0000
  H   H9        1.0  0.3925278825087446  0.8191200614475136  0.30198667544461  1.0000
  H   H10       1.0  0.6074782736539602  0.18089265446186434  0.6980115052954332  1.0000
  H   H11       1.0  0.4671365673615782  0.9166367540860421  0.3948827157655615  1.0000
  H   H12       1.0  0.5328783479120388  0.08338154066661467  0.6051144997520268  1.0000
  H   H13       1.0  0.42159419382396385  0.6824882160110236  0.4046706580008532  1.0000
  H   H14       1.0  0.578404579592572  0.31752984892586505  0.5953310947223471  1.0000
  H   H15       1.0  0.7293359534670073  0.7019727906778571  0.005559103320678101  1.0000
  H   H16       1.0  0.27065017523624146  0.2980245915330642  0.9944425181968627  1.0000
  H   H17       1.0  0.787209026198198  0.5046355697074815  0.0603255801716074  1.0000
  H   H18       1.0  0.21278771690680284  0.49535650286129135  0.9396718180172672  1.0000
  H   H19       1.0  0.39458486564389256  0.9678937731427695  0.1029428954779377  1.0000
  H   H20       1.0  0.6054117925691359  0.032117533438764695  0.8970541110193795  1.0000
  H   H21       1.0  0.5140486211566255  0.7620279592961695  0.09769156650914826  1.0000
  H   H22       1.0  0.4859420416731624  0.23798053817103687  0.9023062482721544  1.0000
  C   C1        1.0  0.3848589680589285  0.31893866092735124  0.13584642005420733  1.0000
  C   C2        1.0  0.6151373043303751  0.6810752115531925  0.8641574832406251  1.0000
  C   C3        1.0  0.5606381774095438  0.278631472217775  0.20544075742097337  1.0000
  C   C4        1.0  0.43936224607034546  0.7213770118498813  0.7945602252362038  1.0000
  C   C5        1.0  0.5149054252183517  0.3151237786405331  0.2896216426285463  1.0000
  C   C6        1.0  0.4851019951839818  0.6848819222986079  0.7103826648429888  1.0000
  C   C7        1.0  0.6728382283745519  0.26928082434657336  0.3551388499071422  1.0000
  C   C8        1.0  0.3271752394613188  0.7307085174719673  0.6448624800157674  1.0000
  C   C9        1.0  0.8817554599057897  0.18838986277278738  0.33663235703205174  1.0000
  C   C10       1.0  0.1182485319003419  0.8115884938226827  0.6633663938962968  1.0000
  C   C11       1.0  0.9297943861891722  0.15452914406684212  0.25252200406963965  1.0000
  C   C12       1.0  0.07019872030435437  0.8454559613426226  0.7474783363151617  1.0000
  C   C13       1.0  0.7731695004228598  0.19711967692283847  0.18674873741323955  1.0000
  C   C14       1.0  0.2268268075958915  0.8028750602116899  0.8132517161388579  1.0000
  C   C15       1.0  0.8344964935461192  0.1532027218148997  0.09656424500867192  1.0000
  C   C16       1.0  0.1654903165229555  0.8467906059917922  0.9034350343007065  1.0000
  C   C17       1.0  0.7850375948193287  0.7391964052477108  0.2630995929499207  1.0000
  C   C18       1.0  0.21495656786557052  0.2608011658711575  0.7368968788890913  1.0000
  C   C19       1.0  0.8684002527473567  0.6857439597659505  0.4171512261536634  1.0000
  C   C20       1.0  0.1316027183109654  0.3142590915294506  0.5828481218971859  1.0000
  C   C21       1.0  0.4866936276911033  0.7917668177343558  0.3625169738956943  1.0000
  C   C22       1.0  0.5133171666222793  0.20824727309149443  0.6374823977467515  1.0000
  N   N1        1.0  0.7161209620898605  0.7355642393766996  0.34478015813473933  1.0000
  N   N2        1.0  0.28388366995355335  0.2644387411668631  0.6552223855581261  1.0000
  O   O1        1.0  0.2540081603593478  0.46558718055976556  0.13413129850428623  1.0000
  O   O2        1.0  0.7459925695843879  0.5344293251200655  0.8658782044502829  1.0000
  O   O3        1.0  0.383085009031248  0.2007953492487218  0.0834914051329605  1.0000
  O   O4        1.0  0.6169031335626939  0.7992280582192277  0.9165132904408041  1.0000
  O   O5        1.0  0.8357387478722555  0.2889869295815047  0.0381859936896944  1.0000
  O   O6        1.0  0.16425643827177072  0.7109954733992937  0.9618132064958119  1.0000
  O   O7        1.0  0.8804153301834744  0.9866914100929234  0.08673601564247241  1.0000
  O   O8        1.0  0.11957271949397348  0.013294952076911698  0.9132674696812445  1.0000
  O   O9        1.0  0.9806066519239209  0.6999544438241755  0.24228547163431813  1.0000
  O   O10       1.0  0.019393831816678614  0.3000348555640996  0.7577139819972701  1.0000
  O   O11       1.0  0.7678144028436831  0.6394574048556336  0.06618549364036852  1.0000
  O   O12       1.0  0.23218260296174978  0.3605332449857456  0.9338138981816684  1.0000
  O   O13       1.0  0.38306782907422837  0.83519387576969  0.1195294104075657  1.0000
  O   O14       1.0  0.6169181244224405  0.1648229213430312  0.880464776788884  1.0000
  F   F1        1.0  0.31428193034293617  0.39045542477492756  0.3125358303851584  1.0000
  F   F2        1.0  0.6857381895342982  0.6095613172171213  0.6874697644963916  1.0000
  F   F3        1.0  0.6230330059120417  0.30097689403918804  0.4369787269872988  1.0000
  F   F4        1.0  0.37699069050184864  0.6990097040362143  0.5630252764044672  1.0000
  F   F5        1.0  0.03469914220981  0.14133387512620735  0.40016761783282834  1.0000
  F   F6        1.0  0.9653113977994461  0.8586253262272477  0.5998302220960667  1.0000
  F   F7        1.0  0.13564454560994219  0.07688173194564031  0.23727272463683147  1.0000
  F   F8        1.0  0.8643464758104357  0.9230870227687759  0.7627221050093028  1.0000
