data_image0
_chemical_formula_structural       Zn4Te4H20C6N4
_chemical_formula_sum              "Zn4 Te4 H20 C6 N4"
_cell_length_a       6.839158695013225
_cell_length_b       6.985128034544536
_cell_length_c       10.689344429013465
_cell_angle_alpha    109.06842694931224
_cell_angle_beta     89.9996910586183
_cell_angle_gamma    90.00006769514987

_space_group_name_H-M_alt    "P 1"
_space_group_IT_number       1

loop_
  _space_group_symop_operation_xyz
  'x, y, z'

loop_
  _atom_site_type_symbol
  _atom_site_label
  _atom_site_symmetry_multiplicity
  _atom_site_fract_x
  _atom_site_fract_y
  _atom_site_fract_z
  _atom_site_occupancy
  Zn  Zn1       1.0  0.630602610443965  0.6366798268079424  0.5885267374847913  1.0000
  Zn  Zn2       1.0  0.13060328200514698  0.36332109202497515  0.4114725975398557  1.0000
  Zn  Zn3       1.0  0.6303472886820883  0.048334763369240405  0.411408306721789  1.0000
  Zn  Zn4       1.0  0.1303468449218599  0.9516631305188951  0.5885894421785949  1.0000
  Te  Te1       1.0  0.5087655533993711  0.37930451531433107  0.3647172575717619  1.0000
  Te  Te2       1.0  0.0087627064199509  0.6206964377288741  0.6352814552992782  1.0000
  Te  Te3       1.0  0.5086775923221651  0.014488984101099302  0.6353323532049798  1.0000
  Te  Te4       1.0  0.0086752073051528  0.9855104409386544  0.36466883746197  1.0000
  H   H1        1.0  0.35139491214865615  0.5863654998448027  0.7393554729968058  1.0000
  H   H2        1.0  0.8513974581994999  0.4136353517255246  0.26064609957321483  1.0000
  H   H3        1.0  0.3511870995967286  0.8470309132267461  0.26054198498768233  1.0000
  H   H4        1.0  0.8511914771563767  0.15296841480388676  0.7394611311234698  1.0000
  H   H5        1.0  0.5237040126834529  0.4201239383469755  0.7382674124866994  1.0000
  H   H6        1.0  0.0237080397318152  0.5798754918890268  0.26173187052216207  1.0000
  H   H7        1.0  0.5235195832987003  0.6820141862480894  0.26175611106286567  1.0000
  H   H8        1.0  0.023521078397799  0.3179837204430456  0.7382447154327634  1.0000
  H   H9        1.0  0.5477196693234418  0.8618713388091378  0.8780586675223602  1.0000
  H   H10       1.0  0.0477231445608908  0.1381295914095588  0.1219427491393645  1.0000
  H   H11       1.0  0.5476638546811259  0.9837910004327669  0.12180217762131208  1.0000
  H   H12       1.0  0.0476692965993735  0.0162053900710291  0.8781973262906178  1.0000
  H   H13       1.0  0.7301805816735082  0.6847014458280967  0.8796499279489608  1.0000
  H   H14       1.0  0.2301828476443717  0.31529641035797334  0.12035036864652676  1.0000
  H   H15       1.0  0.7300063467255881  0.8049738071151328  0.12033140403621448  1.0000
  H   H16       1.0  0.23001347309839557  0.19502255213049582  0.8796648286484796  1.0000
  H   H17       1.0  0.3178646164936153  0.704141192064661  0.9998779277948981  1.0000
  H   H18       1.0  0.8178712604391546  0.29585815297850354  0.00012340463482728137  1.0000
  H   H19       1.0  0.4981527514172939  0.5211107260721449  0.9999127587254575  1.0000
  H   H20       1.0  0.9981611015542384  0.47888857934563595  8.71768652216695e-05  1.0000
  C   C1        1.0  0.5706434415716686  0.7053052105751688  0.8772679570214449  1.0000
  C   C2        1.0  0.0706500410708912  0.2946926712950386  0.12273555231840307  1.0000
  C   C3        1.0  0.5704472503737463  0.8280160303167107  0.12267955836178145  1.0000
  C   C4        1.0  0.0704529090484556  0.17198943851035867  0.8773227783514557  1.0000
  C   C5        1.0  0.47690170354900363  0.6776501029577132  0.9999502311816286  1.0000
  C   C6        1.0  0.9769098457194616  0.32234770180183164  4.756366843141151e-05  1.0000
  N   N1        1.0  0.50020408950666  0.5704511207690218  0.7488587729963  1.0000
  N   N2        1.0  0.00020949212947130003  0.42955133578254145  0.2511430916076023  1.0000
  N   N3        1.0  0.4999905235195286  0.8217009177171377  0.25110591971751717  1.0000
  N   N4        1.0  0.9999919093235119  0.17829989310407507  0.7488962064005305  1.0000
