data_image0
_chemical_formula_structural       Zn6H130C186N18O26
_chemical_formula_sum              "Zn6 H130 C186 N18 O26"
_cell_length_a       20.90660144593158
_cell_length_b       21.139044730499993
_cell_length_c       21.51070848762178
_cell_angle_alpha    61.09869820213616
_cell_angle_beta     64.0263611413473
_cell_angle_gamma    83.76835337779615

_space_group_name_H-M_alt    "P 1"
_space_group_IT_number       1

loop_
  _space_group_symop_operation_xyz
  'x, y, z'

loop_
  _atom_site_type_symbol
  _atom_site_label
  _atom_site_symmetry_multiplicity
  _atom_site_fract_x
  _atom_site_fract_y
  _atom_site_fract_z
  _atom_site_occupancy
  Zn  Zn1       1.0  0.045373303041252186  0.44503675352095234  0.32842672697137226  1.0000
  Zn  Zn2       1.0  0.9546236493916073  0.5549649601625434  0.6715722825298724  1.0000
  Zn  Zn3       1.0  0.10072231311024642  0.27367242208383413  0.36067209765852226  1.0000
  Zn  Zn4       1.0  0.899279135650076  0.7263271349061997  0.6393245658224271  1.0000
  Zn  Zn5       1.0  0.08400373633669742  0.11315963599039953  0.346710420458642  1.0000
  Zn  Zn6       1.0  0.9159947998885586  0.8868458072952236  0.6532903758484991  1.0000
  H   H1        1.0  0.09825077302703283  0.7987102133578434  0.37437113747265716  1.0000
  H   H2        1.0  0.9017534533499258  0.20129869076677656  0.6256158464857506  1.0000
  H   H3        1.0  0.0546579794068549  0.7138075200892048  0.43766242635464164  1.0000
  H   H4        1.0  0.9453481543222395  0.2861997750073187  0.562323078207612  1.0000
  H   H5        1.0  0.21953899080320138  0.48019320253637704  0.5030087405254445  1.0000
  H   H6        1.0  0.7804550643326351  0.5198024811595232  0.49699615111475737  1.0000
  H   H7        1.0  0.21623296692980182  0.24681363995483724  0.6088293130916965  1.0000
  H   H8        1.0  0.7837599086421393  0.7531808613593328  0.39118128101296873  1.0000
  H   H9        1.0  0.0365622038391678  0.6240219058639483  0.4284849886709806  1.0000
  H   H10       1.0  0.9634457894177547  0.37599132679062564  0.5714997741293855  1.0000
  H   H11       1.0  0.05863423484593262  0.5102434118969443  0.4199299028558058  1.0000
  H   H12       1.0  0.9413684139333328  0.4897654283875638  0.5800610466202514  1.0000
  H   H13       1.0  0.06114702554496181  0.9458022625440848  0.45434419450115354  1.0000
  H   H14       1.0  0.938848257448953  0.05419891712742242  0.5456553165135105  1.0000
  H   H15       1.0  0.5901948905237192  0.29366275064337094  0.7245381897342326  1.0000
  H   H16       1.0  0.40980314729095824  0.7063307114432364  0.2754678623361852  1.0000
  H   H17       1.0  0.6823495589095003  0.41199152074794654  0.45555175610792986  1.0000
  H   H18       1.0  0.317639881196186  0.5879932853544717  0.5444591973457021  1.0000
  H   H19       1.0  0.1611327611833389  0.47666074468869385  0.42584530798597325  1.0000
  H   H20       1.0  0.8388602483293398  0.523334874629228  0.574163319638316  1.0000
  H   H21       1.0  0.4635850131498104  0.45935993171640643  0.5712195746464345  1.0000
  H   H22       1.0  0.5364192981921363  0.540633119197743  0.4287769820999755  1.0000
  H   H23       1.0  0.8326281410563184  0.35517219596763994  0.5974627714299031  1.0000
  H   H24       1.0  0.1673806456502192  0.6448388089542477  0.4025249971330922  1.0000
  H   H25       1.0  0.7009440904648302  0.3498854590545053  0.6691573253929731  1.0000
  H   H26       1.0  0.29906245321758723  0.6501161888444146  0.33084036129000066  1.0000
  H   H27       1.0  0.008161149619809297  0.587778791685544  0.23211551738942382  1.0000
  H   H28       1.0  0.9918207252911415  0.41221750546029784  0.7678915636931974  1.0000
  H   H29       1.0  0.8148671511570599  0.42129173512555707  0.3837383103650679  1.0000
  H   H30       1.0  0.1851248103261653  0.5787046266052229  0.6162606645318077  1.0000
  H   H31       1.0  0.9932644537636152  0.9853551937540886  0.24778341650999616  1.0000
  H   H32       1.0  0.0067337879114433  0.014656282746273104  0.7522128748596087  1.0000
  H   H33       1.0  0.40339176701055385  0.29813748180648514  0.6433983006034721  1.0000
  H   H34       1.0  0.5966120901304706  0.7018724380039459  0.35659209584904483  1.0000
  H   H35       1.0  0.42975108224079156  0.4360919238859609  0.7733044214088663  1.0000
  H   H36       1.0  0.570244684221791  0.5639041442134954  0.22670745881379856  1.0000
  H   H37       1.0  0.27162321445954524  0.4997552542767992  0.952057146286087  1.0000
  H   H38       1.0  0.7283744348345563  0.5002356044862426  0.047944225299929144  1.0000
  H   H39       1.0  0.2649103653959984  0.4439650193993361  0.7087498780976772  1.0000
  H   H40       1.0  0.7350879638620288  0.556030594540026  0.29125645419092167  1.0000
  H   H41       1.0  0.458537500770916  0.28999635207873115  0.7912775704861374  1.0000
  H   H42       1.0  0.5414585992345025  0.7100025157053553  0.2087291594700885  1.0000
  H   H43       1.0  0.16997365027764746  0.2776636436189437  0.08291823529815179  1.0000
  H   H44       1.0  0.8300229208070321  0.7223227810690674  0.9170893592189768  1.0000
  H   H45       1.0  0.02813721420623243  0.837284109815805  0.45285000539931974  1.0000
  H   H46       1.0  0.9718636433245679  0.1627193472372639  0.5471409366639292  1.0000
  H   H47       1.0  0.155010509792433  0.244023535344013  0.5338486854646831  1.0000
  H   H48       1.0  0.844984128718963  0.7559682763404256  0.46616052320023704  1.0000
  H   H49       1.0  0.17907899143416023  0.31517706259435135  0.9575736779045839  1.0000
  H   H50       1.0  0.8209196440164208  0.6848169626315369  0.04243092732658462  1.0000
  H   H51       1.0  0.33639265624311326  0.2935185567816633  0.5750893177660072  1.0000
  H   H52       1.0  0.6636100108620582  0.7064902180491545  0.424904908626999  1.0000
  H   H53       1.0  0.3653639788487766  0.4426808232516067  0.8967109298164218  1.0000
  H   H54       1.0  0.6346273260207126  0.5573099017078038  0.1033002181373134  1.0000
  H   H55       1.0  0.983779290277859  0.7074463187564252  0.23099957143683955  1.0000
  H   H56       1.0  0.016207321002880807  0.2925538450223116  0.7690008972853731  1.0000
  H   H57       1.0  0.09951108201892823  0.29205805259000084  0.20073960548048558  1.0000
  H   H58       1.0  0.9004949589756706  0.7079353172740144  0.7992672167653435  1.0000
  H   H59       1.0  0.5955643578105169  0.4648372824027832  0.5045621297711519  1.0000
  H   H60       1.0  0.40443931283730455  0.5351508730771358  0.4954364882375655  1.0000
  H   H61       1.0  0.19865306819767167  0.4402692737755274  0.6391504002660112  1.0000
  H   H62       1.0  0.8013437517420242  0.5597268306503197  0.3608591483655487  1.0000
  H   H63       1.0  0.2431426427363306  0.3093680595979294  0.8337783360448369  1.0000
  H   H64       1.0  0.756858740362617  0.6906309337149711  0.16621954474179976  1.0000
  H   H65       1.0  0.1999658683319439  0.5134846826338162  0.07172945472398591  1.0000
  H   H66       1.0  0.8000334387587388  0.48650226563994187  0.9282776473435913  1.0000
  H   H67       1.0  0.024581704364116802  0.08823602829951942  0.2614411082136741  1.0000
  H   H68       1.0  0.975410081548759  0.9117704277756646  0.7385663231213965  1.0000
  H   H69       1.0  0.30355967404072  0.2268447387292768  0.44847234913139994  1.0000
  H   H70       1.0  0.6964465389285338  0.7731548975747915  0.5515180353684953  1.0000
  H   H71       1.0  0.740565177668394  0.054831510719559204  0.531329800033383  1.0000
  H   H72       1.0  0.2594368344823152  0.9451679335262926  0.4686722514859195  1.0000
  H   H73       1.0  0.7481991415921527  0.2595369835293938  0.529381962467987  1.0000
  H   H74       1.0  0.2518035071871125  0.7404718567551145  0.47060898700807  1.0000
  H   H75       1.0  0.2583214345747749  0.19029952364702757  0.872719240192495  1.0000
  H   H76       1.0  0.7416830299925437  0.8096982642802433  0.12728344305205028  1.0000
  H   H77       1.0  0.8724244681436489  0.07485694503913012  0.456435134552642  1.0000
  H   H78       1.0  0.12758116123836064  0.9251457658360851  0.5435638535030376  1.0000
  H   H79       1.0  0.46919745441685007  0.060021098145064414  0.811129644939399  1.0000
  H   H80       1.0  0.5308099626369086  0.9399833208490451  0.18886406633653477  1.0000
  H   H81       1.0  0.5191907336699799  0.21012874729832737  0.6875261445228417  1.0000
  H   H82       1.0  0.4808152318728531  0.7898767539109957  0.31246816139738326  1.0000
  H   H83       1.0  0.5040557606249436  0.05667527014183091  0.6152073564926184  1.0000
  H   H84       1.0  0.495947321881225  0.9433286362306322  0.38478706770258236  1.0000
  H   H85       1.0  0.14084736317508373  0.14635222955161004  0.12089959544825744  1.0000
  H   H86       1.0  0.8591552701923962  0.8536276577817932  0.8791079195258927  1.0000
  H   H87       1.0  0.20092652539103992  0.0109512989841321  0.6397345473236554  1.0000
  H   H88       1.0  0.7990698577149189  0.9890579244212464  0.36026730186939165  1.0000
  H   H89       1.0  0.6356959415879829  0.07121964127008343  0.5447564880429068  1.0000
  H   H90       1.0  0.3643083702238386  0.92878526982409  0.4552411281766948  1.0000
  H   H91       1.0  0.228878354826584  0.23965586637277173  0.24263787724983385  1.0000
  H   H92       1.0  0.7711244769536095  0.7603412566351369  0.7573718613420225  1.0000
  H   H93       1.0  0.23319567991184437  0.22437138320976402  0.3828204084095999  1.0000
  H   H94       1.0  0.7668101664394554  0.7756292594295859  0.6171738567154036  1.0000
  H   H95       1.0  0.19402961066458604  0.13771492511748565  0.9975886967309363  1.0000
  H   H96       1.0  0.8059742453249968  0.86227047689259  0.0024125013556925055  1.0000
  H   H97       1.0  0.3924095976139911  0.19076415601460894  0.47773121620377873  1.0000
  H   H98       1.0  0.6075905776120508  0.8092255820553976  0.5222709741947751  1.0000
  H   H99       1.0  0.41597669661968695  0.06228689698307483  0.9372269707544163  1.0000
  H   H100      1.0  0.5840252263077589  0.9377120677403853  0.06277208489163376  1.0000
  H   H101      1.0  0.3102900598952871  0.18678655663823926  0.7481561706972215  1.0000
  H   H102      1.0  0.689714535505928  0.8132205343602694  0.25184032134757933  1.0000
  H   H103      1.0  0.1307917162672751  0.009063336969362004  0.5729162749495984  1.0000
  H   H104      1.0  0.8691959399360912  0.9909442694640023  0.4270896217806592  1.0000
  H   H105      1.0  0.4639465041517498  0.19458302311443995  0.5412609076006659  1.0000
  H   H106      1.0  0.536056652358603  0.8054132431666191  0.45873746027019996  1.0000
  H   H107      1.0  0.3440840677504653  0.12776234187786173  0.12729593146516296  1.0000
  H   H108      1.0  0.6559218483277718  0.8722343638341955  0.8727061571350773  1.0000
  H   H109      1.0  0.4000175336618241  0.12372324075434453  0.0006641085533515926  1.0000
  H   H110      1.0  0.5999917843376822  0.8762751060093524  0.9993352915833851  1.0000
  H   H111      1.0  0.8804533218796351  0.27498112805113106  0.4596091997288309  1.0000
  H   H112      1.0  0.11954797674317773  0.7250255427552832  0.5403828648581733  1.0000
  H   H113      1.0  0.2946889707931746  0.052452018379810304  0.7704185068103938  1.0000
  H   H114      1.0  0.7053069364863944  0.9475614911057308  0.22958529814813727  1.0000
  H   H115      1.0  0.22122482375434066  0.05203724536259101  0.7070809469503628  1.0000
  H   H116      1.0  0.7787688542726201  0.9479795179676814  0.2929232556757881  1.0000
  H   H117      1.0  0.6501511995920239  0.2218186206129005  0.6211587979366087  1.0000
  H   H118      1.0  0.34985232449500364  0.7781803237959368  0.37884050537071773  1.0000
  H   H119      1.0  0.28623537424297046  0.43595008005949154  0.1507709960329321  1.0000
  H   H120      1.0  0.7137649789407449  0.5640487927722688  0.8492334295237496  1.0000
  H   H121      1.0  0.3730551081999209  0.4294285227857985  0.08452180881585737  1.0000
  H   H122      1.0  0.6269438093924862  0.5705721735983147  0.9154730995905779  1.0000
  H   H123      1.0  0.3516941113733553  0.3983643510206323  0.1859419973073384  1.0000
  H   H124      1.0  0.6483101873485284  0.6016406068261733  0.814053278257297  1.0000
  H   H125      1.0  0.4013200853902604  0.29976139995106627  0.1046509108237571  1.0000
  H   H126      1.0  0.5986787389787979  0.7002335469175025  0.8953615586778836  1.0000
  H   H127      1.0  0.3446527921014138  0.33394232552787173  0.055467177849429575  1.0000
  H   H128      1.0  0.6553500244597004  0.6660466778662342  0.9445435085448396  1.0000
  H   H129      1.0  0.32104976198874624  0.2449114187517196  0.1402151382202773  1.0000
  H   H130      1.0  0.6789541746695988  0.7550818691089776  0.8597968153387612  1.0000
  C   C1        1.0  0.009959101151977685  0.6769462573902844  0.32795228197786475  1.0000
  C   C2        1.0  0.9900404492805848  0.32305936247963984  0.6720391607732806  1.0000
  C   C3        1.0  0.22333517845639514  0.3638965319379325  0.5602477845419286  1.0000
  C   C4        1.0  0.7766545735477025  0.6360985269299846  0.43976343758945546  1.0000
  C   C5        1.0  0.9963768153343793  0.7470018066065337  0.3249104963021522  1.0000
  C   C6        1.0  0.0036242191953661986  0.25300710074522936  0.6750778648576625  1.0000
  C   C7        1.0  0.1545476515394313  0.35993626743265855  0.474701826145015  1.0000
  C   C8        1.0  0.8454374954176062  0.6400560521566518  0.5253135737354028  1.0000
  C   C9        1.0  0.011182859557003249  0.9029415118734581  0.34673818613241963  1.0000
  C   C10       1.0  0.9888238323264957  0.0970656891799422  0.6532517702061894  1.0000
  C   C11       1.0  0.6814864132181171  0.38121935995754097  0.567672420902852  1.0000
  C   C12       1.0  0.31851373416878914  0.6187741654313257  0.4323294361163476  1.0000
  C   C13       1.0  0.20523632684046336  0.4282025683540029  0.5101092663754442  1.0000
  C   C14       1.0  0.7947559380056363  0.5717914165735253  0.48990043391351157  1.0000
  C   C15       1.0  0.2622273135983164  0.3663319883435606  0.6022585288728804  1.0000
  C   C16       1.0  0.737764692390691  0.6336642144282651  0.39774840425086905  1.0000
  C   C17       1.0  0.10436395854731023  0.41233236654745314  0.2152071724824721  1.0000
  C   C18       1.0  0.8956419853700623  0.5876605518457511  0.7847952494971294  1.0000
  C   C19       1.0  0.9954179663330152  0.8452791976252031  0.3350402321572258  1.0000
  C   C20       1.0  0.004590908638057608  0.15472860235602337  0.6649457162174527  1.0000
  C   C21       1.0  0.20488035793218273  0.2975052399603798  0.5682116790728314  1.0000
  C   C22       1.0  0.795110240092967  0.7024882016046307  0.43179899086053536  1.0000
  C   C23       1.0  0.9120773057551617  0.39762684516811947  0.4412673562678363  1.0000
  C   C24       1.0  0.0879192933613666  0.6023766255383336  0.5587249539329733  1.0000
  C   C25       1.0  0.030571723920687105  0.6202168356554553  0.38256520846947933  1.0000
  C   C26       1.0  0.9694315146405261  0.37979259581990743  0.6174228897743459  1.0000
  C   C27       1.0  0.2260602471194488  0.387731752401031  0.008300213943748129  1.0000
  C   C28       1.0  0.7739372629979472  0.6122580070593103  0.9917021878606673  1.0000
  C   C29       1.0  0.0427165218789654  0.5559193171885541  0.3787569457100445  1.0000
  C   C30       1.0  0.9572867245362106  0.44409008623523516  0.6212325569267562  1.0000
  C   C31       1.0  0.6031670914101284  0.37899525187934574  0.6089991785463054  1.0000
  C   C32       1.0  0.39683277238738424  0.6209960936051929  0.3910038026476953  1.0000
  C   C33       1.0  0.33831261766508197  0.3706376761691814  0.6817205136602806  1.0000
  C   C34       1.0  0.6616886010360049  0.6293639958093566  0.3182785320963858  1.0000
  C   C35       1.0  0.04571615434535659  0.9517577879505623  0.4097448386141948  1.0000
  C   C36       1.0  0.9542807597764169  0.04824775045389631  0.5902519649837215  1.0000
  C   C37       1.0  0.5630834921398531  0.3313265548876317  0.6905962135812017  1.0000
  C   C38       1.0  0.4369162046418182  0.6686674786130667  0.30940746445183703  1.0000
  C   C39       1.0  0.7150515031356903  0.40104738586399696  0.48675719388018734  1.0000
  C   C40       1.0  0.2849427573270803  0.5989417850947663  0.513249206824298  1.0000
  C   C41       1.0  0.17222453355328332  0.4263769731172928  0.4670996042744235  1.0000
  C   C42       1.0  0.827767262361661  0.5736175853757574  0.5329086401114222  1.0000
  C   C43       1.0  0.12145577221809133  0.35726439141926397  0.426851292655776  1.0000
  C   C44       1.0  0.8785356308990375  0.6427312669143321  0.5731561510452391  1.0000
  C   C45       1.0  0.49179241987354066  0.42307968651100947  0.604419709068878  1.0000
  C   C46       1.0  0.508209703144864  0.5769127841763722  0.3955799193794716  1.0000
  C   C47       1.0  0.2666204078315104  0.38028535746695996  0.9366723455134858  1.0000
  C   C48       1.0  0.7333755084914131  0.6197125699733873  0.06332745643425834  1.0000
  C   C49       1.0  0.3409779786346476  0.37268953346890754  0.794074783764934  1.0000
  C   C50       1.0  0.6590219398634432  0.627310588811831  0.2059213510110353  1.0000
  C   C51       1.0  0.7992798837312095  0.368125500932166  0.5666427067840586  1.0000
  C   C52       1.0  0.20072465552186003  0.6318773045240323  0.4333520590288343  1.0000
  C   C53       1.0  0.7252173318811829  0.3642945148488935  0.6068487114114801  1.0000
  C   C54       1.0  0.2747844440155944  0.6357033786234538  0.39314997005998714  1.0000
  C   C55       1.0  0.014129959165750007  0.5991274111805113  0.27378883299184736  1.0000
  C   C56       1.0  0.98585981350508  0.40087654604047174  0.7262094570186047  1.0000
  C   C57       1.0  0.7890976655782895  0.4059123203536999  0.4463012305731764  1.0000
  C   C58       1.0  0.21089908891173084  0.5940840178353214  0.5536966147835682  1.0000
  C   C59       1.0  0.008072158634703888  0.9750055289988566  0.29416860975528886  1.0000
  C   C60       1.0  0.9919318155687196  0.02500108301510551  0.7058251159498282  1.0000
  C   C61       1.0  0.35819416169670154  0.32897932173966643  0.6428731158449708  1.0000
  C   C62       1.0  0.6418087485576437  0.671027291350015  0.35712106892728446  1.0000
  C   C63       1.0  0.3746920569762722  0.409583098142008  0.8136573074855987  1.0000
  C   C64       1.0  0.6253017419204596  0.5904147940476605  0.18634528512038875  1.0000
  C   C65       1.0  0.2345825544064937  0.4537599126495168  0.006871818300815712  1.0000
  C   C66       1.0  0.7654167065191402  0.5462308883967921  0.9931316734704579  1.0000
  C   C67       1.0  0.1452668582029801  0.4040285146735061  0.14375074525587894  1.0000
  C   C68       1.0  0.8547360661190028  0.5959617002296158  0.8562532933480821  1.0000
  C   C69       1.0  0.2806906511190093  0.41108086142636335  0.6792611846012305  1.0000
  C   C70       1.0  0.7193089495441569  0.5889164050665842  0.32074290922714227  1.0000
  C   C71       1.0  0.4522575353967255  0.374445158161251  0.685545619701571  1.0000
  C   C72       1.0  0.547742213956383  0.6255494857692201  0.3144545003708144  1.0000
  C   C73       1.0  0.4889138804152254  0.3286921478594707  0.7285047894430574  1.0000
  C   C74       1.0  0.5110855627453291  0.6713040847844668  0.27149705768675847  1.0000
  C   C75       1.0  0.17639966745202426  0.33000964975879304  0.07929005948150086  1.0000
  C   C76       1.0  0.8235991980577922  0.6699822604785911  0.9207121634739504  1.0000
  C   C77       1.0  0.02903445673312895  0.8915450689304908  0.406807520386266  1.0000
  C   C78       1.0  0.9709662416357929  0.10846104808716463  0.5931855229090034  1.0000
  C   C79       1.0  0.8322199804816961  0.39004878510588287  0.48554936939805043  1.0000
  C   C80       1.0  0.16777702452260002  0.6099535390073855  0.5144460821425482  1.0000
  C   C81       1.0  0.17023569306986272  0.2955591048502841  0.526699677122437  1.0000
  C   C82       1.0  0.8297540841553755  0.7044321760493092  0.4733114102573096  1.0000
  C   C83       1.0  0.23424177443845204  0.34167282013096684  0.91758277969177  1.0000
  C   C84       1.0  0.7657551427901623  0.6583245332060061  0.08241824862551544  1.0000
  C   C85       1.0  0.3203923594427067  0.3265976170711868  0.6044430642280786  1.0000
  C   C86       1.0  0.6796036130283697  0.6734045959114638  0.3955584639515734  1.0000
  C   C87       1.0  0.33792123539306834  0.4132719454243416  0.8833753452130748  1.0000
  C   C88       1.0  0.6620704251335779  0.5867259863188606  0.11662629300321475  1.0000
  C   C89       1.0  0.0008288786491235179  0.6649469784121752  0.27323942895936415  1.0000
  C   C90       1.0  0.9991665577818484  0.3350597357127685  0.7267532879729256  1.0000
  C   C91       1.0  0.13690811717221865  0.3377844290445112  0.1461255506834148  1.0000
  C   C92       1.0  0.8630932716515576  0.662206369850374  0.8538770229535824  1.0000
  C   C93       1.0  0.5656539139789843  0.4251535523131978  0.5670914997520453  1.0000
  C   C94       1.0  0.4343480015833521  0.5748372647448862  0.4329099080893925  1.0000
  C   C95       1.0  0.24345763592477718  0.40880419088560427  0.6401098845761551  1.0000
  C   C96       1.0  0.7565388516424962  0.5911935957589807  0.35989670980291044  1.0000
  C   C97       1.0  0.2702292521566747  0.33807657813017056  0.8479043503897825  1.0000
  C   C98       1.0  0.7297697546589887  0.6619245977763413  0.15209355388989804  1.0000
  C   C99       1.0  0.1943708546015586  0.4620167052439968  0.07325426753158824  1.0000
  C   C100      1.0  0.805627808688165  0.5379735326630312  0.9267506710789346  1.0000
  C   C101      1.0  0.024893023226447  0.031561098977675804  0.3017993541229771  1.0000
  C   C102      1.0  0.9750992632451133  0.9684454687659713  0.6982022301066093  1.0000
  C   C103      1.0  0.138515596559813  0.11431427081930684  0.43127966378746413  1.0000
  C   C104      1.0  0.8614797861293157  0.8856873509724896  0.5687247156244193  1.0000
  C   C105      1.0  0.7333178603535302  0.15621280935734927  0.5355630034951983  1.0000
  C   C106      1.0  0.26668560971449307  0.8437900158756124  0.4644312851228419  1.0000
  C   C107      1.0  0.17799741779608522  0.1161313920616891  0.4730315504654285  1.0000
  C   C108      1.0  0.8219982511004247  0.8838724002839128  0.5269721729026456  1.0000
  C   C109      1.0  0.8845213924270965  0.17673852369781431  0.4524693033741727  1.0000
  C   C110      1.0  0.11547983412796013  0.823263120229136  0.5475311467754762  1.0000
  C   C111      1.0  0.26693065130819355  0.17814379951958875  0.4754656981813311  1.0000
  C   C112      1.0  0.7330719070774023  0.8218600793391461  0.524530359940421  1.0000
  C   C113      1.0  0.9642621162951032  0.18744830314831523  0.40990132045050126  1.0000
  C   C114      1.0  0.03573991796992005  0.8125555481966915  0.5900963715977949  1.0000
  C   C115      1.0  0.3012892125541243  0.13064247340222582  0.9892343577857258  1.0000
  C   C116      1.0  0.6987169388193237  0.869352098620283  0.010766284800787645  1.0000
  C   C117      1.0  0.7700877837876092  0.10466570790229211  0.5139880596626725  1.0000
  C   C118      1.0  0.2299135557642771  0.8953371288326294  0.4860066789586597  1.0000
  C   C119      1.0  0.7745355856410187  0.2176711148031529  0.5153254201523791  1.0000
  C   C120      1.0  0.22546436544333665  0.782333377174638  0.4846682276765645  1.0000
  C   C121      1.0  0.3038396653160902  0.1603757998617895  0.8605638062605719  1.0000
  C   C122      1.0  0.6961679475513735  0.8396258282603598  0.13943435761724018  1.0000
  C   C123      1.0  0.30110195532854794  0.12064831718178232  0.5871821327069141  1.0000
  C   C124      1.0  0.6988975004330911  0.8793560444264943  0.41281829848949747  1.0000
  C   C125      1.0  0.25846323327255766  0.11876059954796156  0.5486800912909684  1.0000
  C   C126      1.0  0.7415350797887045  0.8812432462115186  0.45131967562330283  1.0000
  C   C127      1.0  0.8444345624082815  0.11536411025247165  0.4719896888667846  1.0000
  C   C128      1.0  0.15556917698877734  0.8846364597340898  0.528009239440436  1.0000
  C   C129      1.0  0.6542529811617328  0.14722598598951464  0.5774983682932059  1.0000
  C   C130      1.0  0.34574870123453394  0.8527751311245527  0.4225011971045869  1.0000
  C   C131      1.0  0.4229183086658992  0.08874984405640164  0.8248091503182166  1.0000
  C   C132      1.0  0.5770869017384045  0.9112540601646376  0.1751843557427149  1.0000
  C   C133      1.0  0.5447107597891119  0.17897581996764705  0.6569020768704376  1.0000
  C   C134      1.0  0.455292123114944  0.8210264047239308  0.3430955311108333  1.0000
  C   C135      1.0  0.5363641768235111  0.09300764629528403  0.616249589602553  1.0000
  C   C136      1.0  0.4636378600594924  0.9069961956992005  0.3837485705767419  1.0000
  C   C137      1.0  0.5022854028033308  0.13209683689218113  0.6566619786675574  1.0000
  C   C138      1.0  0.4977165579463545  0.8679064788272727  0.34333552629345115  1.0000
  C   C139      1.0  0.3330146451875606  0.12713854621500087  0.9150792840649656  1.0000
  C   C140      1.0  0.6669954043885866  0.8728614816917214  0.0849167027521389  1.0000
  C   C141      1.0  0.1977171698426332  0.14169338043271307  0.09378875008178506  1.0000
  C   C142      1.0  0.8022863416433098  0.8582974350117927  0.9062119691589455  1.0000
  C   C143      1.0  0.20817101243646619  0.05806569128300511  0.5834183158105972  1.0000
  C   C144      1.0  0.791824094028378  0.9419418982698391  0.4165848355806928  1.0000
  C   C145      1.0  0.2394584363710663  0.1386776937599095  0.1311346810465324  1.0000
  C   C146      1.0  0.760549082526012  0.8613152978239358  0.8688633072844137  1.0000
  C   C147      1.0  0.6108423382833338  0.10115818605984123  0.5769735447229819  1.0000
  C   C148      1.0  0.38915949376158915  0.8988439929548095  0.42302686298038567  1.0000
  C   C149      1.0  0.3846175336907578  0.12351479664558704  0.6605102048648561  1.0000
  C   C150      1.0  0.6153808171927366  0.876493400109894  0.3394880113643736  1.0000
  C   C151      1.0  0.24412449368090716  0.2942685883004545  0.23038703972390792  1.0000
  C   C152      1.0  0.7558755821081178  0.7057317703889795  0.7696242623311276  1.0000
  C   C153      1.0  0.22707107889577574  0.17726963874481785  0.43850389607436563  1.0000
  C   C154      1.0  0.7729278622585128  0.8227309734845608  0.5614952255110024  1.0000
  C   C155      1.0  0.22796700429302064  0.13734945104751972  0.02439535213738245  1.0000
  C   C156      1.0  0.7720384906783765  0.862640281643927  0.9756045429254879  1.0000
  C   C157      1.0  0.36992319873358076  0.16096235362569905  0.5421601312841631  1.0000
  C   C158      1.0  0.6300791222276702  0.8390354925561572  0.4578406613086937  1.0000
  C   C159      1.0  0.3931184571703668  0.09092533554007083  0.8954546817057646  1.0000
  C   C160      1.0  0.6068896667277386  0.9090763668484386  0.10453950759053746  1.0000
  C   C161      1.0  0.33334627267294803  0.1589931323579137  0.7896792354482044  1.0000
  C   C162      1.0  0.666659310544013  0.8410134312898452  0.21031614231117138  1.0000
  C   C163      1.0  0.168999275136926  0.05648633576731752  0.5459831501000565  1.0000
  C   C164      1.0  0.8309919052860764  0.943519585220166  0.45402432368128826  1.0000
  C   C165      1.0  0.3939809443186065  0.12369061619894245  0.7702517051016571  1.0000
  C   C166      1.0  0.6060257054654131  0.8763159370225752  0.22974368172157242  1.0000
  C   C167      1.0  0.4108162697602681  0.16299266925100403  0.5776802281680985  1.0000
  C   C168      1.0  0.5891865122781679  0.8370046314169103  0.4223206159348932  1.0000
  C   C169      1.0  0.3123035546814066  0.131221207070368  0.0971401146927207  1.0000
  C   C170      1.0  0.68770189508367  0.8687760628566892  0.902860986135401  1.0000
  C   C171      1.0  0.2071242091166781  0.14096430755955683  0.20742793261023704  1.0000
  C   C172      1.0  0.7928760312818924  0.8590341699045541  0.7925692838942594  1.0000
  C   C173      1.0  0.3428182368551589  0.12779306767516374  0.02713850712164149  1.0000
  C   C174      1.0  0.6571895865752141  0.8722020290088042  0.9728621020824517  1.0000
  C   C175      1.0  0.8488496625193491  0.22730713458298632  0.47546183951506277  1.0000
  C   C176      1.0  0.1511496604719724  0.7727005909249058  0.5245324536427843  1.0000
  C   C177      1.0  0.3159275093855811  0.08304901136596501  0.7061734252046817  1.0000
  C   C178      1.0  0.684064668836271  0.9169645205856302  0.2938310502268419  1.0000
  C   C179      1.0  0.27504116190293365  0.08233219149094143  0.6700770863461258  1.0000
  C   C180      1.0  0.7249536052942461  0.917680792795288  0.3299265224612496  1.0000
  C   C181      1.0  0.6190117169601025  0.18561273839894457  0.6187877339666553  1.0000
  C   C182      1.0  0.3809904974106999  0.8143883781772704  0.3812116018975684  1.0000
  C   C183      1.0  0.3305220903188655  0.402891775952  0.14547604228668112  1.0000
  C   C184      1.0  0.6694792018975663  0.5971104316520909  0.8545231905572805  1.0000
  C   C185      1.0  0.3454090308595426  0.30082001553410714  0.11328093332662799  1.0000
  C   C186      1.0  0.6545919923050009  0.6991754741591196  0.8867303369970327  1.0000
  N   N1        1.0  0.021275949351625918  0.7789950645838958  0.3541126615036915  1.0000
  N   N2        1.0  0.9787291256643798  0.22101221288728826  0.6458742383876838  1.0000
  N   N3        1.0  0.04470400510911081  0.020417903211637205  0.35786232221065717  1.0000
  N   N4        1.0  0.9552907233071083  0.9795870456155314  0.642138021220198  1.0000
  N   N5        1.0  0.9568294183805791  0.8525016164423603  0.2965969204376645  1.0000
  N   N6        1.0  0.043178225625574405  0.14750887263073761  0.7033901838431902  1.0000
  N   N7        1.0  0.07510585147773702  0.7553411170210113  0.37936252199171605  1.0000
  N   N8        1.0  0.9249002901053205  0.2446661500239317  0.6206243869635129  1.0000
  N   N9        1.0  0.37662877217798035  0.37146636964256885  0.7218988167538496  1.0000
  N   N10       1.0  0.6233725069485062  0.6285358847141609  0.278098075435153  1.0000
  N   N11       1.0  0.03563261371051854  0.5454973726275231  0.3250452623099916  1.0000
  N   N12       1.0  0.964361245122767  0.45450927765730154  0.6749514201399547  1.0000
  N   N13       1.0  0.9567141693428384  0.7913484182402898  0.29121327314694406  1.0000
  N   N14       1.0  0.04328769122278691  0.20866263107584615  0.7087756068284747  1.0000
  N   N15       1.0  0.4263981340455629  0.12468780526361205  0.6966713743170914  1.0000
  N   N16       1.0  0.5736033273158512  0.8753198806907536  0.30332387323046095  1.0000
  N   N17       1.0  0.3049406098902239  0.3309012390920003  0.16549368429858186  1.0000
  N   N18       1.0  0.6950612840276734  0.6690970310469456  0.8345131424870471  1.0000
  O   O1        1.0  0.10341212562020269  0.4753387590931838  0.2095706097896509  1.0000
  O   O2        1.0  0.8965993864276669  0.5246519734792657  0.7904304114954993  1.0000
  O   O3        1.0  0.10279509677251748  0.29430238850432033  0.44072033784225767  1.0000
  O   O4        1.0  0.8972009770530249  0.705696572785037  0.5592817108040432  1.0000
  O   O5        1.0  0.9390432540430215  0.4252369323611944  0.36554983732643365  1.0000
  O   O6        1.0  0.060951561190158494  0.5747693027792026  0.6344401132661799  1.0000
  O   O7        1.0  0.06926038605377732  0.355889815056898  0.2829108426417475  1.0000
  O   O8        1.0  0.9307415095233794  0.6441047612684586  0.717091636213311  1.0000
  O   O9        1.0  0.9507291486981799  0.37872900500811835  0.4776144035629313  1.0000
  O   O10       1.0  0.04927168003475663  0.6212745549007511  0.5223713890594011  1.0000
  O   O11       1.0  0.1148473947411404  0.41793120580122434  0.3748199853623006  1.0000
  O   O12       1.0  0.8851452141197527  0.5820655414088237  0.6251864371841831  1.0000
  O   O13       1.0  0.9975274804412919  0.22566832882329627  0.42050580966837714  1.0000
  O   O14       1.0  0.0024741167972805954  0.774327808163946  0.5794998006370946  1.0000
  O   O15       1.0  0.13592820147126622  0.17459684623800348  0.37333695254173443  1.0000
  O   O16       1.0  0.8640812495102494  0.825398934066378  0.6266556650530573  1.0000
  O   O17       1.0  0.1089930577356952  0.05523484853004129  0.4480772251151706  1.0000
  O   O18       1.0  0.8909919862076165  0.9447644165661516  0.5519420022291753  1.0000
  O   O19       1.0  0.14045815181078322  0.1537799492680065  0.23089828404047094  1.0000
  O   O20       1.0  0.859545781952413  0.8462223211004913  0.7690965242186959  1.0000
  O   O21       1.0  0.20756109775842194  0.32004251028524794  0.27552817386501255  1.0000
  O   O22       1.0  0.7924436466098825  0.6799529849935129  0.7244810215926732  1.0000
  O   O23       1.0  0.9928085226859907  0.15628323059791432  0.36766455334048925  1.0000
  O   O24       1.0  0.0071884266400346454  0.8437266681530746  0.6323302314413933  1.0000
  O   O25       1.0  0.24363452770013083  0.13098981558604816  0.24369817504200586  1.0000
  O   O26       1.0  0.7563641891197509  0.8690047172138124  0.7563080216694328  1.0000
