data_image0
_chemical_formula_structural       Cu2H12C16N16Cl4
_chemical_formula_sum              "Cu2 H12 C16 N16 Cl4"
_cell_length_a       7.297742948713312
_cell_length_b       7.762742730730682
_cell_length_c       11.917224798167123
_cell_angle_alpha    109.06757178036854
_cell_angle_beta     107.8760559984305
_cell_angle_gamma    89.7906641935061

_space_group_name_H-M_alt    "P 1"
_space_group_IT_number       1

loop_
  _space_group_symop_operation_xyz
  'x, y, z'

loop_
  _atom_site_type_symbol
  _atom_site_label
  _atom_site_symmetry_multiplicity
  _atom_site_fract_x
  _atom_site_fract_y
  _atom_site_fract_z
  _atom_site_occupancy
  Cu  Cu1       1.0  0.9716664345330415  0.22182011755681694  0.4434297693215257  1.0000
  Cu  Cu2       1.0  0.028332454641038413  0.7781776048479473  0.5565683999625364  1.0000
  H   H1        1.0  0.3918817300906382  0.6421917729602667  0.2838901249112169  1.0000
  H   H2        1.0  0.6081173209816059  0.3578073402804094  0.7161100428619488  1.0000
  H   H3        1.0  0.3501513490975725  0.2176788350312862  0.9323089472684173  1.0000
  H   H4        1.0  0.08215367131683851  0.7145500686249662  0.9321172039373948  1.0000
  H   H5        1.0  0.6498464135620736  0.7823216385334463  0.06769042396136629  1.0000
  H   H6        1.0  0.9178515970209274  0.28545313963355323  0.06788330191168511  1.0000
  H   H7        1.0  0.1582951993942388  0.4080796729495689  0.8162033787756043  1.0000
  H   H8        1.0  0.8417041615399299  0.5919221820554698  0.18379741847149939  1.0000
  H   H9        1.0  0.6873083339396899  0.5185472329781008  0.35493496936764757  1.0000
  H   H10       1.0  0.1666634082290628  0.8362677379314079  0.354632332275834  1.0000
  H   H11       1.0  0.3126918401633887  0.4814491191257417  0.645063154583731  1.0000
  H   H12       1.0  0.8333373960486625  0.16373412763176276  0.6453695762516318  1.0000
  C   C1        1.0  0.6456434368925699  0.3766796285989002  0.29279962761194867  1.0000
  C   C2        1.0  0.1466260721007515  0.9161375629826836  0.2926007650836694  1.0000
  C   C3        1.0  0.35435607897255744  0.6233235972883193  0.7072014843721277  1.0000
  C   C4        1.0  0.8533744257986484  0.08386157079299751  0.7074013558459242  1.0000
  C   C5        1.0  0.38258166555120005  0.4206781759041291  0.11404918686593389  1.0000
  C   C6        1.0  0.2314258637597604  0.69357335434929  0.11394886377086515  1.0000
  C   C7        1.0  0.6174189837955596  0.5793223187768604  0.8859524069245593  1.0000
  C   C8        1.0  0.7685775103759553  0.3064257706120372  0.8860529540912265  1.0000
  C   C9        1.0  0.34090175760207597  0.5910788313272023  0.1817822885420313  1.0000
  C   C10       1.0  0.6590956882284474  0.4089188805194226  0.8182147694616687  1.0000
  C   C11       1.0  0.3159611486767346  0.35146550307045027  0.982998173635458  1.0000
  C   C12       1.0  0.1670559872892241  0.6315833784128771  0.9828901153616413  1.0000
  C   C13       1.0  0.6840380468756707  0.6485349511217963  0.016999783246468825  1.0000
  C   C14       1.0  0.8329463978450277  0.36841981870625773  0.0171090098027875  1.0000
  C   C15       1.0  0.20939192601328932  0.4593149156627732  0.9186102877866134  1.0000
  C   C16       1.0  0.7906088712972376  0.5406869299466522  0.08138993698870677  1.0000
  N   N1        1.0  0.7294188039130847  0.23072283036529484  0.308511001269153  1.0000
  N   N2        1.0  0.0788399341920467  0.0779651916694064  0.3084036240795598  1.0000
  N   N3        1.0  0.270582658602585  0.7692721614144915  0.6914879192256079  1.0000
  N   N4        1.0  0.9211591203637965  0.9220339315481426  0.6915973855696791  1.0000
  N   N5        1.0  0.6386029070650138  0.0827787513201628  0.20486757534173705  1.0000
  N   N6        1.0  0.06649294194519231  0.12246484390620081  0.2048660093687502  1.0000
  N   N7        1.0  0.36139598559266534  0.9172189810614669  0.7951314358183907  1.0000
  N   N8        1.0  0.9335061160942499  0.8775342892882207  0.7951358421565614  1.0000
  N   N9        1.0  0.5031129859785395  0.13357339681290634  0.1271679423558112  1.0000
  N   N10       1.0  0.1243244696920129  0.9939741572865728  0.1271431568027168  1.0000
  N   N11       1.0  0.49688591016273886  0.8664243455455888  0.8728319106803892  1.0000
  N   N12       1.0  0.875674898209347  0.006027717672210997  0.8728593241965255  1.0000
  N   N13       1.0  0.5046614464664003  0.31831700778322153  0.18041256146280918  1.0000
  N   N14       1.0  0.17553325270460363  0.8622612838742613  0.18025454339074534  1.0000
  N   N15       1.0  0.4953358479167634  0.681679343158095  0.8195850236799912  1.0000
  N   N16       1.0  0.824466108229565  0.13774057113077728  0.8197462538563656  1.0000
  Cl  Cl1       1.0  0.22016235003536616  0.15854757359775107  0.5892334626154535  1.0000
  Cl  Cl2       1.0  0.8689548478163118  0.43070538642387396  0.5893139243290264  1.0000
  Cl  Cl3       1.0  0.7798333600076646  0.8414474358107427  0.41076606401431087  1.0000
  Cl  Cl4       1.0  0.131044041357768  0.5692923359808831  0.4106842449550284  1.0000
