data_image0
_chemical_formula_structural       Gd4H24C20O32
_chemical_formula_sum              "Gd4 H24 C20 O32"
_cell_length_a       9.513889182337104
_cell_length_b       9.513945982710023
_cell_length_c       13.86365223996515
_cell_angle_alpha    100.05072819332072
_cell_angle_beta     100.04574575768798
_cell_angle_gamma    119.3832709307959

_space_group_name_H-M_alt    "P 1"
_space_group_IT_number       1

loop_
  _space_group_symop_operation_xyz
  'x, y, z'

loop_
  _atom_site_type_symbol
  _atom_site_label
  _atom_site_symmetry_multiplicity
  _atom_site_fract_x
  _atom_site_fract_y
  _atom_site_fract_z
  _atom_site_occupancy
  Gd  Gd1       1.0  0.7473278515302155  0.9973166375290534  0.9947007335386077  1.0000
  Gd  Gd2       1.0  0.5026799523723398  0.7526898038675894  0.5053044657070984  1.0000
  Gd  Gd3       1.0  0.2526817593771611  0.0026849817368699005  0.005304206712864406  1.0000
  Gd  Gd4       1.0  0.49730242463932933  0.24730454408390307  0.4946935968555693  1.0000
  H   H1        1.0  0.5692048382792978  0.9602352723508646  0.15914742910834434  1.0000
  H   H2        1.0  0.08957644354896391  0.19814605735975732  0.1594038218422824  1.0000
  H   H3        1.0  0.5397482643652297  0.9307841359100525  0.3408394667984994  1.0000
  H   H4        1.0  0.30185032831173697  0.4104193509436201  0.34060198348223747  1.0000
  H   H5        1.0  0.4307992606801888  0.0397660756398963  0.8408532352256516  1.0000
  H   H6        1.0  0.9104224385546118  0.8018513600692857  0.8405950627199844  1.0000
  H   H7        1.0  0.460244312230607  0.06920931047206122  0.6591575073574276  1.0000
  H   H8        1.0  0.6981425609760309  0.5895766953359782  0.6594010986427181  1.0000
  H   H9        1.0  0.7323576269930712  0.962671785164517  0.21344856425070452  1.0000
  H   H10       1.0  0.9808646628331913  0.2504056133708588  0.21372839386392434  1.0000
  H   H11       1.0  0.5373254896799652  0.7676257849542338  0.2865505788424016  1.0000
  H   H12       1.0  0.24958536074955617  0.5191130898828362  0.28627545168568963  1.0000
  H   H13       1.0  0.26766141257265735  0.03735479457039051  0.7865488134415273  1.0000
  H   H14       1.0  0.019155197181945107  0.7496161650695259  0.7862757367955879  1.0000
  H   H15       1.0  0.4627013001016491  0.23238872504688862  0.7134491842320969  1.0000
  H   H16       1.0  0.7504377849721637  0.4808963467243715  0.7137247454266102  1.0000
  H   H17       1.0  0.09315546749248688  0.527910304391334  0.9334575923391526  1.0000
  H   H18       1.0  0.3404731581046931  0.4057659549146778  0.933691729761968  1.0000
  H   H19       1.0  0.9720904305057516  0.40685742178160933  0.5665454951641706  1.0000
  H   H20       1.0  0.09424546004805726  0.15955469773772524  0.5663292854975026  1.0000
  H   H21       1.0  0.9068671358110337  0.47210192571503035  0.06656089943840023  1.0000
  H   H22       1.0  0.659530905654897  0.5942228747079881  0.06630171092546529  1.0000
  H   H23       1.0  0.027890379723245873  0.5931255919434405  0.43344530358902494  1.0000
  H   H24       1.0  0.9057581861049468  0.8404541065243194  0.4336736320337452  1.0000
  C   C1        1.0  0.35691748450499017  0.7007549537954321  0.9392105550000026  1.0000
  C   C2        1.0  0.08231953244098379  0.23866587439901113  0.9393515152292622  1.0000
  C   C3        1.0  0.7992509660897511  0.14309152300240413  0.5607843277749184  1.0000
  C   C4        1.0  0.261361460638284  0.417698128198417  0.5606669794753074  1.0000
  C   C5        1.0  0.6430902683899404  0.2992452359448379  0.06078751257065559  1.0000
  C   C6        1.0  0.9176796826915562  0.7613302082446225  0.060641482470316505  1.0000
  C   C7        1.0  0.20074549470697184  0.8569032824078064  0.43921181029345047  1.0000
  C   C8        1.0  0.7386263497569913  0.5823026538235682  0.43933389898599984  1.0000
  C   C9        1.0  0.21023185895782598  0.533569450610095  0.9322418270499071  1.0000
  C   C10       1.0  0.22212269129546766  0.3988680600560244  0.9323256846533214  1.0000
  C   C11       1.0  0.9664215101662349  0.2897665670440688  0.5677588955675787  1.0000
  C   C12       1.0  0.10114513063410166  0.2778999592354837  0.5676887241278409  1.0000
  C   C13       1.0  0.7897600202423976  0.46642039238896166  0.06776258445925983  1.0000
  C   C14       1.0  0.7778883039416655  0.6011384690144865  0.0676742129978649  1.0000
  C   C15       1.0  0.03356045740332558  0.7102165560152829  0.4322356565646005  1.0000
  C   C16       1.0  0.8988457154512233  0.7220984269635551  0.4323107855615406  1.0000
  C   C17       1.0  0.6719906800649582  0.8279982300204551  0.7499919427048313  1.0000
  C   C18       1.0  0.5779787441174449  0.9220252414702019  0.7500021306260437  1.0000
  C   C19       1.0  0.32800154590196934  0.171990291963013  0.2500073064905095  1.0000
  C   C20       1.0  0.422046844373277  0.07799931175411962  0.2500073120778481  1.0000
  O   O1        1.0  0.3351830534876257  0.8244217887539379  0.9513633104831315  1.0000
  O   O2        1.0  0.116309410371521  0.1272463397862111  0.9516337724048897  1.0000
  O   O3        1.0  0.6755690820509983  0.16480647913547133  0.5486216116765803  1.0000
  O   O4        1.0  0.3727761873272684  0.3836897144570983  0.5483988071946017  1.0000
  O   O5        1.0  0.6648275812450493  0.17558604756234797  0.04864102493299783  1.0000
  O   O6        1.0  0.8836970582200936  0.8727552819524219  0.04837729688257751  1.0000
  O   O7        1.0  0.32441575963191144  0.8351717996714357  0.4513734337522593  1.0000
  O   O8        1.0  0.6272237362015503  0.6163201792063547  0.4516030843556181  1.0000
  O   O9        1.0  0.6513335805326291  0.9270954785202009  0.14706279929578156  1.0000
  O   O10       1.0  0.9949828139706938  0.2186428148711173  0.14730132048901376  1.0000
  O   O11       1.0  0.5728939625037626  0.8486646308999044  0.3529326710903363  1.0000
  O   O12       1.0  0.2813462989347073  0.5050170011257151  0.3527064441581019  1.0000
  O   O13       1.0  0.3486627186873861  0.07289687846050442  0.8529352008411737  1.0000
  O   O14       1.0  0.0050202749012485835  0.7813523298390949  0.852700673229194  1.0000
  O   O15       1.0  0.42709779691893596  0.15133133358502704  0.6470681067533732  1.0000
  O   O16       1.0  0.7186361192902027  0.4949773881352328  0.6472937920511939  1.0000
  O   O17       1.0  0.4968629526071807  0.7178882874427543  0.936291968346126  1.0000
  O   O18       1.0  0.9393554828880111  0.21851280856594713  0.936347076475194  1.0000
  O   O19       1.0  0.7821287416123184  0.003148059811316293  0.5636987764770609  1.0000
  O   O20       1.0  0.28149543729404053  0.5606478549707248  0.56364918749766  1.0000
  O   O21       1.0  0.5031453498444093  0.2821130710208807  0.06370124848874781  1.0000
  O   O22       1.0  0.06064130106213387  0.7814868937032672  0.06364533745601617  1.0000
  O   O23       1.0  0.2178670361124803  0.9968516845915901  0.43629785411276606  1.0000
  O   O24       1.0  0.7184749782852435  0.43934606141321814  0.4363481626330526  1.0000
  O   O25       1.0  0.7573437459798242  0.8432519342971434  0.836444767169212  1.0000
  O   O26       1.0  0.5790226422163017  0.9931451978587023  0.8364603701711104  1.0000
  O   O27       1.0  0.6567500357219914  0.7426585360207697  0.6635553326121979  1.0000
  O   O28       1.0  0.5068741680681157  0.9209937559421136  0.6635642475890721  1.0000
  O   O29       1.0  0.24266518244156288  0.15676315256740736  0.1635529962230606  1.0000
  O   O30       1.0  0.4209760898971807  0.006868507383529697  0.163549038282973  1.0000
  O   O31       1.0  0.34324459781404215  0.2573325842117171  0.33644593852816485  1.0000
  O   O32       1.0  0.49311659500477845  0.07899601903208972  0.33643858418772515  1.0000
