data_image0
_chemical_formula_structural       Na4H24C8S8O16
_chemical_formula_sum              "Na4 H24 C8 S8 O16"
_cell_length_a       5.548063085308238
_cell_length_b       11.033119699352337
_cell_length_c       11.412552483717464
_cell_angle_alpha    90.00154720696163
_cell_angle_beta     103.4480689058845
_cell_angle_gamma    89.99670614140454

_space_group_name_H-M_alt    "P 1"
_space_group_IT_number       1

loop_
  _space_group_symop_operation_xyz
  'x, y, z'

loop_
  _atom_site_type_symbol
  _atom_site_label
  _atom_site_symmetry_multiplicity
  _atom_site_fract_x
  _atom_site_fract_y
  _atom_site_fract_z
  _atom_site_occupancy
  Na  Na1       1.0  0.22718173947449574  0.0920544259812175  0.24222386903962706  1.0000
  Na  Na2       1.0  0.7271779327917471  0.9079475517481368  0.24220919390747045  1.0000
  Na  Na3       1.0  0.9788771981356066  0.4004820842802202  0.24287724603264857  1.0000
  Na  Na4       1.0  0.4788728547981762  0.5995203931996114  0.24287937973019072  1.0000
  H   H1        1.0  0.17658158100649501  0.47961814880471093  0.9587184774339265  1.0000
  H   H2        1.0  0.6766017953333263  0.5203850869628681  0.9587032026642535  1.0000
  H   H3        1.0  0.3515538953136571  0.39156724050651076  0.8750808139595991  1.0000
  H   H4        1.0  0.8515589820251606  0.6084321507991814  0.8750702012276151  1.0000
  H   H5        1.0  0.8932044314344553  0.3645124653126855  0.7980270809684882  1.0000
  H   H6        1.0  0.3931920004387095  0.6354814723566022  0.7980205843553918  1.0000
  H   H7        1.0  0.8675067255680847  0.309535464805684  0.9414013883833547  1.0000
  H   H8        1.0  0.3674898890446059  0.6904624923302406  0.941399767083233  1.0000
  H   H9        1.0  0.15174818484812394  0.2959064770163877  0.6077664144460756  1.0000
  H   H10       1.0  0.6517653743726372  0.7040980523825622  0.6077727891031445  1.0000
  H   H11       1.0  0.3711830963803564  0.1962031709255996  0.5692745705173579  1.0000
  H   H12       1.0  0.8711766775524981  0.8037835018986356  0.5692608641708716  1.0000
  H   H13       1.0  0.876629675928804  0.1010302757751376  0.6098637545926096  1.0000
  H   H14       1.0  0.37660282385942173  0.8989708162176483  0.6098554024059766  1.0000
  H   H15       1.0  0.0683761126376652  0.03169226922348399  0.5216743924700253  1.0000
  H   H16       1.0  0.5683486279906589  0.9683001197741771  0.5216711156286921  1.0000
  H   H17       1.0  0.7523883631185058  0.11431956792068117  0.08155538823838532  1.0000
  H   H18       1.0  0.25238025745055387  0.885691013338565  0.08155150380793691  1.0000
  H   H19       1.0  0.9337800185830006  0.02454106066150529  0.0368837626914811  1.0000
  H   H20       1.0  0.43374016144453975  0.9754646241049653  0.0368832138309472  1.0000
  H   H21       1.0  0.4385301642460178  0.3920566706077365  0.42800371086740807  1.0000
  H   H22       1.0  0.9385123028332532  0.6079418042778428  0.4279999083152647  1.0000
  H   H23       1.0  0.35554797076119377  0.525634129693806  0.4488095275513261  1.0000
  H   H24       1.0  0.8555513335556738  0.474373606684068  0.44880906988503  1.0000
  C   C1        1.0  0.22545309307549397  0.3875158514674624  0.9363408587563672  1.0000
  C   C2        1.0  0.7254508399153465  0.6124863569774842  0.9363298168629512  1.0000
  C   C3        1.0  0.9926894874204776  0.3169639831168424  0.8797959051890987  1.0000
  C   C4        1.0  0.4926722087486439  0.6830330190242009  0.8797912596474973  1.0000
  C   C5        1.0  0.2120811757503489  0.20095795455944193  0.6113534840351846  1.0000
  C   C6        1.0  0.7120811231581642  0.7990441438371788  0.6113471137157235  1.0000
  C   C7        1.0  0.002352787739255307  0.11809585576328625  0.549960618357531  1.0000
  C   C8        1.0  0.5023329444925722  0.8818994537489429  0.5499512456731495  1.0000
  S   S1        1.0  0.40807781507085383  0.32668520669700024  0.07549601504902631  1.0000
  S   S2        1.0  0.9080740561172148  0.6733193973114594  0.07548335019083649  1.0000
  S   S3        1.0  0.036284760216887015  0.15870615373169977  0.8409111026522994  1.0000
  S   S4        1.0  0.5362415980802242  0.8412897507262755  0.8409083559124756  1.0000
  S   S5        1.0  0.3388994123722924  0.158883342851972  0.7687092666695962  1.0000
  S   S6        1.0  0.8388664945836198  0.8411071138868632  0.7687152796157407  1.0000
  S   S7        1.0  0.8142389723971492  0.18440409982611772  0.41671693089487155  1.0000
  S   S8        1.0  0.3142291668881186  0.8155948853441399  0.41670430160814226  1.0000
  O   O1        1.0  0.5593591746416564  0.42920248057699667  0.13547876472154033  1.0000
  O   O2        1.0  0.059374168367647015  0.570799193287229  0.1354618591878207  1.0000
  O   O3        1.0  0.2322280428384929  0.2819993892267333  0.14398085145177933  1.0000
  O   O4        1.0  0.7322139549707884  0.7180081203523229  0.14397031483817102  1.0000
  O   O5        1.0  0.5638616295887291  0.23188166339127037  0.04136492104590422  1.0000
  O   O6        1.0  0.0638411316564742  0.7681183447741021  0.04135790535908511  1.0000
  O   O7        1.0  0.9804848567174815  0.21197985257039423  0.3368465707316872  1.0000
  O   O8        1.0  0.48046876171532915  0.7880085429627925  0.3368294631452144  1.0000
  O   O9        1.0  0.6276990669089528  0.09157774645235148  0.3655215777468116  1.0000
  O   O10       1.0  0.1276781258398643  0.9084240908753997  0.3655159316775638  1.0000
  O   O11       1.0  0.7063100292319647  0.29492717545838326  0.4565948942595244  1.0000
  O   O12       1.0  0.2063141669585065  0.7050762183492052  0.45658433383413677  1.0000
  O   O13       1.0  0.8496786012009423  0.0386719465118333  0.1017495762644316  1.0000
  O   O14       1.0  0.34965366731585595  0.9613369563389819  0.1017522532254205  1.0000
  O   O15       1.0  0.2969216751298305  0.4485359772582668  0.41063813486191253  1.0000
  O   O16       1.0  0.7969038663216281  0.5514648452279046  0.4106386726309382  1.0000
