data_image0
_chemical_formula_structural       Cs4H28C32O12
_chemical_formula_sum              "Cs4 H28 C32 O12"
_cell_length_a       7.217754545216959
_cell_length_b       7.4668048080065805
_cell_length_c       17.276000537527615
_cell_angle_alpha    89.9999158507365
_cell_angle_beta     89.99911047322126
_cell_angle_gamma    89.99991046811597

_space_group_name_H-M_alt    "P 1"
_space_group_IT_number       1

loop_
  _space_group_symop_operation_xyz
  'x, y, z'

loop_
  _atom_site_type_symbol
  _atom_site_label
  _atom_site_symmetry_multiplicity
  _atom_site_fract_x
  _atom_site_fract_y
  _atom_site_fract_z
  _atom_site_occupancy
  Cs  Cs1       1.0  0.8577629115131203  0.029092821399977695  0.5767858079638728  1.0000
  Cs  Cs2       1.0  0.35776855039787137  0.9709178425489636  0.4232150798918681  1.0000
  Cs  Cs3       1.0  0.35777037587652666  0.47092463685346087  0.5767872636952517  1.0000
  Cs  Cs4       1.0  0.8577680133665169  0.5290940626558437  0.4232147818105361  1.0000
  H   H1        1.0  0.5076135507729161  0.7923642017354452  0.846312586522231  1.0000
  H   H2        1.0  0.007614240768333499  0.20761735937364284  0.1536876703330847  1.0000
  H   H3        1.0  0.007625732337963601  0.7076307592068218  0.846314811878223  1.0000
  H   H4        1.0  0.507615913846621  0.2923762478486936  0.1536883391114827  1.0000
  H   H5        1.0  0.6765724151004235  0.7701174717982865  0.9693636770549787  1.0000
  H   H6        1.0  0.1765707190634274  0.22986793295049068  0.030636066592691708  1.0000
  H   H7        1.0  0.1765845492938851  0.7298742775818712  0.9693653074523  1.0000
  H   H8        1.0  0.6765835232818418  0.2701164841910497  0.0306390668142456  1.0000
  H   H9        1.0  0.9424701506783889  0.9722680172585144  0.99802041899828  1.0000
  H   H10       1.0  0.44246856842848103  0.027717113433183695  0.001977606041109  1.0000
  H   H11       1.0  0.4424771736402633  0.5277139996615787  0.99801872288905  1.0000
  H   H12       1.0  0.9424864839194098  0.4722684524911783  0.0019821962590996006  1.0000
  H   H13       1.0  0.047450741650216295  0.190513892566976  0.8970887749724454  1.0000
  H   H14       1.0  0.5474569554671262  0.8094729845301387  0.1029065936772966  1.0000
  H   H15       1.0  0.5474523783469109  0.3094641127540426  0.8970876948486222  1.0000
  H   H16       1.0  0.04745670413636559  0.6905214250729799  0.10291346217388758  1.0000
  H   H17       1.0  0.8805611851051155  0.21166727233274682  0.7718661205058623  1.0000
  H   H18       1.0  0.38057033130386486  0.7883179221629675  0.2281317258046371  1.0000
  H   H19       1.0  0.3805579546485022  0.28832146897212846  0.7718653932440774  1.0000
  H   H20       1.0  0.8805541650939759  0.7116824751841548  0.2281341896353339  1.0000
  H   H21       1.0  0.329998878500902  0.9388233209918226  0.7570135038366743  1.0000
  H   H22       1.0  0.8300056189772321  0.06118201452964911  0.24298698463029209  1.0000
  H   H23       1.0  0.8300024295664841  0.5611903177875773  0.7570108671317541  1.0000
  H   H24       1.0  0.3299937550448249  0.4388351066513819  0.24299020019247308  1.0000
  H   H25       1.0  0.48274400659614974  0.7768999594036784  0.7154183723284291  1.0000
  H   H26       1.0  0.9827585495000407  0.22310387943073104  0.2845741828062529  1.0000
  H   H27       1.0  0.98275829644691  0.7231123039862767  0.715420827781749  1.0000
  H   H28       1.0  0.48273871770066284  0.2769062667179156  0.2845740427162085  1.0000
  C   C1        1.0  0.6824479975241218  0.005830961331867  0.8011600736004354  1.0000
  C   C2        1.0  0.18244394296453237  0.994153098103844  0.19883789556597972  1.0000
  C   C3        1.0  0.18244709952817573  0.49416459502765514  0.8011615125087915  1.0000
  C   C4        1.0  0.6824379134984823  0.5058422318416405  0.1988405085354898  1.0000
  C   C5        1.0  0.6251539774215119  0.8803656231409747  0.8565286597582542  1.0000
  C   C6        1.0  0.1251552358501726  0.11962117386516269  0.14347025854283402  1.0000
  C   C7        1.0  0.1251635754751135  0.6196291868567059  0.8565315277353704  1.0000
  C   C8        1.0  0.6251594924175095  0.3803736812667751  0.1434720212165246  1.0000
  C   C9        1.0  0.7206629921201254  0.8690862157838025  0.9268351369804506  1.0000
  C   C10       1.0  0.2206737756915729  0.13091119686513508  0.0731631639713868  1.0000
  C   C11       1.0  0.2206656387945216  0.630910969240645  0.9268374179672564  1.0000
  C   C12       1.0  0.7206683579615217  0.3690891219231531  0.0731666713693286  1.0000
  C   C13       1.0  0.870585935039486  0.9808635116365422  0.9427225484990203  1.0000
  C   C14       1.0  0.370587850904016  0.019121693146772097  0.0572736257960145  1.0000
  C   C15       1.0  0.37058743434369024  0.5191294547436486  0.9427243316589227  1.0000
  C   C16       1.0  0.870597435267129  0.48085976780832596  0.0572776309755909  1.0000
  C   C17       1.0  0.9286724646182594  0.1036663999602965  0.8864741274773849  1.0000
  C   C18       1.0  0.428671800000174  0.8963174056986745  0.113518777200639  1.0000
  C   C19       1.0  0.42867316048940307  0.3963152611751183  0.8864762161251178  1.0000
  C   C20       1.0  0.9286752603406683  0.6036792585540026  0.1135271076137627  1.0000
  C   C21       1.0  0.8360466207816161  0.1163493516223326  0.8159418937354346  1.0000
  C   C22       1.0  0.33605582212140217  0.8836425850602438  0.1840550826132912  1.0000
  C   C23       1.0  0.33604734370189243  0.3836406462683755  0.8159416762207458  1.0000
  C   C24       1.0  0.836048171705137  0.6163553081904566  0.1840622462010231  1.0000
  C   C25       1.0  0.44072112088412746  0.9186312897818495  0.7138197071165777  1.0000
  C   C26       1.0  0.940724822169372  0.081373931623034  0.2861789080408386  1.0000
  C   C27       1.0  0.9407273998543603  0.5813810215926764  0.7138187922830923  1.0000
  C   C28       1.0  0.44071161578379037  0.41863357463896017  0.2861821382440226  1.0000
  C   C29       1.0  0.3634658719610684  0.9587235629334429  0.6329441633385287  1.0000
  C   C30       1.0  0.8634500170274748  0.041301827023140406  0.3670537935323424  1.0000
  C   C31       1.0  0.8634680798797091  0.5412877246913225  0.6329450140866512  1.0000
  C   C32       1.0  0.3634575073558607  0.4587028444683127  0.3670581523045798  1.0000
  O   O1        1.0  0.5969420777556209  0.0307252900906363  0.7309386482561069  1.0000
  O   O2        1.0  0.0969409994258754  0.9692668930363694  0.269061610071212  1.0000
  O   O3        1.0  0.096945389231422  0.4692732377324304  0.7309383686777977  1.0000
  O   O4        1.0  0.5969335315156387  0.5307350165279486  0.2690618896571308  1.0000
  O   O5        1.0  0.43496069768273327  0.0831938004088002  0.5930189208419137  1.0000
  O   O6        1.0  0.9349373324263437  0.9168475869832236  0.40698609883632747  1.0000
  O   O7        1.0  0.9349621057027376  0.4168221916736882  0.5930200782803894  1.0000
  O   O8        1.0  0.43494146633013736  0.5831669645372627  0.4069860990742242  1.0000
  O   O9        1.0  0.2301991489764816  0.8580018639442882  0.6126569488112352  1.0000
  O   O10       1.0  0.7301920213488061  0.14205312711381174  0.38733550216471  1.0000
  O   O11       1.0  0.7302136116762625  0.6420270306011275  0.612653095818473  1.0000
  O   O12       1.0  0.2301955698117553  0.3579676937021644  0.38734167047180523  1.0000
