data_image0
_chemical_formula_structural       Zn2SiH36C51N2O8
_chemical_formula_sum              "Zn2 Si1 H36 C51 N2 O8"
_cell_length_a       11.802201631267211
_cell_length_b       15.638717004127793
_cell_length_c       16.193735017999998
_cell_angle_alpha    90.15727286134899
_cell_angle_beta     89.98635332712385
_cell_angle_gamma    90.03146227975768

_space_group_name_H-M_alt    "P 1"
_space_group_IT_number       1

loop_
  _space_group_symop_operation_xyz
  'x, y, z'

loop_
  _atom_site_type_symbol
  _atom_site_label
  _atom_site_symmetry_multiplicity
  _atom_site_fract_x
  _atom_site_fract_y
  _atom_site_fract_z
  _atom_site_occupancy
  Zn  Zn1       1.0  0.31008966599310384  0.31720438751509755  0.17226362881739016  1.0000
  Zn  Zn2       1.0  0.3112487855595703  0.31497273475305565  0.0022940804471574  1.0000
  Si  Si1       1.0  0.06291749643825281  0.6000065396589208  0.5607032237944694  1.0000
  H   H1        1.0  0.8683668548991295  0.026828543000263497  0.9766003647817811  1.0000
  H   H2        1.0  0.8679288277042971  0.6062751186684777  0.195265396075591  1.0000
  H   H3        1.0  0.14851108037730404  0.07013595164355017  0.2020424036649402  1.0000
  H   H4        1.0  0.9964239064095963  0.47964885007112906  0.19755221832524225  1.0000
  H   H5        1.0  0.1459931069322096  0.559546659777183  0.9690814204296458  1.0000
  H   H6        1.0  0.9972956219196478  0.15350235990563013  0.9754517900296236  1.0000
  H   H7        1.0  0.4666246893343029  0.06901429783837187  0.9827860159099373  1.0000
  H   H8        1.0  0.465686452812875  0.5641898025368874  0.1930270759377635  1.0000
  H   H9        1.0  0.5890695790287737  0.9387427701550094  0.9803577003519804  1.0000
  H   H10       1.0  0.5881674072966308  0.6945574656798212  0.1940211658346556  1.0000
  H   H11       1.0  0.6317478937834552  0.15477551785858176  0.20381289880270964  1.0000
  H   H12       1.0  0.6308532008785904  0.4760788309781744  0.9727856749666656  1.0000
  H   H13       1.0  0.6017059821498948  0.8162726237138995  0.0882570348805203  1.0000
  H   H14       1.0  0.7592787587683887  0.6027495635656238  0.9762574491990604  1.0000
  H   H15       1.0  0.7601162287816409  0.028225350997033192  0.198974847615581  1.0000
  H   H16       1.0  0.019626930285610904  0.8156309031092661  0.08376437160555382  1.0000
  H   H17       1.0  0.0260640586496024  0.9395349737406774  0.2007376147917341  1.0000
  H   H18       1.0  0.023736890555213108  0.6900754652207935  0.9690420427920117  1.0000
  H   H19       1.0  0.2154529600411266  0.43633021670699884  0.29609934355411827  1.0000
  H   H20       1.0  0.2692937089918956  0.1589677915987265  0.7271271522036642  1.0000
  H   H21       1.0  0.26206277372440934  0.17960423999930694  0.8813184063697861  1.0000
  H   H22       1.0  0.2968867831386319  0.40991451594306466  0.584195205539487  1.0000
  H   H23       1.0  0.3258406795730053  0.2142392322166415  0.5917153504894798  1.0000
  H   H24       1.0  0.3644616441932698  0.4314558988053676  0.8625349051583413  1.0000
  H   H25       1.0  0.4101903573086931  0.22007510951262074  0.4644108661408168  1.0000
  H   H26       1.0  0.3728030002489363  0.42371564812141554  0.7081728019391775  1.0000
  H   H27       1.0  0.40373519052307233  0.21401062261149656  0.309376053105602  1.0000
  H   H28       1.0  0.04367840597652162  0.6124186795899643  0.7136249385853545  1.0000
  H   H29       1.0  0.18380355771288487  0.5822776724440715  0.6858124530173271  1.0000
  H   H30       1.0  0.07302287575487301  0.505119558148287  0.6839326983300893  1.0000
  H   H31       1.0  0.058526559572811714  0.7578723655308507  0.5745944619028904  1.0000
  H   H32       1.0  0.09330159160337813  0.7279157394664961  0.47155779216942045  1.0000
  H   H33       1.0  0.197786527263709  0.7221157397780045  0.5504384257369637  1.0000
  H   H34       1.0  0.856074738362075  0.625036624827544  0.5739150578139913  1.0000
  H   H35       1.0  0.8844173958275264  0.5163156126970208  0.5480984614428053  1.0000
  H   H36       1.0  0.8917823567454448  0.5964980891064329  0.4706127866977638  1.0000
  C   C1        1.0  0.9306511688586598  0.0355869616313811  0.0256421776422968  1.0000
  C   C2        1.0  0.9298109200608168  0.5967730410984159  0.1460414534532646  1.0000
  C   C3        1.0  0.0878562705700148  0.05923745295776679  0.1524047767540893  1.0000
  C   C4        1.0  0.0009421790756932001  0.5257795731247157  0.1473160614961841  1.0000
  C   C5        1.0  0.08581560522777919  0.571229759077553  0.0188792613664646  1.0000
  C   C6        1.0  0.08100838077410802  0.11911235601908737  0.08842168050867369  1.0000
  C   C7        1.0  0.07961444333155042  0.5123452095355531  0.0837706902204118  1.0000
  C   C8        1.0  0.0019247849446201995  0.10657056379853459  0.024978123655955597  1.0000
  C   C9        1.0  0.15872652359853842  0.43749690661245905  0.0856531804337095  1.0000
  C   C10       1.0  0.15976599367469652  0.19428238558863595  0.0873164649922273  1.0000
  C   C11       1.0  0.4624871154412987  0.19456541375637218  0.0953859136298121  1.0000
  C   C12       1.0  0.46178343788605497  0.4374306387929536  0.0810493261109215  1.0000
  C   C13       1.0  0.53023086634078  0.058609535420380596  0.030416770703077092  1.0000
  C   C14       1.0  0.5293487179277108  0.5740696625027581  0.14525743912653868  1.0000
  C   C15       1.0  0.5401907466098025  0.5127487923646898  0.08251817303554529  1.0000
  C   C16       1.0  0.5409065292638645  0.11928347877132234  0.09373010137198179  1.0000
  C   C17       1.0  0.5987701549930479  0.9863430179062218  0.029264961192161796  1.0000
  C   C18       1.0  0.597895965830098  0.6464318462747227  0.1455900882193006  1.0000
  C   C19       1.0  0.6237106734273256  0.10741245861134267  0.1546352970770073  1.0000
  C   C20       1.0  0.6229724635697096  0.5239890280229175  0.0214447589915494  1.0000
  C   C21       1.0  0.6814818440629651  0.6580205582132377  0.0848338531436568  1.0000
  C   C22       1.0  0.6823969702429197  0.9741512940337383  0.08980964792046818  1.0000
  C   C23       1.0  0.6941888330043255  0.8161197773458113  0.0872997456973366  1.0000
  C   C24       1.0  0.6940905384212783  0.5950726145092203  0.0233872400782928  1.0000
  C   C25       1.0  0.6949619680913842  0.0364226064062692  0.1519044670623657  1.0000
  C   C26       1.0  0.7504704282043235  0.7372527739980936  0.085476857788052  1.0000
  C   C27       1.0  0.7511023363013865  0.8948054626967586  0.0880449609688583  1.0000
  C   C28       1.0  0.8707673405128916  0.8945818802634661  0.08732360471689297  1.0000
  C   C29       1.0  0.8700975274645089  0.7371292233659545  0.08361568833670668  1.0000
  C   C30       1.0  0.9271219428259629  0.8157502382143347  0.08473070544251017  1.0000
  C   C31       1.0  0.9397228753727591  0.973914197139919  0.0882149883435162  1.0000
  C   C32       1.0  0.9384900393686383  0.6575907164716313  0.08264737983230928  1.0000
  C   C33       1.0  0.019350675992257003  0.9867751925787329  0.1514775426401442  1.0000
  C   C34       1.0  0.0173884553800434  0.64367000702979  0.0190681787250426  1.0000
  C   C35       1.0  0.25608085128673963  0.3997627497833918  0.4225517026486401  1.0000
  C   C36       1.0  0.2576684680321152  0.3904118971202377  0.33629779924317654  1.0000
  C   C37       1.0  0.2905990679852195  0.22063747386960122  0.7545806802495532  1.0000
  C   C38       1.0  0.28670654477001994  0.23112700745295459  0.8397173282747942  1.0000
  C   C39       1.0  0.31133036885864135  0.33669247102237415  0.47138228731233767  1.0000
  C   C40       1.0  0.32005670544104003  0.29020122623843037  0.7041285048912442  1.0000
  C   C41       1.0  0.3116619458713076  0.34528662014568556  0.5607590803624447  1.0000
  C   C42       1.0  0.3216614922229725  0.28001452157185003  0.6146710237547666  1.0000
  C   C43       1.0  0.3424357153145224  0.37308468680734563  0.8291001265234996  1.0000
  C   C44       1.0  0.3644950749322789  0.2687932179073441  0.42985994071018035  1.0000
  C   C45       1.0  0.34663357030979824  0.367975008419691  0.7436488033576082  1.0000
  C   C46       1.0  0.3619793126657172  0.26471858550257815  0.34434756990565046  1.0000
  C   C47       1.0  0.14572932727324434  0.5247815399901938  0.49721078972937954  1.0000
  C   C48       1.0  0.19737145793317987  0.46842861012000003  0.46035619195926347  1.0000
  C   C49       1.0  0.09377930638680711  0.5723313211579181  0.6712940711430235  1.0000
  C   C50       1.0  0.10748514858337904  0.712444403209055  0.5368930289526546  1.0000
  C   C51       1.0  0.9093193215759643  0.5827743029559755  0.5358808725012238  1.0000
  N   N1        1.0  0.3125948173137019  0.3059242481037501  0.8762437202429539  1.0000
  N   N2        1.0  0.3091895782627034  0.324786116796531  0.2987751974515476  1.0000
  O   O1        1.0  0.21013933565753012  0.4197092303680065  0.018470299142109094  1.0000
  O   O2        1.0  0.172558530655067  0.2335814112684247  0.019135080426408997  1.0000
  O   O3        1.0  0.20987238220006793  0.21229266694621873  0.1549787508788469  1.0000
  O   O4        1.0  0.17051917837611807  0.3980771086829691  0.1538897211001355  1.0000
  O   O5        1.0  0.45043360385465553  0.23517921292710747  0.1631401081631623  1.0000
  O   O6        1.0  0.4104868648577807  0.42063906739979007  0.1484590131217729  1.0000
  O   O7        1.0  0.4503175773390496  0.3967326527775086  0.013295191145644496  1.0000
  O   O8        1.0  0.4115832956059648  0.21141038770192466  0.0278819609386431  1.0000
