data_image0
_chemical_formula_structural       Al4H44C60N8O22
_chemical_formula_sum              "Al4 H44 C60 N8 O22"
_cell_length_a       6.664880363806922
_cell_length_b       23.167043747189826
_cell_length_c       25.966731515920728
_cell_angle_alpha    100.94464499579071
_cell_angle_beta     90.00146071928265
_cell_angle_gamma    90.00071878031076

_space_group_name_H-M_alt    "P 1"
_space_group_IT_number       1

loop_
  _space_group_symop_operation_xyz
  'x, y, z'

loop_
  _atom_site_type_symbol
  _atom_site_label
  _atom_site_symmetry_multiplicity
  _atom_site_fract_x
  _atom_site_fract_y
  _atom_site_fract_z
  _atom_site_occupancy
  Al  Al1       1.0  0.8866231758029812  0.4995428989474889  0.4995596034917114  1.0000
  Al  Al2       1.0  0.38662626758218716  0.5004612952029958  0.5004428484515202  1.0000
  Al  Al3       1.0  0.3252916340816725  0.0006703749356944151  0.9997233967909909  1.0000
  Al  Al4       1.0  0.8252939418952893  0.9993305752336707  0.00027703291200250013  1.0000
  H   H1        1.0  0.936961973786701  0.7294886800462805  0.8289342032513859  1.0000
  H   H2        1.0  0.4366013475298871  0.2704437898384171  0.17108519659492322  1.0000
  H   H3        1.0  0.958518960088888  0.6539699529009867  0.7553014276430972  1.0000
  H   H4        1.0  0.45829044828084164  0.3459880422412951  0.24469573531858663  1.0000
  H   H5        1.0  0.44274621897901056  0.7170707153448886  0.7165273065536936  1.0000
  H   H6        1.0  0.9427497996330844  0.28300367840991925  0.2834291727663185  1.0000
  H   H7        1.0  0.3398733532053342  0.6669725298212229  0.7527319556673647  1.0000
  H   H8        1.0  0.839639973931355  0.33308800995393995  0.2472441768066886  1.0000
  H   H9        1.0  0.31690900041164133  0.7418738604672156  0.8268512795799836  1.0000
  H   H10       1.0  0.8166260069116901  0.2581892552428755  0.1731211469432239  1.0000
  H   H11       1.0  0.4229297257510042  0.7918327425511578  0.7910336879859159  1.0000
  H   H12       1.0  0.9229541788699224  0.20825695915686282  0.2089139916084974  1.0000
  H   H13       1.0  0.9550661584634313  0.7657321549132875  0.6681042682980377  1.0000
  H   H14       1.0  0.4552660148523131  0.2342396101870463  0.3318967757859141  1.0000
  H   H15       1.0  0.2179562778156097  0.774676767864058  0.6666810984676986  1.0000
  H   H16       1.0  0.7181738369430449  0.22536276622535917  0.3333259355341767  1.0000
  H   H17       1.0  0.936115374841492  0.8412326563745722  0.7418332045010914  1.0000
  H   H18       1.0  0.43653720287739617  0.15869915632487167  0.2581952169617594  1.0000
  H   H19       1.0  0.8026863431256076  0.6942840547891153  0.7200998870408029  1.0000
  H   H20       1.0  0.30261109865026004  0.30567129136217375  0.279931822726418  1.0000
  H   H21       1.0  0.7822921738962875  0.770119163156764  0.7937043899137277  1.0000
  H   H22       1.0  0.28221984037021736  0.2297886633053352  0.20636371984058144  1.0000
  H   H23       1.0  0.19908201324534497  0.8499096595258847  0.7404986697795338  1.0000
  H   H24       1.0  0.6995575555997035  0.1501318217584711  0.2594976283682797  1.0000
  H   H25       1.0  0.4055852330433182  0.9010639854745718  0.10929311663317522  1.0000
  H   H26       1.0  0.9055868711166539  0.0989306673975747  0.8907047810547085  1.0000
  H   H27       1.0  0.42255503434849123  0.8336421576613019  0.1744749583097374  1.0000
  H   H28       1.0  0.92256366568958  0.1663530989596822  0.8255234574391893  1.0000
  H   H29       1.0  0.7784531331015144  0.8225564538495858  0.1740547016910128  1.0000
  H   H30       1.0  0.27846384441067323  0.1774384971704919  0.8259406786545966  1.0000
  H   H31       1.0  0.7632822923994381  0.8897278303069456  0.10855029194399182  1.0000
  H   H32       1.0  0.26328755358286315  0.11026489532692106  0.8914430164917777  1.0000
  H   H33       1.0  0.44565496767141605  0.6280281828746368  0.4115354680937315  1.0000
  H   H34       1.0  0.9456401051639673  0.37197047761562635  0.5884623305146447  1.0000
  H   H35       1.0  0.8267544130143848  0.5872631058380123  0.37556585278148463  1.0000
  H   H36       1.0  0.32675544640632376  0.4127338840934912  0.6244342007221704  1.0000
  H   H37       1.0  0.8354833414431228  0.6523776683083895  0.3082453098014568  1.0000
  H   H38       1.0  0.33548369546047496  0.3476185990096711  0.6917532403035693  1.0000
  H   H39       1.0  0.5880350123203543  0.6947775478731799  0.36987240960075946  1.0000
  H   H40       1.0  0.0880214155475088  0.3052220863613897  0.6301258610699421  1.0000
  H   H41       1.0  0.6390793988960297  0.5734916361758876  0.52863831124467  1.0000
  H   H42       1.0  0.13907038477734798  0.4265122929766606  0.4713650424420095  1.0000
  H   H43       1.0  0.5730134427677029  0.9250496726100723  0.9749215945120399  1.0000
  H   H44       1.0  0.07302594222110771  0.07495091495632521  0.0250773477365982  1.0000
  C   C1        1.0  0.6359437260096074  0.4347017325668006  0.5628827580571071  1.0000
  C   C2        1.0  0.13599739400784466  0.5653007176900645  0.43711978974710775  1.0000
  C   C3        1.0  0.6358269772705256  0.42336608399875075  0.4219921621182793  1.0000
  C   C4        1.0  0.13589358370979449  0.5766409442611861  0.5780095940797239  1.0000
  C   C5        1.0  0.9400928909744264  0.6969129803680902  0.7438107756483279  1.0000
  C   C6        1.0  0.43996567137145337  0.3030497131486101  0.2562086082866415  1.0000
  C   C7        1.0  0.31589281279761394  0.709880730539915  0.7416003329623564  1.0000
  C   C8        1.0  0.8157891977815622  0.29017038175292237  0.2583724949417885  1.0000
  C   C9        1.0  0.30205961379108714  0.7594916883085149  0.7906288818217392  1.0000
  C   C10       1.0  0.8019729881550078  0.24056412102456193  0.20933991326853632  1.0000
  C   C11       1.0  0.07846900226790861  0.8774910753336798  0.8760324169501246  1.0000
  C   C12       1.0  0.5785098140520972  0.1225042451696865  0.1239720660113619  1.0000
  C   C13       1.0  0.12033924877112412  0.707431911025573  0.7089982506078557  1.0000
  C   C14       1.0  0.6203229901390088  0.2925800687480021  0.2909986750268487  1.0000
  C   C15       1.0  0.9264307292103028  0.7468878614716773  0.7925053413311575  1.0000
  C   C16       1.0  0.42629050838747423  0.2530541499564762  0.2075265235010164  1.0000
  C   C17       1.0  0.09801769638985998  0.7918025918208189  0.7916406656086181  1.0000
  C   C18       1.0  0.5980315887709152  0.20819351393515012  0.20836513897578612  1.0000
  C   C19       1.0  0.0791106793332403  0.8174987034443574  0.7408770980108629  1.0000
  C   C20       1.0  0.5794300557398486  0.18249443043125518  0.25913327898140887  1.0000
  C   C21       1.0  0.09176756427765301  0.7675940567130511  0.6920007755292091  1.0000
  C   C22       1.0  0.5919754237801839  0.23241037326165787  0.30800771862116966  1.0000
  C   C23       1.0  0.086253328873461  0.8386385686573092  0.8373881191893773  1.0000
  C   C24       1.0  0.5863056620606031  0.16135549771483682  0.16261642349932973  1.0000
  C   C25       1.0  0.12981399463210147  0.6610392268308659  0.6628904116229608  1.0000
  C   C26       1.0  0.6297908197320012  0.3389695291347651  0.3371054118225133  1.0000
  C   C27       1.0  0.13330116509478526  0.6222767950209872  0.6241106162134146  1.0000
  C   C28       1.0  0.6332790182026284  0.3777324215959652  0.37588327084650064  1.0000
  C   C29       1.0  0.26979769343579113  0.8835660491803381  0.1239612280930302  1.0000
  C   C30       1.0  0.7698091457870646  0.1164264469737262  0.876032913939909  1.0000
  C   C31       1.0  0.27900663649973007  0.8464375256058859  0.16004785242650144  1.0000
  C   C32       1.0  0.7790101358559056  0.15355844850380856  0.8399502771365874  1.0000
  C   C33       1.0  0.10149146851015442  0.823998671934888  0.1779522234716353  1.0000
  C   C34       1.0  0.601506178056944  0.17599792745814818  0.8220457592751914  1.0000
  C   C35       1.0  0.9146683192986699  0.8403416245245837  0.1599068641105958  1.0000
  C   C36       1.0  0.41467065257580055  0.1596529914057285  0.8400907089748486  1.0000
  C   C37       1.0  0.9063250981275529  0.877391613190916  0.12365124274158748  1.0000
  C   C38       1.0  0.40633540457137224  0.12260039232907619  0.8763423481148109  1.0000
  C   C39       1.0  0.0836872243678428  0.8988128587379975  0.1050798477432195  1.0000
  C   C40       1.0  0.5836818754632986  0.10118081772945692  0.894914867275908  1.0000
  C   C41       1.0  0.13495469633237886  0.7143314910144414  0.28211523266831756  1.0000
  C   C42       1.0  0.634959380476758  0.2856694912018369  0.7178865248226386  1.0000
  C   C43       1.0  0.11208968763555299  0.7823436296726952  0.214089981914924  1.0000
  C   C44       1.0  0.6120981370380321  0.217657317943825  0.7859119975680215  1.0000
  C   C45       1.0  0.3157136973238082  0.671825158165511  0.352748935299502  1.0000
  C   C46       1.0  0.8157072433766784  0.3281722169691292  0.6472490736050105  1.0000
  C   C47       1.0  0.31148953647648636  0.6341472936495407  0.3889853331942774  1.0000
  C   C48       1.0  0.8114706372583526  0.36585109077500977  0.6110134275475474  1.0000
  C   C49       1.0  0.13628435831164154  0.604322747419218  0.39742887923000586  1.0000
  C   C50       1.0  0.6362854299004538  0.39567514793122166  0.6025705381322695  1.0000
  C   C51       1.0  0.9617262790346927  0.6113757456474006  0.3689973427379769  1.0000
  C   C52       1.0  0.4617149072283268  0.3886226508672195  0.631000968373371  1.0000
  C   C53       1.0  0.9669016209522424  0.6473692742657633  0.33201182647730576  1.0000
  C   C54       1.0  0.46690134167946706  0.3526270756219034  0.6679869183196275  1.0000
  C   C55       1.0  0.14196579783552474  0.678108606979947  0.3228021725392268  1.0000
  C   C56       1.0  0.6419590329005587  0.3218896652710868  0.6771968942857071  1.0000
  C   C57       1.0  0.5759378399635223  0.07716667494563721  0.0775590997630644  1.0000
  C   C58       1.0  0.07587659245854889  0.9228301169672762  0.9224422231685735  1.0000
  C   C59       1.0  0.577105308954401  0.06353396185365055  0.9356785861914004  1.0000
  C   C60       1.0  0.07706625478930822  0.9364606164875441  0.06431843257048801  1.0000
  N   N1        1.0  0.9385583395760763  0.7669135366270937  0.23510878920119888  1.0000
  N   N2        1.0  0.43856243625403113  0.2330978715953549  0.7649022796938212  1.0000
  N   N3        1.0  0.9504049901186704  0.7327050288172076  0.2699226751885249  1.0000
  N   N4        1.0  0.45040263246231405  0.2673054937421497  0.7300880908018783  1.0000
  N   N5        1.0  0.30392582882889485  0.7226025964980709  0.2553742090946187  1.0000
  N   N6        1.0  0.8039418006960375  0.2773924867851534  0.7446213609529408  1.0000
  N   N7        1.0  0.2918961690334996  0.7576552372549017  0.22099236060977737  1.0000
  N   N8        1.0  0.7919155148845434  0.24234089893593597  0.7790042954525731  1.0000
  O   O1        1.0  0.4662933973478473  0.4417656086353219  0.44108494099793205  1.0000
  O   O2        1.0  0.9662882381045036  0.5582357481828099  0.5589130078939064  1.0000
  O   O3        1.0  0.8062118207303897  0.44825544217550833  0.5462382311956943  1.0000
  O   O4        1.0  0.3061930249650473  0.5517492926079371  0.453762051195902  1.0000
  O   O5        1.0  0.8072116855854433  0.44120205605832313  0.44013471675666693  1.0000
  O   O6        1.0  0.3071991980412108  0.5588086922309543  0.5598714504364253  1.0000
  O   O7        1.0  0.9652294567986318  0.5495644914635421  0.4516114228584129  1.0000
  O   O8        1.0  0.4652546169962974  0.45043716325901767  0.5483939725439698  1.0000
  O   O9        1.0  0.6371973894491704  0.53586698913022  0.5046934536579784  1.0000
  O   O10       1.0  0.13717738275391864  0.46413822479864564  0.49530988425505035  1.0000
  O   O11       1.0  0.7457674964714583  0.0487126842586676  0.9522224772259165  1.0000
  O   O12       1.0  0.24578446700976286  0.9512882115168325  0.0477750057565629  1.0000
  O   O13       1.0  0.4050377370759364  0.060116217581160904  0.0585766517760931  1.0000
  O   O14       1.0  0.9050405741693197  0.9398814421100851  0.9414231996136664  1.0000
  O   O15       1.0  0.404943666761362  0.05022567953229638  0.9514042798933032  1.0000
  O   O16       1.0  0.9049665995112904  0.9497718005014305  0.04859674817019061  1.0000
  O   O17       1.0  0.24607150990981808  0.9415197005480422  0.9407731472422255  1.0000
  O   O18       1.0  0.746074613097484  0.0584809003913662  0.05923100836110961  1.0000
  O   O19       1.0  0.574454233575416  0.9642935228525502  0.9961229249450556  1.0000
  O   O20       1.0  0.07447042456453092  0.0357068929824536  0.0038772053455672995  1.0000
  O   O21       1.0  0.4822932234312134  0.7037485068364051  0.3465970565383786  1.0000
  O   O22       1.0  0.9822784834448655  0.29624906031589393  0.6533990548316737  1.0000
