data_image0
_chemical_formula_structural       Cu2H46C46N10O8
_chemical_formula_sum              "Cu2 H46 C46 N10 O8"
_cell_length_a       8.513964478776874
_cell_length_b       10.763040687979977
_cell_length_c       16.338121192752684
_cell_angle_alpha    82.38977847821907
_cell_angle_beta     74.9079975671972
_cell_angle_gamma    66.70202466653407

_space_group_name_H-M_alt    "P 1"
_space_group_IT_number       1

loop_
  _space_group_symop_operation_xyz
  'x, y, z'

loop_
  _atom_site_type_symbol
  _atom_site_label
  _atom_site_symmetry_multiplicity
  _atom_site_fract_x
  _atom_site_fract_y
  _atom_site_fract_z
  _atom_site_occupancy
  Cu  Cu1       1.0  0.9999991228183376  0.9999987812718557  0.49999972284747674  1.0000
  Cu  Cu2       1.0  0.4999997080757979  0.5000004027845435  2.6001199418716426e-07  1.0000
  H   H1        1.0  0.1360773446043029  0.2388387325599339  0.5488097067891785  1.0000
  H   H2        1.0  0.9231732671990047  0.2614491204307683  0.9512417178931114  1.0000
  H   H3        1.0  0.8639216656573012  0.7611640973063771  0.45118958830609296  1.0000
  H   H4        1.0  0.07682650121496688  0.7385496608410875  0.04875888548284728  1.0000
  H   H5        1.0  0.7345208263971872  0.0437966826428564  0.6636991175476579  1.0000
  H   H6        1.0  0.44175316414985855  0.4561652584943801  0.8363233385260571  1.0000
  H   H7        1.0  0.2654806053645019  0.9562020986289923  0.3363010390974068  1.0000
  H   H8        1.0  0.5582485342755419  0.5438335227774758  0.16367898468890013  1.0000
  H   H9        1.0  0.40875326610240176  0.1370105091778129  0.7128311100562  1.0000
  H   H10       1.0  0.25824174966737706  0.3629848328636598  0.7872358742732073  1.0000
  H   H11       1.0  0.5912464164243902  0.862994344985715  0.2871676961741585  1.0000
  H   H12       1.0  0.7417608836343131  0.6370129362595804  0.21276724729053587  1.0000
  H   H13       1.0  0.38452790871482295  0.2127708450263199  0.44862490773009256  1.0000
  H   H14       1.0  0.04522261040550293  0.2877528385912598  0.0514619120041857  1.0000
  H   H15       1.0  0.6154725881705689  0.7872289483941444  0.5513744505661861  1.0000
  H   H16       1.0  0.9547764897958968  0.7122469548292116  0.9485400595928936  1.0000
  H   H17       1.0  0.7114421214450459  0.12274629877163791  0.41138839562074025  1.0000
  H   H18       1.0  0.24519000201296146  0.3774899346397831  0.08866250189386447  1.0000
  H   H19       1.0  0.28855831518150427  0.8772514703516023  0.5886108395341054  1.0000
  H   H20       1.0  0.7548075513058098  0.6225108709292968  0.9113392833607747  1.0000
  H   H21       1.0  0.8734821651351369  0.2381514836515493  0.6129039147791103  1.0000
  H   H22       1.0  0.7242396792962962  0.2619491218456957  0.8869873098844961  1.0000
  H   H23       1.0  0.12651845226795197  0.7618523583633703  0.3870956898000272  1.0000
  H   H24       1.0  0.27576298053067916  0.7380526958719997  0.11301250210409816  1.0000
  H   H25       1.0  0.6483153645305109  0.2500199382902295  0.7498986319935381  1.0000
  H   H26       1.0  0.3516862480077094  0.7499849158733056  0.25010189407582567  1.0000
  H   H27       1.0  0.1130071524606607  0.7547764274083164  0.7445416012240071  1.0000
  H   H28       1.0  0.612586609915468  0.7449504886711225  0.7553076845506083  1.0000
  H   H29       1.0  0.8869941291023836  0.245223366012155  0.25545575577780966  1.0000
  H   H30       1.0  0.38741432225234734  0.2550462683035022  0.24469157167123964  1.0000
  H   H31       1.0  0.01195674383050991  0.6430595120749913  0.8026875587504348  1.0000
  H   H32       1.0  0.45788199204058366  0.8566562703697045  0.6972358145033438  1.0000
  H   H33       1.0  0.9880442485961396  0.3569392691968645  0.19731182061284608  1.0000
  H   H34       1.0  0.5421184445859596  0.1433414987535357  0.3027634206515017  1.0000
  H   H35       1.0  0.8839393651529124  0.8158980578637484  0.7815215777986423  1.0000
  H   H36       1.0  0.4815429033342085  0.683816712432332  0.7183797593731498  1.0000
  H   H37       1.0  0.11606267861511554  0.1841007234081076  0.21847796684007645  1.0000
  H   H38       1.0  0.5184592528462774  0.3161800445422926  0.2816182728360133  1.0000
  H   H39       1.0  0.9455755839282532  0.5040419121971453  0.7220777979303178  1.0000
  H   H40       1.0  0.17206497908581053  0.9957912794866816  0.7780086816075665  1.0000
  H   H41       1.0  0.05441954383783105  0.49595990552054303  0.2779222464183206  1.0000
  H   H42       1.0  0.8279370606296013  0.0042044653393347  0.2219899836749447  1.0000
  H   H43       1.0  0.9424720622191107  0.5491392058080038  0.6078061719674962  1.0000
  H   H44       1.0  0.10001558689527502  0.9505836616769869  0.8922685477324065  1.0000
  H   H45       1.0  0.05752166481036633  0.450859575463852  0.39219560632572836  1.0000
  H   H46       1.0  0.8999815230358553  0.0494141074462604  0.10773158088424142  1.0000
  C   C1        1.0  0.6513704721664765  0.0845984175391834  0.6182755083711128  1.0000
  C   C2        1.0  0.3538397565863322  0.4155244552275548  0.8817634917623633  1.0000
  C   C3        1.0  0.3486305805190215  0.9154023880298965  0.3817239941336012  1.0000
  C   C4        1.0  0.6461625538454144  0.584474326044301  0.11823821944625476  1.0000
  C   C5        1.0  0.4701464405704174  0.1358495747184492  0.6455714666315017  1.0000
  C   C6        1.0  0.25108947652945796  0.3642975896150134  0.8544990656294686  1.0000
  C   C7        1.0  0.5298557799215331  0.8641522429992463  0.3544275680753088  1.0000
  C   C8        1.0  0.7489130965133842  0.6356981552110028  0.14550393279284177  1.0000
  C   C9        1.0  0.3666113493279821  0.1831978868451145  0.584595574674715  1.0000
  C   C10       1.0  0.1338352223244216  0.3170899661455806  0.9154799561632742  1.0000
  C   C11       1.0  0.6333888287400739  0.816805955169805  0.41540325262264577  1.0000
  C   C12       1.0  0.8661660367659536  0.6829088151262681  0.08452158976990626  1.0000
  C   C13       1.0  0.4576858854295552  0.1781503017109571  0.498412585776961  1.0000
  C   C14       1.0  0.1336157385926812  0.3222620455591638  0.0016615049623140985  1.0000
  C   C15       1.0  0.5423114614843387  0.8218525281553467  0.5015871560492045  1.0000
  C   C16       1.0  0.8663829825325349  0.6777397721585317  0.9983398124944215  1.0000
  C   C17       1.0  0.638657585697118  0.1272382143171313  0.47720719872732786  1.0000
  C   C18       1.0  0.24267882195954374  0.3730071284318086  0.022839567450382982  1.0000
  C   C19       1.0  0.3613406920404571  0.8727605669547246  0.5227924620914095  1.0000
  C   C20       1.0  0.7573177964829372  0.6269946892858798  0.97716141945547  1.0000
  C   C21       1.0  0.06412767577167959  0.23994905958863913  0.6776875334932555  1.0000
  C   C22       1.0  0.9814881115013064  0.2601302907877354  0.822352500618173  1.0000
  C   C23       1.0  0.9358707224835924  0.7600537702776649  0.3223123736083479  1.0000
  C   C24       1.0  0.018515043866933884  0.7398705147813516  0.17764733243741654  1.0000
  C   C25       1.0  0.8993737764236731  0.24309380532992722  0.673962138666745  1.0000
  C   C26       1.0  0.8162096717492138  0.2570260309909713  0.8259648680813924  1.0000
  C   C27       1.0  0.10062307494896329  0.7569100366849923  0.3260375820924181  1.0000
  C   C28       1.0  0.18379354387786853  0.7429767988753326  0.17403508811563026  1.0000
  C   C29       1.0  0.776269458185844  0.2500604242347606  0.7499350779855689  1.0000
  C   C30       1.0  0.22372937940444595  0.7499424056315505  0.2500656063978184  1.0000
  C   C31       1.0  0.9883315229548729  0.779623663714375  0.5978074697107159  1.0000
  C   C32       1.0  0.36634208997364986  0.7199504179244656  0.902084394515242  1.0000
  C   C33       1.0  0.011666927454015888  0.2203751175574808  0.4021908018199056  1.0000
  C   C34       1.0  0.6336605055418687  0.2800463390501591  0.09791441497569754  1.0000
  C   C35       1.0  0.9806593920224528  0.6866061940103805  0.6744662019727699  1.0000
  C   C36       1.0  0.3421576676704348  0.8130893454620463  0.8254981558311129  1.0000
  C   C37       1.0  0.019329379594402986  0.3134027087476028  0.3255353656504241  1.0000
  C   C38       1.0  0.6578396189846175  0.1869114601070336  0.17450146285362678  1.0000
  C   C39       1.0  0.9986218537981629  0.7264666306964074  0.7550878330101012  1.0000
  C   C40       1.0  0.48039359434750395  0.7732349816676987  0.7448192877501043  1.0000
  C   C41       1.0  0.0013776479520970267  0.2735321505754484  0.24491060379595808  1.0000
  C   C42       1.0  0.5196073980791525  0.22676379960415724  0.2551800916131767  1.0000
  C   C43       1.0  0.9546001295970118  0.5736615424092193  0.6679148962805144  1.0000
  C   C44       1.0  0.19666661972548402  0.9261048474661351  0.8321374345244265  1.0000
  C   C45       1.0  0.04539137423203959  0.4263331902681813  0.33208630517896137  1.0000
  C   C46       1.0  0.8033351308535401  0.0738898852112655  0.16786325311954187  1.0000
  N   N1        1.0  0.7373845143181084  0.0795801847148141  0.5358496345833784  1.0000
  N   N2        1.0  0.3524850994245556  0.42054268805192413  0.9641943442666728  1.0000
  N   N3        1.0  0.262617645914993  0.9204196087056503  0.4641492769819989  1.0000
  N   N4        1.0  0.64751444011187  0.5794571053685402  0.03580840461218322  1.0000
  N   N5        1.0  0.1876541750821944  0.22782655564804344  0.6012279927555326  1.0000
  N   N6        1.0  0.0162135924912263  0.2723772890077569  0.8988483097904449  1.0000
  N   N7        1.0  0.8123453909795161  0.7721772863668761  0.3987714465481744  1.0000
  N   N8        1.0  0.983788278605488  0.7276214922640989  0.10115262413639675  1.0000
  N   N9        1.0  0.10473575310120979  0.2500047560610312  0.7500609792922076  1.0000
  N   N10       1.0  0.8952653557905283  0.7499950373594402  0.2499377669977321  1.0000
  O   O1        1.0  0.008932853561226908  0.8891270100305776  0.6082755247570191  1.0000
  O   O2        1.0  0.5069013495338772  0.6104602295402373  0.8916014768397458  1.0000
  O   O3        1.0  0.9910655406414292  0.1108727833898939  0.39172350298838404  1.0000
  O   O4        1.0  0.4931017455755153  0.3895385517316186  0.1083982330744178  1.0000
  O   O5        1.0  0.9741382926264069  0.751636742410092  0.5283502153185394  1.0000
  O   O6        1.0  0.2547574214758942  0.7478462458535589  0.9715654312406341  1.0000
  O   O7        1.0  0.025871774691161514  0.24835799026731556  0.47164823867093014  1.0000
  O   O8        1.0  0.7452429548918076  0.2521494989724502  0.02843368077277826  1.0000
