data_image0
_chemical_formula_structural       Sm4H12C16O36
_chemical_formula_sum              "Sm4 H12 C16 O36"
_cell_length_a       10.28574412487785
_cell_length_b       10.459026047718654
_cell_length_c       11.959210403414195
_cell_angle_alpha    90.00065591490312
_cell_angle_beta     109.27448845708966
_cell_angle_gamma    89.99843581308944

_space_group_name_H-M_alt    "P 1"
_space_group_IT_number       1

loop_
  _space_group_symop_operation_xyz
  'x, y, z'

loop_
  _atom_site_type_symbol
  _atom_site_label
  _atom_site_symmetry_multiplicity
  _atom_site_fract_x
  _atom_site_fract_y
  _atom_site_fract_z
  _atom_site_occupancy
  Sm  Sm1       1.0  0.19636784268563906  0.397999407845873  0.3751368299247346  1.0000
  Sm  Sm2       1.0  0.3036344782616355  0.8980038093544633  0.12486782647926019  1.0000
  Sm  Sm3       1.0  0.803622433293704  0.6019926331211565  0.6248834126089235  1.0000
  Sm  Sm4       1.0  0.6963771855059804  0.10200161653056476  0.8751198991037298  1.0000
  H   H1        1.0  0.11117030986820711  0.44189521927022213  0.1037778069311912  1.0000
  H   H2        1.0  0.3888299542588882  0.9418752522863012  0.3962436443495392  1.0000
  H   H3        1.0  0.8888515845746312  0.558106381347734  0.896229678398214  1.0000
  H   H4        1.0  0.6111413576695952  0.05810340396742221  0.603786101503637  1.0000
  H   H5        1.0  0.9918451665038575  0.25835666320254796  0.12466245888845152  1.0000
  H   H6        1.0  0.5081666954495107  0.7583531845156627  0.3753517533905608  1.0000
  H   H7        1.0  0.008168162013184594  0.7416516309747861  0.8753222526420643  1.0000
  H   H8        1.0  0.4918373340942708  0.24164841662980757  0.6246839408369381  1.0000
  H   H9        1.0  0.944968025330944  0.3849667550956821  0.17364319783970222  1.0000
  H   H10       1.0  0.555038202701091  0.8849511826269915  0.32634903927753106  1.0000
  H   H11       1.0  0.0550505395024743  0.6150262406017574  0.8263703155029631  1.0000
  H   H12       1.0  0.44494633030647907  0.11504085886291897  0.6736557339462479  1.0000
  C   C1        1.0  0.5155030295629288  0.4466234043702499  0.5471893528980019  1.0000
  C   C2        1.0  0.9844919964046568  0.9466233606234906  0.9527992925324966  1.0000
  C   C3        1.0  0.48450894684316387  0.5533734167074371  0.45278331961073087  1.0000
  C   C4        1.0  0.015485419004122  0.05337824250029398  0.047195605543024  1.0000
  C   C5        1.0  0.15295890512733482  0.6572778169296497  0.20312366064933232  1.0000
  C   C6        1.0  0.347050782708891  0.15729242700873408  0.2968735033411107  1.0000
  C   C7        1.0  0.8470562945550526  0.34273430122941306  0.7968866353855333  1.0000
  C   C8        1.0  0.6529580350358088  0.8427263844439208  0.7031245504777813  1.0000
  C   C9        1.0  0.20819071606973694  0.6030188890167523  0.1058348994711125  1.0000
  C   C10       1.0  0.2918101798267898  0.10300491929497466  0.3941712765392325  1.0000
  C   C11       1.0  0.7918210808929302  0.3969874928277832  0.8941629322538134  1.0000
  C   C12       1.0  0.7081878164385244  0.8969794724102157  0.6058463681164312  1.0000
  C   C13       1.0  0.9376987478322364  0.46758936432259185  0.45222743501479107  1.0000
  C   C14       1.0  0.5623073715206175  0.9675800982511829  0.04775698255347289  1.0000
  C   C15       1.0  0.06231494354896231  0.5324189295323762  0.5477783486423959  1.0000
  C   C16       1.0  0.4377009859276201  0.032415766854015295  0.952219138501249  1.0000
  O   O1        1.0  0.42221941272978825  0.3630030697001771  0.5355553995391844  1.0000
  O   O2        1.0  0.07776646105638461  0.8629993102511905  0.9644323838590552  1.0000
  O   O3        1.0  0.5777594616759032  0.6370176560419336  0.4644078864772112  1.0000
  O   O4        1.0  0.9222288103874804  0.1370328872877238  0.03557881752581694  1.0000
  O   O5        1.0  0.6307259030164616  0.44875504153048246  0.6279953513747287  1.0000
  O   O6        1.0  0.8692696137664697  0.948760763215908  0.8720052564482897  1.0000
  O   O7        1.0  0.3692712605240089  0.5512188329648493  0.37202380001680524  1.0000
  O   O8        1.0  0.1307299611124222  0.05123605855905568  0.1279640033272571  1.0000
  O   O9        1.0  0.0971060577322973  0.5794161584458519  0.2538807429952072  1.0000
  O   O10       1.0  0.4028991719255402  0.07942639220946289  0.2461252011324362  1.0000
  O   O11       1.0  0.9029350296933745  0.42057874836418535  0.7461282043881142  1.0000
  O   O12       1.0  0.5970610780034137  0.9205819043562823  0.7538862928716696  1.0000
  O   O13       1.0  0.1707054218150006  0.7754367782217669  0.2206989138064301  1.0000
  O   O14       1.0  0.32928687080217145  0.2754403647871015  0.2792927469478172  1.0000
  O   O15       1.0  0.8292674095268568  0.22457343022348647  0.7792908340814435  1.0000
  O   O16       1.0  0.6707265670301866  0.7245545434175467  0.7207197027771173  1.0000
  O   O17       1.0  0.2836941941766966  0.6704911779705255  0.0679940210573449  1.0000
  O   O18       1.0  0.21628863232038506  0.1704868801062034  0.43199652346822154  1.0000
  O   O19       1.0  0.716314140239497  0.32951233577776406  0.931999732752857  1.0000
  O   O20       1.0  0.7836842350053532  0.8295070743005365  0.5680024701074942  1.0000
  O   O21       1.0  0.1714997768563009  0.48763303390415313  0.0641254391603567  1.0000
  O   O22       1.0  0.32849651952886927  0.9876182320361268  0.43584111029274913  1.0000
  O   O23       1.0  0.8284930804512315  0.5123876907268111  0.9358642642595213  1.0000
  O   O24       1.0  0.6714848637549764  0.012367117110045497  0.5641445320948719  1.0000
  O   O25       1.0  0.9655687648521792  0.39676977356307214  0.3772530290847343  1.0000
  O   O26       1.0  0.5344279858075893  0.8967536132723594  0.12272772918584006  1.0000
  O   O27       1.0  0.03439243631260071  0.6032136643049172  0.6227401844455684  1.0000
  O   O28       1.0  0.46560296704836196  0.10323364544369436  0.8772623179882117  1.0000
  O   O29       1.0  0.819181662773403  0.49116173234627775  0.4573573330487406  1.0000
  O   O30       1.0  0.6808428506100698  0.9911603029909554  0.04265134799106113  1.0000
  O   O31       1.0  0.18084608520962325  0.5088589895830535  0.542693360824174  1.0000
  O   O32       1.0  0.31917005528977427  0.008852771950969899  0.95732067786912  1.0000
  O   O33       1.0  0.026493849869176203  0.34164752362731576  0.1671585616383595  1.0000
  O   O34       1.0  0.4735088303348861  0.8416377412875773  0.33283086923736255  1.0000
  O   O35       1.0  0.9735330645044655  0.6583397344049116  0.8328936382368539  1.0000
  O   O36       1.0  0.5264674953020433  0.15833326722030705  0.6671008114800543  1.0000
