data_image0
_chemical_formula_structural       Al2H18C36O12
_chemical_formula_sum              "Al2 H18 C36 O12"
_cell_length_a       3.974866953012463
_cell_length_b       17.132192319976696
_cell_length_c       17.132286515996668
_cell_angle_alpha    119.99989000376942
_cell_angle_beta     90.00028006023324
_cell_angle_gamma    89.99989362747236

_space_group_name_H-M_alt    "P 1"
_space_group_IT_number       1

loop_
  _space_group_symop_operation_xyz
  'x, y, z'

loop_
  _atom_site_type_symbol
  _atom_site_label
  _atom_site_symmetry_multiplicity
  _atom_site_fract_x
  _atom_site_fract_y
  _atom_site_fract_z
  _atom_site_occupancy
  Al  Al1       1.0  0.016861589785825998  0.5000002601451783  0.5000004582382404  1.0000
  Al  Al2       1.0  0.9831352315053935  0.16666686014060147  0.8333343959096524  1.0000
  H   H1        1.0  0.50314722569248  0.10210522496694807  0.6032969501558938  1.0000
  H   H2        1.0  0.5059006427861091  0.01974922415170255  0.4371667552766638  1.0000
  H   H3        1.0  0.49670684467267273  0.2700485569831343  0.4353227735394185  1.0000
  H   H4        1.0  0.4947795560685718  0.10391040909280491  0.3529819727185668  1.0000
  H   H5        1.0  0.48587358195166525  0.4990490442766885  0.7481029790732451  1.0000
  H   H6        1.0  0.5144946259596637  0.4148210405026021  0.8323078971702105  1.0000
  H   H7        1.0  0.5031506990861416  0.0011914033649845794  0.897893404059552  1.0000
  H   H8        1.0  0.5059026365409666  0.9174157762373981  0.9802489436173333  1.0000
  H   H9        1.0  0.4967133312971156  0.6652730340616558  0.729949140705543  1.0000
  H   H10       1.0  0.49477754583246275  0.7490687819527154  0.8960848230456052  1.0000
  H   H11       1.0  0.4858699951822345  0.7490543260809376  0.5009500242669348  1.0000
  H   H12       1.0  0.5144900114092935  0.9174879864201346  0.585179252003684  1.0000
  H   H13       1.0  0.5031526548213917  0.39670297675528604  0.9988104295157287  1.0000
  H   H14       1.0  0.5059073256872537  0.5628340863377377  0.082586099016986  1.0000
  H   H15       1.0  0.4967171790853868  0.5646766625150833  0.3347283620591811  1.0000
  H   H16       1.0  0.49478634852375336  0.6470173108462944  0.25093172584175966  1.0000
  H   H17       1.0  0.48587445045766486  0.2518943865358523  0.2509454112723333  1.0000
  H   H18       1.0  0.5145004152242477  0.16768990600386502  0.08251248646998732  1.0000
  C   C1        1.0  0.5118103400334134  0.42871532701528287  0.3615345550425603  1.0000
  C   C2        1.0  0.5118074723973789  0.4328169539965003  0.5712832279628302  1.0000
  C   C3        1.0  0.5118091088236341  0.6384659771068544  0.56718252159358  1.0000
  C   C4        1.0  0.48812144714566585  0.23796787827691893  0.7660729422020012  1.0000
  C   C5        1.0  0.4881247748423546  0.028104380574333697  0.7620325126118885  1.0000
  C   C6        1.0  0.48812611925306737  0.23392817208996075  0.9718968051348257  1.0000
  C   C7        1.0  0.5018268208921128  0.2849447679148653  0.7127623678696295  1.0000
  C   C8        1.0  0.4973730447500698  0.23486793728235963  0.6165132292583237  1.0000
  C   C9        1.0  0.5067377765540684  0.37818632698203186  0.7588207846811983  1.0000
  C   C10       1.0  0.5012120413710122  0.139130510738923  0.5669654946420692  1.0000
  C   C11       1.0  0.502333312841543  0.09328894138440808  0.47412866059491426  1.0000
  C   C12       1.0  0.49789827783607876  0.3795016193893161  0.6182263988005587  1.0000
  C   C13       1.0  0.49326745836719954  0.42554558603122666  0.7114725430676287  1.0000
  C   C14       1.0  0.5020970312827302  0.2832592679324151  0.5681306058284648  1.0000
  C   C15       1.0  0.49853385388558985  0.23372127352889302  0.4723711005290313  1.0000
  C   C16       1.0  0.49784693958000753  0.14088945032385422  0.4265310065915386  1.0000
  C   C17       1.0  0.5018217131899121  0.9278180902550447  0.7150552548881637  1.0000
  C   C18       1.0  0.49737950565198463  0.8816450868001271  0.7651291358628003  1.0000
  C   C19       1.0  0.5067368235678202  0.880635313125879  0.6218120467380646  1.0000
  C   C20       1.0  0.5012144036859354  0.9278315870075037  0.8608687013618594  1.0000
  C   C21       1.0  0.5023371215766232  0.8808382625684319  0.906705802327487  1.0000
  C   C22       1.0  0.4979018714256113  0.7387255023432574  0.6204954401453266  1.0000
  C   C23       1.0  0.4932670833200062  0.7859271575458637  0.5744535103033857  1.0000
  C   C24       1.0  0.5021065985698456  0.7848701770685339  0.7167391139495651  1.0000
  C   C25       1.0  0.49854240244076203  0.7386476522989014  0.7662741561307344  1.0000
  C   C26       1.0  0.49785132936442267  0.7856403382248873  0.8591109245878742  1.0000
  C   C27       1.0  0.5018302149735234  0.28723748501748503  0.07218407721467206  1.0000
  C   C28       1.0  0.4973823557555122  0.3834842428923367  0.11835422968087533  1.0000
  C   C29       1.0  0.5067442649163355  0.24117704378021904  0.11936586900145585  1.0000
  C   C30       1.0  0.5012207961834818  0.4330371439594672  0.07216977149068535  1.0000
  C   C31       1.0  0.5023429571724519  0.5258690535243461  0.11916315215913204  1.0000
  C   C32       1.0  0.4979046207749107  0.38177005509837164  0.2612760145191331  1.0000
  C   C33       1.0  0.4932754236752785  0.28852550894325907  0.21407421648105185  1.0000
  C   C34       1.0  0.5021103672913653  0.4318696405787251  0.21513207101287435  1.0000
  C   C35       1.0  0.4985430432013516  0.5276273305024902  0.2613523513032592  1.0000
  C   C36       1.0  0.497855552697473  0.5734703728345423  0.2143622767073979  1.0000
  O   O1        1.0  0.7544993207334513  0.6003327319001813  0.5837925135713605  1.0000
  O   O2        1.0  0.7545003978084209  0.4834597850838165  0.39966773523943294  1.0000
  O   O3        1.0  0.754499370716573  0.4162061514194022  0.5165401736593225  1.0000
  O   O4        1.0  0.284540674777098  0.5971429982203703  0.5077446947291622  1.0000
  O   O5        1.0  0.2845419504613602  0.4922552482102205  0.5893980677327875  1.0000
  O   O6        1.0  0.2845428591162645  0.41060120075102463  0.402857025882355  1.0000
  O   O7        1.0  0.715502095327757  0.1745177144501468  0.9305746050853756  1.0000
  O   O8        1.0  0.7155006709772775  0.2560572055749263  0.8254840918468959  1.0000
  O   O9        1.0  0.715498066805388  0.06942616327283002  0.7439445728716266  1.0000
  O   O10       1.0  0.24553388713567864  0.25050027404663683  0.9337001372971728  1.0000
  O   O11       1.0  0.2455334212686324  0.06630161703950686  0.8168022687900985  1.0000
  O   O12       1.0  0.24552973013467744  0.18320012738158192  0.7495024079417476  1.0000
