data_image0
_chemical_formula_structural       Li4H28C56O16
_chemical_formula_sum              "Li4 H28 C56 O16"
_cell_length_a       3.5746250110016495
_cell_length_b       15.739155397412754
_cell_length_c       18.062291502521177
_cell_angle_alpha    89.99915150813831
_cell_angle_beta     90.00005835099535
_cell_angle_gamma    89.99992756767597

_space_group_name_H-M_alt    "P 1"
_space_group_IT_number       1

loop_
  _space_group_symop_operation_xyz
  'x, y, z'

loop_
  _atom_site_type_symbol
  _atom_site_label
  _atom_site_symmetry_multiplicity
  _atom_site_fract_x
  _atom_site_fract_y
  _atom_site_fract_z
  _atom_site_occupancy
  Li  Li1       1.0  0.029774172819116998  0.3000273240445566  0.5345836630558978  1.0000
  Li  Li2       1.0  0.47023240633910746  0.6999730121421736  0.0345831779751933  1.0000
  Li  Li3       1.0  0.5297707603831938  0.19997291752697777  0.4654170494186615  1.0000
  Li  Li4       1.0  0.9702250131458001  0.8000305499140128  0.9654168825182056  1.0000
  H   H1        1.0  0.23167111640922405  0.48243153994562255  0.1781493591315666  1.0000
  H   H2        1.0  0.26828290552726486  0.5175701088622802  0.6781499312436381  1.0000
  H   H3        1.0  0.7317119803896546  0.017568633440490096  0.8218497410310661  1.0000
  H   H4        1.0  0.7682692104698104  0.9824265324418348  0.3218528488768229  1.0000
  H   H5        1.0  0.6487272756022123  0.6694614019755746  0.30097871568482043  1.0000
  H   H6        1.0  0.8512901961804361  0.33053412726397374  0.8009827695642855  1.0000
  H   H7        1.0  0.1487032549454526  0.8305308322671011  0.6990168383674913  1.0000
  H   H8        1.0  0.35129281596297807  0.16946918246377152  0.1990224494047013  1.0000
  H   H9        1.0  0.8063365111751465  0.19738452713124133  0.3073546516241663  1.0000
  H   H10       1.0  0.6936390245634241  0.8026191508301252  0.807351063722045  1.0000
  H   H11       1.0  0.3063433645406377  0.3026213392358061  0.6926477883098342  1.0000
  H   H12       1.0  0.19366946491342668  0.6973851400091747  0.1926478229098549  1.0000
  H   H13       1.0  0.8575128753933541  0.7454275964149774  0.4156098972820175  1.0000
  H   H14       1.0  0.6424994766424349  0.2545703845519824  0.9156154108464634  1.0000
  H   H15       1.0  0.3574747402654452  0.7545677441208056  0.5843834924500015  1.0000
  H   H16       1.0  0.14251805788406102  0.24543426641975688  0.08438865057616599  1.0000
  H   H17       1.0  0.8353712999529462  0.2740910806844069  0.1873394997546924  1.0000
  H   H18       1.0  0.6645645732687129  0.725911510008295  0.6873346559479002  1.0000
  H   H19       1.0  0.3354265600013234  0.2259109636997891  0.8126651617569465  1.0000
  H   H20       1.0  0.16458676705405403  0.7740858017037127  0.312665331007274  1.0000
  H   H21       1.0  0.543033105552105  0.5277458383058973  0.5459186161130205  1.0000
  H   H22       1.0  0.9569777137784498  0.47225095485075036  0.0459198872797728  1.0000
  H   H23       1.0  0.04303539464662261  0.9722553266305026  0.4540785733621036  1.0000
  H   H24       1.0  0.45698970866200017  0.027750413142783304  0.9540809280270607  1.0000
  H   H25       1.0  0.8224270990951581  0.6717821830948267  0.5374808291236661  1.0000
  H   H26       1.0  0.6775752927787908  0.3282134862028131  0.037487721757465  1.0000
  H   H27       1.0  0.32240770354325565  0.8282144400093401  0.4625119985169874  1.0000
  H   H28       1.0  0.17759785226203204  0.17178988220970842  0.9625157944776391  1.0000
  C   C1        1.0  0.4720070183861864  0.5579708213071016  0.3596901084872428  1.0000
  C   C2        1.0  0.0280065036287738  0.44202639609077476  0.8596904664473897  1.0000
  C   C3        1.0  0.9719976263332696  0.9420244805235428  0.6403066306474443  1.0000
  C   C4        1.0  0.5280051918301253  0.057975752142141304  0.1403113528691193  1.0000
  C   C5        1.0  0.20216350112268341  0.42833292489536495  0.2992151766184535  1.0000
  C   C6        1.0  0.2978329851828646  0.5716640747206724  0.7992106457162507  1.0000
  C   C7        1.0  0.70216724772218  0.07166471700211473  0.7007872382901539  1.0000
  C   C8        1.0  0.7978246312035254  0.9283350980341823  0.2007921415022835  1.0000
  C   C9        1.0  0.4377770903382795  0.517899457212174  0.4291544110204342  1.0000
  C   C10       1.0  0.062214339693433394  0.48210036293584585  0.9291553800315598  1.0000
  C   C11       1.0  0.9377700240772241  0.9820977622538508  0.5708423198625496  1.0000
  C   C12       1.0  0.5622464935630092  0.017905585905360503  0.07084423294121932  1.0000
  C   C13       1.0  0.16950577239948214  0.3863243452572148  0.3696450390120845  1.0000
  C   C14       1.0  0.3305021958896647  0.6136733341991842  0.8696433089698203  1.0000
  C   C15       1.0  0.6694950469303365  0.1136726723343031  0.6303551534788241  1.0000
  C   C16       1.0  0.830493742490141  0.8863264629035896  0.1303567179109493  1.0000
  C   C17       1.0  0.2671859813537267  0.43258226263378663  0.43672262731884365  1.0000
  C   C18       1.0  0.23281107504361387  0.5674167904134251  0.9367209024433834  1.0000
  C   C19       1.0  0.7672115572967327  0.06741726342545461  0.5632737131972051  1.0000
  C   C20       1.0  0.73281891645464  0.9325874871700891  0.06328131545312489  1.0000
  C   C21       1.0  0.35089497591722113  0.5136933213525834  0.2923550624766306  1.0000
  C   C22       1.0  0.14911267194074898  0.48630379766051135  0.7923548921919021  1.0000
  C   C23       1.0  0.8508940525225981  0.9863039274479348  0.7076427547716477  1.0000
  C   C24       1.0  0.6491146398044448  0.013694497518564204  0.2076469563022414  1.0000
  C   C25       1.0  0.03385817952432999  0.30090679833348594  0.37260254948646576  1.0000
  C   C26       1.0  0.46613581353270933  0.6990933710948113  0.8725975622201432  1.0000
  C   C27       1.0  0.533866632659958  0.1990934418614572  0.6273976103330412  1.0000
  C   C28       1.0  0.9661501194580778  0.8009095569880814  0.1274019436541067  1.0000
  C   C29       1.0  0.6229848953622719  0.6399822236716944  0.3552566181007322  1.0000
  C   C30       1.0  0.8770383964345426  0.3600161727269438  0.8552597534134705  1.0000
  C   C31       1.0  0.12294932453701078  0.8600131960485483  0.644740037012582  1.0000
  C   C32       1.0  0.37704652134097927  0.1399877636709448  0.1447443644711868  1.0000
  C   C33       1.0  0.9142441789230772  0.26229398761122985  0.3046392074057636  1.0000
  C   C34       1.0  0.5857369405530123  0.7377091022610075  0.8046364106623614  1.0000
  C   C35       1.0  0.4142513411265369  0.2377093009007041  0.6953604903222583  1.0000
  C   C36       1.0  0.08575590459592061  0.7622926835926478  0.195362450009462  1.0000
  C   C37       1.0  0.740888208433944  0.681572190359205  0.4190317779573576  1.0000
  C   C38       1.0  0.7591493352558982  0.3184225542628952  0.9190343012000427  1.0000
  C   C39       1.0  0.2408441713855751  0.8184219188378706  0.5809632446263464  1.0000
  C   C40       1.0  0.25916819505573585  0.18158015125427343  0.0809675737566735  1.0000
  C   C41       1.0  0.9337984443138578  0.3039130608147787  0.2381296679561231  1.0000
  C   C42       1.0  0.5661628169472834  0.696090551651679  0.7381273904327585  1.0000
  C   C43       1.0  0.43382845302935635  0.19609212715818813  0.7618705881094456  1.0000
  C   C44       1.0  0.06617627094538389  0.8039086993625161  0.2618736801008623  1.0000
  C   C45       1.0  0.5644785281678891  0.5597791466703725  0.4928193958302387  1.0000
  C   C46       1.0  0.9355285489764853  0.4402162193672439  0.9928215355859606  1.0000
  C   C47       1.0  0.06447279177811541  0.9402181988994586  0.5071750306323111  1.0000
  C   C48       1.0  0.43554766122922933  0.05978642658112679  0.0071798281899973  1.0000
  C   C49       1.0  0.08648978914817458  0.3867251822532224  0.2337802055950959  1.0000
  C   C50       1.0  0.41348964088343376  0.6132774041072152  0.7337768396295417  1.0000
  C   C51       1.0  0.5865104012463506  0.11327694622758601  0.7662210741628144  1.0000
  C   C52       1.0  0.913504128932118  0.8867217295845933  0.26622542179354264  1.0000
  C   C53       1.0  0.717084548998841  0.6407587327248052  0.4877503338635236  1.0000
  C   C54       1.0  0.7829141146434252  0.35923799226150527  0.9877551172260297  1.0000
  C   C55       1.0  0.21707360989282168  0.8592372905712509  0.512245790261261  1.0000
  C   C56       1.0  0.2829356741475877  0.14076597594466023  0.0122467634437768  1.0000
  O   O1        1.0  0.20885558435364263  0.4048286350873341  0.5010368937782701  1.0000
  O   O2        1.0  0.2911340707505233  0.5951703790822054  0.001037131274721  1.0000
  O   O3        1.0  0.7088583864637386  0.09516963991292472  0.4989649690975639  1.0000
  O   O4        1.0  0.7911375261512745  0.9048300666928669  0.9989606715681631  1.0000
  O   O5        1.0  0.0140717198742948  0.25511537733658673  0.4334987631775604  1.0000
  O   O6        1.0  0.48595609561785114  0.7448818257689425  0.9334959724374914  1.0000
  O   O7        1.0  0.5140629256336807  0.24488423418138439  0.5665019455203861  1.0000
  O   O8        1.0  0.9859591690089858  0.7551172834679106  0.0665040918702431  1.0000
  O   O9        1.0  0.37907953743430767  0.5498940262715737  0.22962248758182108  1.0000
  O   O10       1.0  0.12088868538854308  0.45010291425224114  0.7296194443934354  1.0000
  O   O11       1.0  0.8791042175617034  0.950101306906625  0.770378104664303  1.0000
  O   O12       1.0  0.6208823548946042  0.049895390456306594  0.2703829509451054  1.0000
  O   O13       1.0  0.11650949944915819  0.42323597535587254  0.1671721517082148  1.0000
  O   O14       1.0  0.3834416794702377  0.5767671353159544  0.6671692381354576  1.0000
  O   O15       1.0  0.6165473400623896  0.07676487226639492  0.8328291352862466  1.0000
  O   O16       1.0  0.8834394913117762  0.9232307378017668  0.332834123339552  1.0000
