data_image0
_chemical_formula_structural       Cu4H40C28Br4N8
_chemical_formula_sum              "Cu4 H40 C28 Br4 N8"
_cell_length_a       7.881208378740588
_cell_length_b       7.755672589535011
_cell_length_c       15.256810620067762
_cell_angle_alpha    90.00010370569694
_cell_angle_beta     90.00031592998279
_cell_angle_gamma    100.43510490020223

_space_group_name_H-M_alt    "P 1"
_space_group_IT_number       1

loop_
  _space_group_symop_operation_xyz
  'x, y, z'

loop_
  _atom_site_type_symbol
  _atom_site_label
  _atom_site_symmetry_multiplicity
  _atom_site_fract_x
  _atom_site_fract_y
  _atom_site_fract_z
  _atom_site_occupancy
  Cu  Cu1       1.0  0.9413969175618105  0.8062339928372353  0.9525757063871509  1.0000
  Cu  Cu2       1.0  0.058603380794771474  0.693759690387985  0.45257665883639214  1.0000
  Cu  Cu3       1.0  0.058602451752641095  0.19376414224672092  0.0474255565879602  1.0000
  Cu  Cu4       1.0  0.9413879044911367  0.3062358479763462  0.5474246041255029  1.0000
  H   H1        1.0  0.0033810697341607105  0.7929738221053738  0.7882332781097646  1.0000
  H   H2        1.0  0.9966154033727719  0.707036018911019  0.2882357125299037  1.0000
  H   H3        1.0  0.9966293954674369  0.20705051294150678  0.2117686403392796  1.0000
  H   H4        1.0  0.00338000329418259  0.29297524789956947  0.7117675167805614  1.0000
  H   H5        1.0  0.9748116936759458  0.5696848710914112  0.8362931483532137  1.0000
  H   H6        1.0  0.025185635702321522  0.9303199855176844  0.33630143737383383  1.0000
  H   H7        1.0  0.02519433312078693  0.4303289839458132  0.1636995938544672  1.0000
  H   H8        1.0  0.9748077895915159  0.06968735237115449  0.6637070354916901  1.0000
  H   H9        1.0  0.24454868647389114  0.8959155504106917  0.8912984757632856  1.0000
  H   H10       1.0  0.7554495770295092  0.6040843599103026  0.3912987862626451  1.0000
  H   H11       1.0  0.7554569440830008  0.10408912305050678  0.108711963454013  1.0000
  H   H12       1.0  0.24454543327625797  0.39591772526484453  0.6087005103729481  1.0000
  H   H13       1.0  0.288886965473118  0.6928928607086603  0.0170036570396519  1.0000
  H   H14       1.0  0.7111071774881238  0.8070984337947421  0.5170072664245211  1.0000
  H   H15       1.0  0.7111042404533663  0.3070882475728283  0.9829969504702589  1.0000
  H   H16       1.0  0.28888014500375897  0.1928892467026984  0.4829959628627094  1.0000
  H   H17       1.0  0.1560085242320923  0.5145404020517573  0.9635124692065133  1.0000
  H   H18       1.0  0.8439876170922105  0.985450731862109  0.4635206159264698  1.0000
  H   H19       1.0  0.843982047683518  0.4854512031209309  0.0364802729676512  1.0000
  H   H20       1.0  0.15600018098109558  0.014539570763695102  0.5364885123675762  1.0000
  H   H21       1.0  0.24444598305561976  0.39688814312247445  0.836162860876648  1.0000
  H   H22       1.0  0.7555595804791506  0.10310945790639889  0.33616906976694577  1.0000
  H   H23       1.0  0.7555609945924999  0.6030889769754281  0.16383840209971368  1.0000
  H   H24       1.0  0.24443986806656426  0.8968821176758722  0.6638361258750648  1.0000
  H   H25       1.0  0.37650373330572523  0.5595245695171586  0.7699841649819703  1.0000
  H   H26       1.0  0.6234994301973984  0.9404812126820162  0.2699870271500373  1.0000
  H   H27       1.0  0.6234837477290469  0.44047098153804143  0.23001513163934106  1.0000
  H   H28       1.0  0.37650326782353005  0.05951428760072019  0.7300168576086961  1.0000
  H   H29       1.0  0.49806720996447507  0.2612584487011204  0.8747964102998012  1.0000
  H   H30       1.0  0.5019405307154798  0.2387419824686887  0.37480789590336633  1.0000
  H   H31       1.0  0.501962434808263  0.7387527038160613  0.1251969873865804  1.0000
  H   H32       1.0  0.49806113699590066  0.7612548331004162  0.6251953334094793  1.0000
  H   H33       1.0  0.7288004164236384  0.2946525970472393  0.7653400775419499  1.0000
  H   H34       1.0  0.2711989631781648  0.20534988029559997  0.2653528137291872  1.0000
  H   H35       1.0  0.2712153587950398  0.705373032089554  0.234648076570906  1.0000
  H   H36       1.0  0.7288071428718935  0.7946574152507466  0.7346477938152984  1.0000
  H   H37       1.0  0.6475598950009812  0.4806145892688392  0.7138332126536396  1.0000
  H   H38       1.0  0.352443107229945  0.019396774023299198  0.2138427349718128  1.0000
  H   H39       1.0  0.352441218011144  0.5194071532508957  0.2861542859906478  1.0000
  H   H40       1.0  0.6475619685105655  0.980611836809416  0.7861572171267924  1.0000
  C   C1        1.0  0.5553117487167825  0.6734304192521775  0.9263782457239814  1.0000
  C   C2        1.0  0.44470561261555025  0.8265748687662297  0.4263785029162506  1.0000
  C   C3        1.0  0.4446866694899683  0.3265624716020667  0.0736210509122657  1.0000
  C   C4        1.0  0.5552877332931275  0.17341803902716887  0.5736247263823983  1.0000
  C   C5        1.0  0.0335718578383819  0.7083376188372199  0.8407724415372755  1.0000
  C   C6        1.0  0.9664199739167499  0.7916646571894643  0.3407781444482935  1.0000
  C   C7        1.0  0.9664364673773419  0.29167491669594636  0.1592261996780451  1.0000
  C   C8        1.0  0.0335709151949573  0.2083426891527509  0.6592263957435732  1.0000
  C   C9        1.0  0.16847845430139333  0.7638313680084536  0.8982663356429867  1.0000
  C   C10       1.0  0.8315219480095307  0.7361659500228512  0.3982689639797883  1.0000
  C   C11       1.0  0.8315254325756527  0.2361706875474709  0.10173492734069357  1.0000
  C   C12       1.0  0.1684715564641053  0.26383482833910676  0.6017342653228539  1.0000
  C   C13       1.0  0.24784811847137436  0.6374742680710243  0.9527194514013786  1.0000
  C   C14       1.0  0.7521466336530908  0.862516810771595  0.4527245868307971  1.0000
  C   C15       1.0  0.7521470502491424  0.36251469807736203  0.047279189783196784  1.0000
  C   C16       1.0  0.2478388660122448  0.13747481136365994  0.5472806087905652  1.0000
  C   C17       1.0  0.3739734312459576  0.4772106773140337  0.8288214518819146  1.0000
  C   C18       1.0  0.6260294345317375  0.022793451352342203  0.32882523388358464  1.0000
  C   C19       1.0  0.6260234810918847  0.5227809067090164  0.17117522297154145  1.0000
  C   C20       1.0  0.3739702517697624  0.9771994352770152  0.6711766845344795  1.0000
  C   C21       1.0  0.5073789098361347  0.3628155553539755  0.8243036127279098  1.0000
  C   C22       1.0  0.49262517336809  0.1371885442790628  0.3243143183781996  1.0000
  C   C23       1.0  0.4926365482489601  0.6371943326439009  0.1756838859319814  1.0000
  C   C24       1.0  0.5073777624159774  0.8628082670543477  0.675687600046551  1.0000
  C   C25       1.0  0.633748427516842  0.38063622660187957  0.764945399820597  1.0000
  C   C26       1.0  0.3662544349069847  0.11937148432975418  0.2649570248069182  1.0000
  C   C27       1.0  0.36625474612908704  0.619382885352323  0.2350460314954006  1.0000
  C   C28       1.0  0.633751195591067  0.8806331891026389  0.735042927290628  1.0000
  Br  Br1       1.0  0.021722522617771686  0.8456693762114824  0.1050132092924656  1.0000
  Br  Br2       1.0  0.9782940066674186  0.6543144592968416  0.6050200865626536  1.0000
  Br  Br3       1.0  0.9782865949831319  0.1543195433839273  0.8949854319127581  1.0000
  Br  Br4       1.0  0.0217038568075338  0.34568236897032983  0.3949837981895428  1.0000
  N   N1        1.0  0.6974124981639561  0.7424619441183465  0.9419374422881219  1.0000
  N   N2        1.0  0.3025727808571545  0.7575264829946133  0.4419398341595127  1.0000
  N   N3        1.0  0.30258465195908707  0.2575309509661849  0.0580611989012638  1.0000
  N   N4        1.0  0.6974195347346208  0.2424677400815511  0.5580614288032847  1.0000
  N   N5        1.0  0.3998556194426542  0.5891918964928848  0.9085138221020514  1.0000
  N   N6        1.0  0.6001380819096693  0.9108028768886883  0.4085178976191698  1.0000
  N   N7        1.0  0.6001433535179642  0.41079705695923247  0.09148481908815849  1.0000
  N   N8        1.0  0.3998542336968214  0.08919134619468141  0.5914859871235693  1.0000
