data_image0
_chemical_formula_structural       Ag4P4H52C58N6O12
_chemical_formula_sum              "Ag4 P4 H52 C58 N6 O12"
_cell_length_a       10.414428244189756
_cell_length_b       12.309286489615957
_cell_length_c       12.342849007482934
_cell_angle_alpha    95.55800257896661
_cell_angle_beta     97.35049376705537
_cell_angle_gamma    108.79063829699578

_space_group_name_H-M_alt    "P 1"
_space_group_IT_number       1

loop_
  _space_group_symop_operation_xyz
  'x, y, z'

loop_
  _atom_site_type_symbol
  _atom_site_label
  _atom_site_symmetry_multiplicity
  _atom_site_fract_x
  _atom_site_fract_y
  _atom_site_fract_z
  _atom_site_occupancy
  Ag  Ag1       1.0  0.779663718702608  0.6197287632651651  0.6563272307478413  1.0000
  Ag  Ag2       1.0  0.22034041968598925  0.38027286786342523  0.3436753009293552  1.0000
  Ag  Ag3       1.0  0.4473316136963631  0.6169376188798877  0.5846239297317337  1.0000
  Ag  Ag4       1.0  0.5526766919856742  0.3830597632919678  0.41537952485693797  1.0000
  P   P1        1.0  0.41710340909636295  0.7136281468716559  0.7442550012957978  1.0000
  P   P2        1.0  0.5828965162312088  0.2863699671863387  0.2557442778114377  1.0000
  P   P3        1.0  0.9573777157962271  0.7905517148338248  0.7305511523161312  1.0000
  P   P4        1.0  0.04262617760015532  0.20945163030359032  0.2694474540956547  1.0000
  H   H1        1.0  0.9607945177382788  0.6872438051299099  0.4952444397839101  1.0000
  H   H2        1.0  0.03920031928501544  0.3127559479125708  0.5047487083672592  1.0000
  H   H3        1.0  0.16591986986961874  0.4704143164914214  0.6468802116211945  1.0000
  H   H4        1.0  0.8340736626301891  0.5295819642400091  0.3531108456033109  1.0000
  H   H5        1.0  0.19705731999748374  0.5814298257675503  0.7811645788452066  1.0000
  H   H6        1.0  0.8029397988046085  0.4185682333282871  0.21882706777500252  1.0000
  H   H7        1.0  0.23039626686081502  0.7272589718744982  0.8382945428895919  1.0000
  H   H8        1.0  0.7695982376558561  0.27273991372788237  0.16169848695764694  1.0000
  H   H9        1.0  0.705603333396084  0.7979256759825545  0.8384565354386239  1.0000
  H   H10       1.0  0.2944009497188347  0.20207166096361112  0.16155453732093147  1.0000
  H   H11       1.0  0.8353576443840753  0.7907395842687706  0.01898483033215832  1.0000
  H   H12       1.0  0.16463357254214372  0.20925411408143904  0.9810275934821886  1.0000
  H   H13       1.0  0.7102903175404977  0.6905453859251621  0.16049669814727707  1.0000
  H   H14       1.0  0.2896925462804205  0.309446451384332  0.8395080774479238  1.0000
  H   H15       1.0  0.456776301262785  0.5982348809390386  0.12063553264864167  1.0000
  H   H16       1.0  0.5432070098283219  0.4017578123326117  0.8793620815512921  1.0000
  H   H17       1.0  0.3256644702160685  0.607351852663612  0.943055664161704  1.0000
  H   H18       1.0  0.6743251052202979  0.39264178608928546  0.05693711192957809  1.0000
  H   H19       1.0  0.47348814739578426  0.9119721512119694  0.9198972160793842  1.0000
  H   H20       1.0  0.5265281713718649  0.0880184547071892  0.08010901219962818  1.0000
  H   H21       1.0  0.4756280483105114  0.1142158262114208  0.9104328958758001  1.0000
  H   H22       1.0  0.5243944148003907  0.8857835077955657  0.08958133907408691  1.0000
  H   H23       1.0  0.44735520763208575  0.18078065854330558  0.727733140587574  1.0000
  H   H24       1.0  0.552658736603924  0.8192168310022087  0.2722839612642217  1.0000
  H   H25       1.0  0.4221960779674205  0.049905436416146615  0.5565034269078949  1.0000
  H   H26       1.0  0.5778137719918918  0.9501014751865638  0.4435116089531873  1.0000
  H   H27       1.0  0.42370409169448925  0.8477864499436479  0.564320944591543  1.0000
  H   H28       1.0  0.5763013784667663  0.1522160605691312  0.4356802052746004  1.0000
  H   H29       1.0  0.11001644021583708  0.8205241666740691  0.5911628315405364  1.0000
  H   H30       1.0  0.8899807150946374  0.17947647897199911  0.40882824354005715  1.0000
  H   H31       1.0  0.20363936277513534  0.8621037647245873  0.7267689833087089  1.0000
  H   H32       1.0  0.7963633663643248  0.13789609407318443  0.2732186347662945  1.0000
  H   H33       1.0  0.9335645955834908  0.6102171567854883  0.8645575292726233  1.0000
  H   H34       1.0  0.06644192484981913  0.389785360570066  0.13543888505666493  1.0000
  H   H35       1.0  0.04896468120659853  0.6064000664178265  0.05416742500425899  1.0000
  H   H36       1.0  0.951032971601393  0.3936049210639041  0.9458362568320309  1.0000
  H   H37       1.0  0.19760183492355313  0.7888747577388387  0.17139899492780583  1.0000
  H   H38       1.0  0.8023864730261747  0.21113612661140016  0.8286032950291965  1.0000
  H   H39       1.0  0.22741683194921336  0.9785440057948802  0.10352091681028949  1.0000
  H   H40       1.0  0.7725757070514804  0.021462623221985704  0.8964782517808627  1.0000
  H   H41       1.0  0.11734772118138895  0.9841102403281639  0.9147733526401322  1.0000
  H   H42       1.0  0.8826555692131209  0.015893953928632205  0.08522282791324187  1.0000
  H   H43       1.0  0.7214364285535737  0.859613133529386  0.6633528884569129  1.0000
  H   H44       1.0  0.2785661568270186  0.14039192004941006  0.3366473370817714  1.0000
  H   H45       1.0  0.6987202810446932  0.047911625934219194  0.6255571723115735  1.0000
  H   H46       1.0  0.3012789595335335  0.9520951160237556  0.3744500991503869  1.0000
  H   H47       1.0  0.9052010001454532  0.21991071692159636  0.6352024597979378  1.0000
  H   H48       1.0  0.09479957395157616  0.7800943140443548  0.3648015748261812  1.0000
  H   H49       1.0  0.1401982816488072  0.20570324964575085  0.6838367654484824  1.0000
  H   H50       1.0  0.8597997691694914  0.7943000085232296  0.31616113538763096  1.0000
  H   H51       1.0  0.1646630246313308  0.023597347160716695  0.7304563663002098  1.0000
  H   H52       1.0  0.8353429020593239  0.9764111987913182  0.26954052336876083  1.0000
  C   C1        1.0  0.9789932784082042  0.6054766895528374  0.4997563242493185  1.0000
  C   C2        1.0  0.021000190334064014  0.39451959755522376  0.5002387772525195  1.0000
  C   C3        1.0  0.07391423616550707  0.5940767075714604  0.586578016294119  1.0000
  C   C4        1.0  0.9260834108755632  0.4059179196807535  0.4134190542905144  1.0000
  C   C5        1.0  0.09278314777113653  0.4858469897960802  0.5843951527086232  1.0000
  C   C6        1.0  0.9072093489542681  0.514146692441031  0.41559797617048827  1.0000
  C   C7        1.0  0.23263479097417425  0.6712863926816439  0.7642889771528656  1.0000
  C   C8        1.0  0.7673623515847935  0.3287142542397561  0.23570290678318873  1.0000
  C   C9        1.0  0.5064633335269946  0.7040377427794269  0.8777638567386601  1.0000
  C   C10       1.0  0.49352740791243827  0.29595679193689506  0.12223805266261675  1.0000
  C   C11       1.0  0.650656215439156  0.7549019441586466  0.9005816199803715  1.0000
  C   C12       1.0  0.34933870255292737  0.2450935210780401  0.09942411353048189  1.0000
  C   C13       1.0  0.723703049428444  0.7507906404317167  0.001970225381150208  1.0000
  C   C14       1.0  0.2762839799397696  0.2491995382972476  0.9980373281522998  1.0000
  C   C15       1.0  0.6541385555621203  0.6942454075295998  0.08115834694791599  1.0000
  C   C16       1.0  0.34584461700855945  0.30574470939442483  0.9188463096353627  1.0000
  C   C17       1.0  0.5112661761453695  0.6424935943135068  0.0589347948628429  1.0000
  C   C18       1.0  0.4887154451634429  0.3574973546845115  0.9410657005551496  1.0000
  C   C19       1.0  0.4372366832349712  0.6476329009405787  0.9579319832147842  1.0000
  C   C20       1.0  0.5627534424510899  0.3523624841704488  0.04206830918354851  1.0000
  C   C21       1.0  0.45031965815968533  0.8678869961187914  0.7428893320107546  1.0000
  C   C22       1.0  0.5496864312472381  0.1321094832468503  0.25710972480477057  1.0000
  C   C23       1.0  0.4649476121460907  0.9429158555979595  0.8403769194789134  1.0000
  C   C24       1.0  0.5350668448637846  0.057079893156860385  0.15962712167351603  1.0000
  C   C25       1.0  0.46521161223160595  0.055654516475328784  0.8351328845013128  1.0000
  C   C26       1.0  0.5348096338702107  0.9443439266695323  0.16487545256044459  1.0000
  C   C27       1.0  0.4497243819882256  0.09366603698056511  0.7327895707816477  1.0000
  C   C28       1.0  0.5502926220572489  0.906334072396781  0.2672208414746392  1.0000
  C   C29       1.0  0.43552329092813113  0.019384853411445097  0.635665402537178  1.0000
  C   C30       1.0  0.564489523813194  0.9806143267208685  0.3643419944650006  1.0000
  C   C31       1.0  0.43705475846246616  0.9069084317852616  0.6402230959741145  1.0000
  C   C32       1.0  0.562952313966683  0.0930932415522179  0.3597789796354504  1.0000
  C   C33       1.0  0.11794158979086691  0.7936535679228242  0.6734175898307196  1.0000
  C   C34       1.0  0.8820584740571392  0.2063471224827893  0.3265746468931709  1.0000
  C   C35       1.0  0.020206944065002196  0.7971697763065534  0.8764970927747554  1.0000
  C   C36       1.0  0.979796344583363  0.20283700832646187  0.1235009428053999  1.0000
  C   C37       1.0  0.9990072171623156  0.6908752432672713  0.9169787216514604  1.0000
  C   C38       1.0  0.0009957134764065196  0.3091306764762933  0.08302081333568619  1.0000
  C   C39       1.0  0.06345168273646348  0.6885650668188175  0.022692989095752077  1.0000
  C   C40       1.0  0.9365475960962897  0.31144167131317596  0.9773118557998114  1.0000
  C   C41       1.0  0.14708971061401854  0.7918127111433364  0.08937457863486738  1.0000
  C   C42       1.0  0.8529044034054111  0.20819567362509867  0.9106289884374231  1.0000
  C   C43       1.0  0.1640980928276435  0.8978707919108048  0.050782364050306214  1.0000
  C   C44       1.0  0.8358950746779358  0.10213498543602376  0.9492176126883292  1.0000
  C   C45       1.0  0.1017110845286525  0.9010053062884751  0.9446187221670426  1.0000
  C   C46       1.0  0.8982889248210313  0.099000569970876  0.05538046003227491  1.0000
  C   C47       1.0  0.9439185208536855  0.929106700774831  0.7040502594162488  1.0000
  C   C48       1.0  0.05608273275424841  0.0708974734197767  0.2959513479334958  1.0000
  C   C49       1.0  0.8130534800817912  0.9365629111128937  0.671692451742899  1.0000
  C   C50       1.0  0.1869448267340914  0.0634412221481568  0.328310420529938  1.0000
  C   C51       1.0  0.8002290351703323  0.04119676399872671  0.6474118707273816  1.0000
  C   C52       1.0  0.19976988739892232  0.958806518867611  0.3525926185483995  1.0000
  C   C53       1.0  0.9173940501522682  0.13836335293382257  0.6525808760361114  1.0000
  C   C54       1.0  0.0826046146732581  0.8616416452166645  0.3474204968297271  1.0000
  C   C55       1.0  0.04801285280301931  0.1309672019728154  0.6815829112774523  1.0000
  C   C56       1.0  0.9519851980152721  0.8690360561961653  0.3184149895586542  1.0000
  C   C57       1.0  0.06157388986935079  0.027179291630226  0.708065876278496  1.0000
  C   C58       1.0  0.9384231871859328  0.9728239520440171  0.29193190696167187  1.0000
  N   N1        1.0  0.14460892070065515  0.6860681775930003  0.6710154496648284  1.0000
  N   N2        1.0  0.8553927691721128  0.31393426346288317  0.328977950118336  1.0000
  N   N3        1.0  0.6487666794928941  0.6626739481225811  0.4114115033629772  1.0000
  N   N4        1.0  0.35123386333420104  0.3373207251644956  0.5885875377204214  1.0000
  N   N5        1.0  0.7250091051173229  0.3649683534547777  0.6618533904113447  1.0000
  N   N6        1.0  0.27499557154816767  0.6350315343324695  0.3381344628555424  1.0000
  O   O1        1.0  0.6138154593690573  0.5879110642482955  0.4813886096433178  1.0000
  O   O2        1.0  0.3861870292379166  0.41208622840447623  0.5186125216587525  1.0000
  O   O3        1.0  0.6574139697361758  0.7648631515620534  0.439486166871191  1.0000
  O   O4        1.0  0.342597333743946  0.23513426644205285  0.5605127873725166  1.0000
  O   O5        1.0  0.6722119609750408  0.6257880285936253  0.32053936190892773  1.0000
  O   O6        1.0  0.32778366552324906  0.3742013965686439  0.6794586165630462  1.0000
  O   O7        1.0  0.8094255420844761  0.4102910119655334  0.7488662514290068  1.0000
  O   O8        1.0  0.19057801303835484  0.5897011055022573  0.25112562542718553  1.0000
  O   O9        1.0  0.6697065686492252  0.43152816222182366  0.6083676999004479  1.0000
  O   O10       1.0  0.3302940199454554  0.5684742770925836  0.3916336708414291  1.0000
  O   O11       1.0  0.688928203467924  0.26064644969660117  0.6225536480886402  1.0000
  O   O12       1.0  0.3110854630995092  0.7393587263398442  0.3774244141969304  1.0000
