data_image0
_chemical_formula_structural       Tb2Ag2H22C30N4O24
_chemical_formula_sum              "Tb2 Ag2 H22 C30 N4 O24"
_cell_length_a       7.530423537078691
_cell_length_b       8.204818472732438
_cell_length_c       14.201854387275716
_cell_angle_alpha    98.24092051141214
_cell_angle_beta     100.45790955199212
_cell_angle_gamma    94.66358845715064

_space_group_name_H-M_alt    "P 1"
_space_group_IT_number       1

loop_
  _space_group_symop_operation_xyz
  'x, y, z'

loop_
  _atom_site_type_symbol
  _atom_site_label
  _atom_site_symmetry_multiplicity
  _atom_site_fract_x
  _atom_site_fract_y
  _atom_site_fract_z
  _atom_site_occupancy
  Tb  Tb1       1.0  0.8111454430786013  0.297533711433509  0.08056660382186463  1.0000
  Tb  Tb2       1.0  0.18885486827747403  0.7024642215275275  0.919433401643111  1.0000
  Ag  Ag1       1.0  0.17077917971303694  0.40366324203142057  0.5320358189760908  1.0000
  Ag  Ag2       1.0  0.8292218030584239  0.5963396329751944  0.46796608416318  1.0000
  H   H1        1.0  0.784759899542813  0.5514276467299836  0.95872927487472  1.0000
  H   H2        1.0  0.2152404027429711  0.44857029318490754  0.041270026189778285  1.0000
  H   H3        1.0  0.6373916542912357  0.6213140670624213  0.018863694859874217  1.0000
  H   H4        1.0  0.3626076439900956  0.3786863492605406  0.9811371358563716  1.0000
  H   H5        1.0  0.1273147056467536  0.11436995352202216  0.016965115070625793  1.0000
  H   H6        1.0  0.8726869182105972  0.8856279949152962  0.9830321963783104  1.0000
  H   H7        1.0  0.20333475868765302  0.18853314511785157  0.1268445640604909  1.0000
  H   H8        1.0  0.7966675365850835  0.8114697453650448  0.8731546450627332  1.0000
  H   H9        1.0  0.3287021853530022  0.2883509157957674  0.3635070038360622  1.0000
  H   H10       1.0  0.6713013225943386  0.7116507024981117  0.6364943198561405  1.0000
  H   H11       1.0  0.5234514016985017  0.7011700042281531  0.23980059258705205  1.0000
  H   H12       1.0  0.47654549844448013  0.29883293561129415  0.7601981221926833  1.0000
  H   H13       1.0  0.279943857456388  0.7640237283254548  0.49441633644635613  1.0000
  H   H14       1.0  0.7200555860030634  0.23597794089353388  0.505583207687266  1.0000
  H   H15       1.0  0.9646962338689066  0.5379162004172926  0.284896905092772  1.0000
  H   H16       1.0  0.0353017156299842  0.46208422824480516  0.7151038020376032  1.0000
  H   H17       1.0  0.02488738729829266  0.9932718845847855  0.17046684215913632  1.0000
  H   H18       1.0  0.9751117113831712  0.0067273205652754  0.8295310487368608  1.0000
  H   H19       1.0  0.8344969570451326  0.9693780345138092  0.43722668326108743  1.0000
  H   H20       1.0  0.16550551061659755  0.030626088003557997  0.5627733524809455  1.0000
  H   H21       1.0  0.4544527180034096  0.0854112140847931  0.2671937272685341  1.0000
  H   H22       1.0  0.5455445087769846  0.9145942037312903  0.7328052319478642  1.0000
  C   C1        1.0  0.35304957239186063  0.42096343089107074  0.3626609175284016  1.0000
  C   C2        1.0  0.6469498801378818  0.5790382313740706  0.6373393310056982  1.0000
  C   C3        1.0  0.4378533320512617  0.4811609399613061  0.2932061569272547  1.0000
  C   C4        1.0  0.5621434229136071  0.5188407469821001  0.7067938444350969  1.0000
  C   C5        1.0  0.46274735478099427  0.6517547874074763  0.29515723133660987  1.0000
  C   C6        1.0  0.537248223790428  0.34824814390953657  0.7048434730586876  1.0000
  C   C7        1.0  0.4030194882199042  0.7568104368142341  0.3664983595469024  1.0000
  C   C8        1.0  0.5969801457691162  0.24319245053151653  0.633503420006498  1.0000
  C   C9        1.0  0.3269127735709532  0.6877831328433217  0.4364884805532937  1.0000
  C   C10       1.0  0.6730870055961944  0.3122210073984561  0.563512012417476  1.0000
  C   C11       1.0  0.49846165596615327  0.3649019108210894  0.21703372036559185  1.0000
  C   C12       1.0  0.5015349447503044  0.6350985301801374  0.782966863178913  1.0000
  C   C13       1.0  0.40467274806749753  0.9378919506677759  0.361982029515154  1.0000
  C   C14       1.0  0.5953287428006534  0.062114627396091686  0.6380216490800663  1.0000
  C   C15       1.0  0.9561843641469566  0.6707306906250776  0.28897866050407106  1.0000
  C   C16       1.0  0.0438137486706367  0.32927097702534514  0.7110221688446426  1.0000
  C   C17       1.0  0.0048821676753689905  0.7556126903829464  0.21769169494488236  1.0000
  C   C18       1.0  0.9951152827971302  0.24438402826804403  0.782307941130014  1.0000
  C   C19       1.0  0.9883450204513693  0.924789392106049  0.22549114046255161  1.0000
  C   C20       1.0  0.011652747588236399  0.07520981147543891  0.7745080356485372  1.0000
  C   C21       1.0  0.9241561227303593  0.0048337640043883  0.3039615961157621  1.0000
  C   C22       1.0  0.07584448805224749  0.9951666677948551  0.6960365405844441  1.0000
  C   C23       1.0  0.8830001225916746  0.9121130216494605  0.3739297915599875  1.0000
  C   C24       1.0  0.11700084203920375  0.08788986726486307  0.626070702778321  1.0000
  C   C25       1.0  0.07233502928708899  0.6658174017174685  0.13428165100158646  1.0000
  C   C26       1.0  0.9276660442407522  0.3341867679083065  0.8657147391521816  1.0000
  C   C27       1.0  0.4343893009369424  0.0603150729831654  0.9805601066966642  1.0000
  C   C28       1.0  0.565593421486625  0.9396520225689  0.019434198650316082  1.0000
  C   C29       1.0  0.9011040955683854  0.18736577638716762  0.31202136358341187  1.0000
  C   C30       1.0  0.09889792748869301  0.8126345943959521  0.6879818275060214  1.0000
  N   N1        1.0  0.3016216344515072  0.5225894955257643  0.4339015112607496  1.0000
  N   N2        1.0  0.6983805065728177  0.4774121490149596  0.5660982800446204  1.0000
  N   N3        1.0  0.8983213966381387  0.7478987059449479  0.36628444144903216  1.0000
  N   N4        1.0  0.10167924135534183  0.25210170499273227  0.6337158084526135  1.0000
  O   O1        1.0  0.4248261252817473  0.21482331629206183  0.19841006338029385  1.0000
  O   O2        1.0  0.5751736266745269  0.7851808448112789  0.8015883163890363  1.0000
  O   O3        1.0  0.7170527755348317  0.5322537918511255  0.010310828454898105  1.0000
  O   O4        1.0  0.282948394647569  0.46774041180581344  0.9896889339409608  1.0000
  O   O5        1.0  0.6176461323445255  0.42346297589337206  0.17510640114304718  1.0000
  O   O6        1.0  0.3823590238117874  0.5765411288995779  0.8248931773702493  1.0000
  O   O7        1.0  0.09175981534095713  0.17047235563858007  0.07573047439819189  1.0000
  O   O8        1.0  0.908239473870083  0.829528067638236  0.9242696519175763  1.0000
  O   O9        1.0  0.47877727706102763  0.9744065508776668  0.28842258710062635  1.0000
  O   O10       1.0  0.5212221754687151  0.0255951113874673  0.7115776614334803  1.0000
  O   O11       1.0  0.33858284703655533  0.0356338569056973  0.41655424015841186  1.0000
  O   O12       1.0  0.6614314239594139  0.9643676835366504  0.5834459590193289  1.0000
  O   O13       1.0  0.06012951196071732  0.5070439594982546  0.12340720352872127  1.0000
  O   O14       1.0  0.9398676209446608  0.4929502742222311  0.8765928925099968  1.0000
  O   O15       1.0  0.4991199594098746  0.20961727947170058  0.9880656851333566  1.0000
  O   O16       1.0  0.5008911271837493  0.7903904581603952  0.01193827638082471  1.0000
  O   O17       1.0  0.13882287659245665  0.7511710382032675  0.07913684846294436  1.0000
  O   O18       1.0  0.861174301664377  0.24882316074794614  0.9208667695781682  1.0000
  O   O19       1.0  0.8735419417646783  0.26294746511830885  0.3907615854030339  1.0000
  O   O20       1.0  0.12646372843997974  0.7370504463016092  0.6092360968035136  1.0000
  O   O21       1.0  0.271404777900699  0.998986758156434  0.9452157493884953  1.0000
  O   O22       1.0  0.7286155655920725  0.0010097785446631965  0.05478317004432401  1.0000
  O   O23       1.0  0.9140968896066327  0.2532357245487517  0.23652529348445475  1.0000
  O   O24       1.0  0.08590252664194509  0.7467659655318  0.7634721374477277  1.0000
