data_image0
_chemical_formula_structural       Li4H32C16S4Cl4O8
_chemical_formula_sum              "Li4 H32 C16 S4 Cl4 O8"
_cell_length_a       6.461643866098838
_cell_length_b       9.499632697422397
_cell_length_c       10.775102858301851
_cell_angle_alpha    90.00086445714737
_cell_angle_beta     90.00004230342981
_cell_angle_gamma    90.00063516770736

_space_group_name_H-M_alt    "P 1"
_space_group_IT_number       1

loop_
  _space_group_symop_operation_xyz
  'x, y, z'

loop_
  _atom_site_type_symbol
  _atom_site_label
  _atom_site_symmetry_multiplicity
  _atom_site_fract_x
  _atom_site_fract_y
  _atom_site_fract_z
  _atom_site_occupancy
  Li  Li1       1.0  0.1055451891037293  0.5950043433818805  0.9801283024271756  1.0000
  Li  Li2       1.0  0.6055451531451084  0.09501667063376121  0.5198649485672534  1.0000
  Li  Li3       1.0  0.10554122302634282  0.9049794569582446  0.48013237137126924  1.0000
  Li  Li4       1.0  0.605542734686786  0.4049949422249099  0.0198680894674936  1.0000
  H   H1        1.0  0.2925216359268461  0.5628741578105122  0.21504030347546893  1.0000
  H   H2        1.0  0.7925405024087555  0.06287624334054702  0.2849528629770006  1.0000
  H   H3        1.0  0.2925482252900339  0.9371318149632086  0.7150408263135051  1.0000
  H   H4        1.0  0.7925407825073237  0.43711284698037645  0.7849570979295635  1.0000
  H   H5        1.0  0.2693996507356857  0.6258894169973105  0.3719719378741503  1.0000
  H   H6        1.0  0.7693982023721732  0.12589831518038608  0.1280304168975306  1.0000
  H   H7        1.0  0.2694097325809964  0.8740990426762923  0.8719651183626098  1.0000
  H   H8        1.0  0.7693928082386989  0.37410267747135606  0.6280273096088465  1.0000
  H   H9        1.0  0.0088478818044706  0.39469421173334507  0.24485506968161272  1.0000
  H   H10       1.0  0.5088702521892614  0.8946923497786659  0.2551442827758167  1.0000
  H   H11       1.0  0.008875230320157402  0.10531147341327342  0.744856707327088  1.0000
  H   H12       1.0  0.5088805771455328  0.6053064533542382  0.755143136200225  1.0000
  H   H13       1.0  0.13766801070333662  0.3797711356546998  0.3896628960266214  1.0000
  H   H14       1.0  0.637670081420346  0.8797794498902715  0.11033538430274353  1.0000
  H   H15       1.0  0.13769405575877164  0.12021902437130186  0.8896647338604002  1.0000
  H   H16       1.0  0.6376961264436362  0.6202231279492381  0.6103409343698162  1.0000
  H   H17       1.0  0.7433687761642389  0.4282638551906643  0.4073355745902632  1.0000
  H   H18       1.0  0.2433667802224093  0.9282607470865116  0.09267825164766212  1.0000
  H   H19       1.0  0.7433847419950296  0.0717353627310331  0.9073237687133757  1.0000
  H   H20       1.0  0.24338429377970533  0.5717480447640925  0.5926720142693966  1.0000
  H   H21       1.0  0.8994029246207303  0.5566963657888238  0.48321880876950735  1.0000
  H   H22       1.0  0.3993864594376504  0.05669225453766561  0.0167836019719729  1.0000
  H   H23       1.0  0.8994141391327588  0.9433050268195656  0.9832296232090699  1.0000
  H   H24       1.0  0.3994100548367001  0.44331881090984365  0.5167786394227536  1.0000
  H   H25       1.0  0.6881084538571186  0.5833575972818749  0.22800003223455437  1.0000
  H   H26       1.0  0.18812480728054476  0.08336202517193668  0.27201192493834014  1.0000
  H   H27       1.0  0.6881393506886156  0.91664419659422  0.7279900714040296  1.0000
  H   H28       1.0  0.18812475220840952  0.4166454663276369  0.7719991798837217  1.0000
  H   H29       1.0  0.6803684819858021  0.7071086951442495  0.35526646749113416  1.0000
  H   H30       1.0  0.18037539072696526  0.2071109646893206  0.14474529110761133  1.0000
  H   H31       1.0  0.6803834248751033  0.7928878301553155  0.8552557737393304  1.0000
  H   H32       1.0  0.18037021496170524  0.29289852094800034  0.6447281009502248  1.0000
  C   C1        1.0  0.1860411738895351  0.5791392598145039  0.29315286881232794  1.0000
  C   C2        1.0  0.6860460143856528  0.07914212598421952  0.2068469659790253  1.0000
  C   C3        1.0  0.1860535686485818  0.9208630274205876  0.7931485329905857  1.0000
  C   C4        1.0  0.6860460283213854  0.42085641955626585  0.706850054614094  1.0000
  C   C5        1.0  0.05332780111253042  0.4525131178020347  0.32907832929482345  1.0000
  C   C6        1.0  0.5533361379286319  0.952519301519942  0.17092274669933977  1.0000
  C   C7        1.0  0.0533464652076532  0.04748380286551421  0.8290773347218663  1.0000
  C   C8        1.0  0.553353254352416  0.5474805125270947  0.6709217520624691  1.0000
  C   C9        1.0  0.8589236308630532  0.5110326285506375  0.3927460392862089  1.0000
  C   C10       1.0  0.3589227547539124  0.0110321570538048  0.10725945321132002  1.0000
  C   C11       1.0  0.8589402355415318  0.9889648204130523  0.8927481859307566  1.0000
  C   C12       1.0  0.3589331691134278  0.4889717175438478  0.6072551034462635  1.0000
  C   C13       1.0  0.7724821184749757  0.6258876056230066  0.308058968553489  1.0000
  C   C14       1.0  0.2724813482325317  0.12588646500038436  0.19194802779756517  1.0000
  C   C15       1.0  0.7724875576882368  0.8741151267526491  0.8080567894879636  1.0000
  C   C16       1.0  0.2724883350274894  0.3741129334163417  0.691940280332986  1.0000
  S   S1        1.0  0.9997825158876169  0.7103775179558839  0.24633210010768647  1.0000
  S   S2        1.0  0.4997864656700344  0.2103868980866253  0.2536584961734932  1.0000
  S   S3        1.0  0.9997943100985013  0.7896195582207427  0.746335283466593  1.0000
  S   S4        1.0  0.4997796886254876  0.2896131481897157  0.7536607513569963  1.0000
  Cl  Cl1       1.0  0.46403009850392624  0.6278587030520414  0.9995576499274962  1.0000
  Cl  Cl2       1.0  0.9640300380266567  0.1278422787343061  0.5004454787898567  1.0000
  Cl  Cl3       1.0  0.46402714249283866  0.8721544350199867  0.4995482851925247  1.0000
  Cl  Cl4       1.0  0.9640332724132252  0.3721401161408764  0.00044446665884120015  1.0000
  O   O1        1.0  0.9896643551408106  0.7216472930739997  0.11082998675513525  1.0000
  O   O2        1.0  0.4896824027234957  0.2216631819953321  0.3891691090090461  1.0000
  O   O3        1.0  0.9896666792284707  0.7783379350708443  0.6108330187731285  1.0000
  O   O4        1.0  0.4896537749104227  0.278350665874882  0.8891739971298733  1.0000
  O   O5        1.0  0.036897091732861015  0.8435574984489945  0.3113298432992054  1.0000
  O   O6        1.0  0.5369034570433798  0.34355374031029834  0.18866790696553445  1.0000
  O   O7        1.0  0.0369345627763664  0.6564439773430025  0.8113238146708427  1.0000
  O   O8        1.0  0.5368975954765817  0.156441271816206  0.6886739431848172  1.0000
