data_image0
_chemical_formula_structural       Mn2H16C32N20O4
_chemical_formula_sum              "Mn2 H16 C32 N20 O4"
_cell_length_a       6.8380628359311215
_cell_length_b       7.322508087136015
_cell_length_c       19.135890918317486
_cell_angle_alpha    89.9986572381099
_cell_angle_beta     90.000578349494
_cell_angle_gamma    116.63960789700667

_space_group_name_H-M_alt    "P 1"
_space_group_IT_number       1

loop_
  _space_group_symop_operation_xyz
  'x, y, z'

loop_
  _atom_site_type_symbol
  _atom_site_label
  _atom_site_symmetry_multiplicity
  _atom_site_fract_x
  _atom_site_fract_y
  _atom_site_fract_z
  _atom_site_occupancy
  Mn  Mn1       1.0  0.49999432305055086  0.9999985968949329  0.999998460663541  1.0000
  Mn  Mn2       1.0  5.132410826999106e-06  0.5000059461965519  0.5000000885073278  1.0000
  H   H1        1.0  0.7045731806707353  0.03377393947372549  0.8168473236052096  1.0000
  H   H2        1.0  0.20458975293804832  0.5337838259574567  0.6831529994488224  1.0000
  H   H3        1.0  0.295422794049081  0.9662145494601616  0.18314942072449725  1.0000
  H   H4        1.0  0.7954149346300312  0.46621690914098923  0.31684949320218453  1.0000
  H   H5        1.0  0.692894921542212  0.7605315795548857  0.7360304603143109  1.0000
  H   H6        1.0  0.1928935734592585  0.2605316338588323  0.7639740608641079  1.0000
  H   H7        1.0  0.30711934473189473  0.23946466825409365  0.2639678517481344  1.0000
  H   H8        1.0  0.8071154944971538  0.7394721808182749  0.23602843178096583  1.0000
  H   H9        1.0  0.8965973853277661  0.5074650323920692  0.91080615747309  1.0000
  H   H10       1.0  0.3965853357632696  0.0074651562096050995  0.5891966575486977  1.0000
  H   H11       1.0  0.10339851750332942  0.49253258723854987  0.0891931997067417  1.0000
  H   H12       1.0  0.6034149714171521  0.992532499342502  0.41080478995179  1.0000
  H   H13       1.0  0.9201972758318179  0.804639582992358  0.9826238402412245  1.0000
  H   H14       1.0  0.420197738026623  0.3046518605469331  0.5173790106353451  1.0000
  H   H15       1.0  0.07978473979262903  0.1953503136038464  0.017378652417676207  1.0000
  H   H16       1.0  0.579800354996948  0.6953472987921997  0.48262295943266775  1.0000
  C   C1        1.0  0.746837484947399  0.9140307693378131  0.8334677160343349  1.0000
  C   C2        1.0  0.24686189473470685  0.4140446702243778  0.6665366689140839  1.0000
  C   C3        1.0  0.2531517993768304  0.08596831812599959  0.166531118548825  1.0000
  C   C4        1.0  0.7531478952983053  0.5859606722143552  0.3334668688818995  1.0000
  C   C5        1.0  0.7403919218363555  0.7605725103875752  0.7902820042149801  1.0000
  C   C6        1.0  0.24039584207471174  0.2605683538866614  0.7097200740599661  1.0000
  C   C7        1.0  0.2596164719708511  0.23942368947219705  0.209715262680689  1.0000
  C   C8        1.0  0.7596095675713173  0.7394339090380624  0.2902813734290391  1.0000
  C   C9        1.0  0.7932207138017164  0.6096585559068399  0.8172201147746493  1.0000
  C   C10       1.0  0.2932085674391587  0.10964984672187938  0.6827819368591933  1.0000
  C   C11       1.0  0.20679273454640426  0.39034833851057726  0.18277715208218845  1.0000
  C   C12       1.0  0.7067968422068702  0.8903524162028444  0.3172195106298119  1.0000
  C   C13       1.0  0.8553701506937016  0.6213927087366286  0.8877070930241405  1.0000
  C   C14       1.0  0.3553610315186831  0.12138838398232106  0.6122961215255318  1.0000
  C   C15       1.0  0.14463162460428694  0.3786049588431907  0.11229330932246742  1.0000
  C   C16       1.0  0.6446436560493964  0.8786123511161248  0.38770637112547496  1.0000
  C   C17       1.0  0.8636491573177524  0.779185150594074  0.9287267019591144  1.0000
  C   C18       1.0  0.363658334703473  0.27919720948762  0.5712772192887317  1.0000
  C   C19       1.0  0.13633066811488703  0.2208032063259466  0.07127213265514601  1.0000
  C   C20       1.0  0.6363449326717399  0.7207974263980855  0.4287263185435037  1.0000
  C   C21       1.0  0.7854818113968918  0.4471359502252454  0.7750393591643816  1.0000
  C   C22       1.0  0.28547204738347903  0.947124772769591  0.7249653904877535  1.0000
  C   C23       1.0  0.21454412792464694  0.5528695242920135  0.22495999803413014  1.0000
  C   C24       1.0  0.714539980770077  0.05287602235426189  0.2750355344414572  1.0000
  C   C25       1.0  0.31458743973939823  0.5591152390840363  0.9234439596815779  1.0000
  C   C26       1.0  0.814583740398433  0.05910966688077929  0.5765570535301451  1.0000
  C   C27       1.0  0.6854055028979147  0.44088540026147877  0.0765517394318138  1.0000
  C   C28       1.0  0.18541129658230196  0.9409046865594772  0.4234407358385043  1.0000
  C   C29       1.0  0.34287154501762984  0.26468845865262836  0.9035899690683921  1.0000
  C   C30       1.0  0.842880461769063  0.7646910142104842  0.5964103495038275  1.0000
  C   C31       1.0  0.657111866837674  0.7353105807649951  0.09641095581737603  1.0000
  C   C32       1.0  0.1571159954025205  0.23532943834553063  0.4035895301529778  1.0000
  N   N1        1.0  0.8057926468875819  0.9211260257647351  0.9018889575883126  1.0000
  N   N2        1.0  0.3058105504185349  0.42114258354002476  0.5981160977816914  1.0000
  N   N3        1.0  0.19419451912818178  0.07886239106754538  0.09811196735176252  1.0000
  N   N4        1.0  0.6941904548747929  0.5788596433015627  0.4018884851689607  1.0000
  N   N5        1.0  0.7780951429250749  0.3107377449580325  0.7415489631551468  1.0000
  N   N6        1.0  0.2780677662167506  0.8107182644994706  0.7584585493946181  1.0000
  N   N7        1.0  0.22194030321342959  0.6892723729503202  0.2584493488831542  1.0000
  N   N8        1.0  0.7219420477789457  0.18928403436291316  0.24154446583681025  1.0000
  N   N9        1.0  0.3323046804100189  0.7042483568697762  0.9550175181500224  1.0000
  N   N10       1.0  0.8323017438857504  0.20424626556137324  0.5449869619060479  1.0000
  N   N11       1.0  0.6676905482688369  0.2957416477980174  0.04498131648447411  1.0000
  N   N12       1.0  0.16769338894336983  0.7957559134603258  0.455012395251984  1.0000
  N   N13       1.0  0.2834907765378959  0.4028377493797066  0.8853915022383138  1.0000
  N   N14       1.0  0.7834990196158743  0.9028285205500239  0.6146094564270542  1.0000
  N   N15       1.0  0.7164890488957595  0.5971506075888084  0.1146057646412544  1.0000
  N   N16       1.0  0.21650046963956268  0.09717978165902248  0.38538937813314084  1.0000
  N   N17       1.0  0.3907676761143861  0.13142517654571856  0.9150873727855926  1.0000
  N   N18       1.0  0.8907934071819883  0.6314392340785985  0.5849064724174441  1.0000
  N   N19       1.0  0.6092099591257778  0.8685616406657883  0.08490884894048632  1.0000
  N   N20       1.0  0.10922288154748828  0.3685798585541774  0.4150954975939315  1.0000
  O   O1        1.0  0.8011813561171623  0.06324100016330897  0.9430332848451005  1.0000
  O   O2        1.0  0.30119883725100033  0.5632571769804925  0.5569671207020266  1.0000
  O   O3        1.0  0.19879625515997665  0.9367488606083824  0.056963982023766804  1.0000
  O   O4        1.0  0.6988065723946876  0.4367450859280665  0.4430348493652121  1.0000
