data_image0
_chemical_formula_structural       Zn4H48C40N20O24
_chemical_formula_sum              "Zn4 H48 C40 N20 O24"
_cell_length_a       7.179286231
_cell_length_b       7.584347647957576
_cell_length_c       26.381
_cell_angle_alpha    90.0
_cell_angle_beta     90.0
_cell_angle_gamma    110.33040028236903

_space_group_name_H-M_alt    "P 1"
_space_group_IT_number       1

loop_
  _space_group_symop_operation_xyz
  'x, y, z'

loop_
  _atom_site_type_symbol
  _atom_site_label
  _atom_site_symmetry_multiplicity
  _atom_site_fract_x
  _atom_site_fract_y
  _atom_site_fract_z
  _atom_site_occupancy
  Zn  Zn1       1.0  0.009819009176723585  0.71501501566123  0.8457734733330825  1.0000
  Zn  Zn2       1.0  0.9901804570916966  0.7849852762447682  0.3457715780296411  1.0000
  Zn  Zn3       1.0  0.9901830797004011  0.2849837728445267  0.1542269057276044  1.0000
  Zn  Zn4       1.0  0.009819362081429993  0.2150149183592305  0.6542280429096722  1.0000
  H   H1        1.0  0.4246490971309882  0.05925016760718901  0.8526572154201872  1.0000
  H   H2        1.0  0.5753646431885429  0.44075274189128794  0.3526549410560662  1.0000
  H   H3        1.0  0.5753502059538746  0.9407486208985676  0.1473424055191259  1.0000
  H   H4        1.0  0.4246381171455057  0.5592516710074309  0.647345058943934  1.0000
  H   H5        1.0  0.6582887501837222  0.280340836458393  0.7885523672339974  1.0000
  H   H6        1.0  0.34172168825528365  0.21966066694184155  0.2885508509912427  1.0000
  H   H7        1.0  0.34170828319714996  0.7196593581456059  0.21144725370531606  1.0000
  H   H8        1.0  0.6582800399022376  0.7803409337603926  0.7114495280694444  1.0000
  H   H9        1.0  0.06667955554617319  0.13956509293718264  0.8906800348735828  1.0000
  H   H10       1.0  0.9333188629159395  0.3604378165612943  0.3906788976915223  1.0000
  H   H11       1.0  0.9333216565230841  0.8604351016668161  0.109320344187104  1.0000
  H   H12       1.0  0.06668668321037069  0.6395665963374171  0.6093222394905454  1.0000
  H   H13       1.0  0.20941158626148146  0.7063632931948762  0.9612471096622599  1.0000
  H   H14       1.0  0.7905922140639916  0.7936412170058349  0.4612471096622599  1.0000
  H   H15       1.0  0.7905877168233815  0.2936354953108804  0.0387540275198077  1.0000
  H   H16       1.0  0.20940776047780932  0.20636319589288385  0.538753269398434  1.0000
  H   H17       1.0  0.164677343002019  0.3022084762758297  0.0177347333308049  1.0000
  H   H18       1.0  0.8353238612523484  0.1977944332226471  0.5177332170880575  1.0000
  H   H19       1.0  0.8353210832749768  0.6977917183281692  0.982265645729882  1.0000
  H   H20       1.0  0.16467889908170727  0.8022099796760644  0.4822671619726294  1.0000
  H   H21       1.0  0.20428398117894636  0.3888888083350821  0.9540354800803642  1.0000
  H   H22       1.0  0.7957173784440883  0.11111831945811451  0.4540343428982966  1.0000
  H   H23       1.0  0.79571583799418  0.6111113862689166  0.0459645199196359  1.0000
  H   H24       1.0  0.20428780696262555  0.8888889056370817  0.5459660361623904  1.0000
  H   H25       1.0  0.5556001753731153  0.3775795601964732  0.9603722375952373  1.0000
  H   H26       1.0  0.44439757163206645  0.12241772490904172  0.4603718585345505  1.0000
  H   H27       1.0  0.4444005206078785  0.6224192283092835  0.0396285205261364  1.0000
  H   H28       1.0  0.555603640437191  0.8775824696949501  0.5396281414654496  1.0000
  H   H29       1.0  0.5082874298167042  0.32097285727915204  0.0257283651112559  1.0000
  H   H30       1.0  0.49171274226113587  0.17902724002284745  0.525727986050569  1.0000
  H   H31       1.0  0.49171048037202786  0.6790259312266047  0.974272013949431  1.0000
  H   H32       1.0  0.5082884698081217  0.8209729545811444  0.474272013949431  1.0000
  H   H33       1.0  0.6787425921668558  0.7693607126097746  0.8144346309844226  1.0000
  H   H34       1.0  0.3212511471483739  0.7306353610014968  0.3144323566202942  1.0000
  H   H35       1.0  0.3212591359906654  0.23064088809245936  0.1855653690155776  1.0000
  H   H36       1.0  0.678748672024753  0.269364833602495  0.6855676433797058  1.0000
  H   H37       1.0  0.8382136086095643  0.9715759186967576  0.827978848413629  1.0000
  H   H38       1.0  0.1617804914252687  0.5284173427180434  0.3279758159281272  1.0000
  H   H39       1.0  0.1617898731636842  0.0284228698090061  0.17202077252568426  1.0000
  H   H40       1.0  0.8382188116595942  0.4715814457877131  0.6720238050111789  1.0000
  H   H41       1.0  0.8413407104914301  0.3618087623446017  0.859046283309958  1.0000
  H   H42       1.0  0.1586524971057628  0.1381913349573978  0.3590432508244561  1.0000
  H   H43       1.0  0.15865580680117125  0.6381900261611548  0.1409533376293552  1.0000
  H   H44       1.0  0.8413487149634875  0.8618088596466009  0.6409567491755439  1.0000
  H   H45       1.0  0.6593350808324772  0.43752996472683503  0.8683040824836041  1.0000
  H   H46       1.0  0.3406562177803211  0.06246872647692211  0.3683029453015436  1.0000
  H   H47       1.0  0.3406614364601239  0.5624688237789215  0.1316951593950222  1.0000
  H   H48       1.0  0.659343085304542  0.9375300620288344  0.6316970546984564  1.0000
  C   C1        1.0  0.39766238843781576  0.0446829898481482  0.8120347977711263  1.0000
  C   C2        1.0  0.6023501143542518  0.4553241379450484  0.3120325234069981  1.0000
  C   C3        1.0  0.60233603783918  0.9553172047558436  0.1879644441075001  1.0000
  C   C4        1.0  0.3976524906111294  0.5446760566589504  0.6879670975323151  1.0000
  C   C5        1.0  0.312067480729077  0.987521072730303  0.6538721049239983  1.0000
  C   C6        1.0  0.6879281175882852  0.5124876557651277  0.1538694514991832  1.0000
  C   C7        1.0  0.6879326991636461  0.0124763096772185  0.346127516015315  1.0000
  C   C8        1.0  0.3120706694083069  0.4875097266423866  0.8461294113187494  1.0000
  C   C9        1.0  0.32897864312556646  0.002881095292302401  0.7110909366589624  1.0000
  C   C10       1.0  0.6710246254818699  0.49712743859912933  0.2110882832341474  1.0000
  C   C11       1.0  0.6710220528554275  0.9971176932134542  0.2889083052196639  1.0000
  C   C12       1.0  0.3289729239872656  0.5028741621031046  0.7889109586444789  1.0000
  C   C13       1.0  0.01253751512459897  0.7199701058564827  0.7319036427732115  1.0000
  C   C14       1.0  0.9874674727460689  0.7800414348354254  0.2319062961980194  1.0000
  C   C15       1.0  0.9874631808563878  0.2800286826492737  0.2680955991054148  1.0000
  C   C16       1.0  0.01253286251532161  0.21996016586681585  0.7680925666199132  1.0000
  C   C17       1.0  0.1963057061485927  0.8843289290470651  0.7461889238467094  1.0000
  C   C18       1.0  0.803694070857155  0.6156797994483654  0.2461847541791471  1.0000
  C   C19       1.0  0.8036935969362702  0.11566985945869132  0.2538106970926037  1.0000
  C   C20       1.0  0.1963078126690334  0.3843260195485882  0.7538141086387924  1.0000
  C   C21       1.0  0.526497226352646  0.1642069645807354  0.7770247526629035  1.0000
  C   C22       1.0  0.47351197455890315  0.335798757114219  0.2770228573594622  1.0000
  C   C23       1.0  0.47350119992434975  0.8357932300232634  0.2229752473370965  1.0000
  C   C24       1.0  0.5264892375103544  0.66420143748978  0.7229771426405378  1.0000
  C   C25       1.0  0.11547039538718451  0.05619049783850021  0.917462188696412  1.0000
  C   C26       1.0  0.8845271462670681  0.443813817758219  0.4174618096357251  1.0000
  C   C27       1.0  0.8845289076976783  0.9438082906672636  0.082538190364275  1.0000
  C   C28       1.0  0.11547700696311843  0.5561905951404924  0.5825393275463426  1.0000
  C   C29       1.0  0.19156692720711277  0.8403180541572937  0.9544046851900988  1.0000
  C   C30       1.0  0.8084354802222294  0.659686456043417  0.4544046851900987  1.0000
  C   C31       1.0  0.8084328919660211  0.15968214044669796  0.0455956938705881  1.0000
  C   C32       1.0  0.19156537112742464  0.3403165507570592  0.5455956938705881  1.0000
  C   C33       1.0  0.25044989666429274  0.30814221084563104  0.9829415109359019  1.0000
  C   C34       1.0  0.7495493986056802  0.19185929255461084  0.482941131875215  1.0000
  C   C35       1.0  0.7495499225088338  0.691857983758368  0.0170584890640981  1.0000
  C   C36       1.0  0.25045145274398106  0.8081437142458656  0.5170596262461586  1.0000
  C   C37       1.0  0.47210754467667476  0.3959178934332926  0.9937064554035118  1.0000
  C   C38       1.0  0.5278945363855598  0.104083609966942  0.493706076342825  1.0000
  C   C39       1.0  0.527891758408181  0.6040808950724639  0.006293544596488201  1.0000
  C   C40       1.0  0.4721096168446267  0.8959208029317693  0.5062939236571751  1.0000
  N   N1        1.0  0.23433190301356893  0.9076532866404037  0.7961714870550766  1.0000
  N   N2        1.0  0.7656743223845623  0.5923540357567845  0.2961688336302615  1.0000
  N   N3        1.0  0.7656668839830304  0.09234409576711763  0.20382851294492355  1.0000
  N   N4        1.0  0.23432983084561707  0.40765037714192703  0.7038307873090517  1.0000
  N   N5        1.0  0.4926248758340749  0.1417712610746307  0.727304878511049  1.0000
  N   N6        1.0  0.5073815392852126  0.3582344606203307  0.227302225086234  1.0000
  N   N7        1.0  0.5073749433390518  0.8582289335293681  0.27269512148895103  1.0000
  N   N8        1.0  0.4926182798879142  0.6417657339836682  0.7726977749137662  1.0000
  N   N9        1.0  0.1088038174710562  0.8789168569240362  0.9109484098404155  1.0000
  N   N10       1.0  0.891197197062155  0.6210876532766747  0.4109480307797285  1.0000
  N   N11       1.0  0.8911954856138067  0.12108193158172041  0.0890515901595847  1.0000
  N   N12       1.0  0.10880747225629513  0.37891816572027903  0.5890523482809584  1.0000
  N   N13       1.0  0.198674569678893  0.1186015742876094  0.9624805731397572  1.0000
  N   N14       1.0  0.8013252416793506  0.3814013352108675  0.4624801940790704  1.0000
  N   N15       1.0  0.8013252494942337  0.8813986203163824  0.0375201849816165  1.0000
  N   N16       1.0  0.1986761257585742  0.6186030776878513  0.5375209431029901  1.0000
  N   N17       1.0  0.2474822785579179  0.9823691287815424  0.9869705469845726  1.0000
  N   N18       1.0  0.7525187359752934  0.5176353814191685  0.4869705469845727  1.0000
  N   N19       1.0  0.7525175406152087  0.017631065822456507  0.013030211136801  1.0000
  N   N20       1.0  0.2474798456703695  0.4823690314795429  0.513030211136801  1.0000
  O   O1        1.0  0.9260528430550679  0.6089431827839322  0.7674212501421493  1.0000
  O   O2        1.0  0.07394992509387076  0.8910585152203085  0.267414427049772  1.0000
  O   O3        1.0  0.07394821364552234  0.391052793525347  0.232577991736477  1.0000
  O   O4        1.0  0.9260518030636504  0.1089430854819327  0.7325844357681675  1.0000
  O   O5        1.0  0.41566460574235725  0.903793546973553  0.6328330995792444  1.0000
  O   O6        1.0  0.5843386784948521  0.5962095571289227  0.1328304461544292  1.0000
  O   O7        1.0  0.5843352134307694  0.0962066476304457  0.3671661422993823  1.0000
  O   O8        1.0  0.4156559298133616  0.4037878252785988  0.8671687957241972  1.0000
  O   O9        1.0  0.9616313771114167  0.7017414482823343  0.6854778059967401  1.0000
  O   O10       1.0  0.038373971478847635  0.7982672802130966  0.18547060384367606  1.0000
  O   O11       1.0  0.03836895814997384  0.2982601524198999  0.3145214358818862  1.0000
  O   O12       1.0  0.9616272405904028  0.20173291439090246  0.8145286380349503  1.0000
  O   O13       1.0  0.20654147256215083  0.06644657839587612  0.6313062431295222  1.0000
  O   O14       1.0  0.7934647871884692  0.4335549250043584  0.13130283158333364  1.0000
  O   O15       1.0  0.7934583466109757  0.9335536162081228  0.3686937568704778  1.0000
  O   O16       1.0  0.2065320908237354  0.5664410513049205  0.8686975474773535  1.0000
  O   O17       1.0  0.785809045444758  0.8372457295044458  0.8391926007353803  1.0000
  O   O18       1.0  0.21418572604699904  0.6627531563033104  0.3391899473105653  1.0000
  O   O19       1.0  0.2141926827127634  0.16275587119778837  0.1608073992646197  1.0000
  O   O20       1.0  0.7858127002299967  0.33724703830068853  0.6608100526894349  1.0000
  O   O21       1.0  0.8036786648128357  0.4622899486224839  0.8744403168947343  1.0000
  O   O22       1.0  0.196318205384479  0.037708742581273214  0.374438800651987  1.0000
  O   O23       1.0  0.19631733639150187  0.5377074337850305  0.12555930404457882  1.0000
  O   O24       1.0  0.8036830066847784  0.9622914520227257  0.6255608202873263  1.0000
