data_image0
_chemical_formula_structural       Zn4H34C60Br2O16
_chemical_formula_sum              "Zn4 H34 C60 Br2 O16"
_cell_length_a       12.147348584421966
_cell_length_b       12.368275974328794
_cell_length_c       23.277831726723534
_cell_angle_alpha    90.91712192970208
_cell_angle_beta     90.80946103725863
_cell_angle_gamma    90.67984703496417

_space_group_name_H-M_alt    "P 1"
_space_group_IT_number       1

loop_
  _space_group_symop_operation_xyz
  'x, y, z'

loop_
  _atom_site_type_symbol
  _atom_site_label
  _atom_site_symmetry_multiplicity
  _atom_site_fract_x
  _atom_site_fract_y
  _atom_site_fract_z
  _atom_site_occupancy
  Zn  Zn1       1.0  0.5025338245873671  0.10322095813909733  0.5017315348704372  1.0000
  Zn  Zn2       1.0  0.4974686769948419  0.8967792357966502  0.4982668657870023  1.0000
  Zn  Zn3       1.0  0.10502565519259123  0.4987054402118217  0.0026221566194238  1.0000
  Zn  Zn4       1.0  0.8949719116456051  0.5012947511024066  0.9973783588101951  1.0000
  H   H1        1.0  0.2872612652059416  0.1713095113106178  0.35526973264505557  1.0000
  H   H2        1.0  0.7127379734958976  0.8286931076518301  0.64472909681065  1.0000
  H   H3        1.0  0.8549534645236606  0.8395420204095743  0.2769030971257536  1.0000
  H   H4        1.0  0.14504986853934554  0.1604581712144721  0.7230987458501873  1.0000
  H   H5        1.0  0.1528336589965633  0.0686639422390414  0.17363266303070898  1.0000
  H   H6        1.0  0.8471655446813315  0.9313354407476453  0.8263678563561784  1.0000
  H   H7        1.0  0.1593787867727912  0.8771356379818944  0.21660074789571132  1.0000
  H   H8        1.0  0.8406204354386021  0.1228653626815088  0.7833993561233825  1.0000
  H   H9        1.0  0.8396721019580368  0.17703710591792543  0.234889199147716  1.0000
  H   H10       1.0  0.1603271017198651  0.8229622770687545  0.7651113202391714  1.0000
  H   H11       1.0  0.0662606315979275  0.8399143604062758  0.3108422527250312  1.0000
  H   H12       1.0  0.9337386065201159  0.1600874470729181  0.689160435995838  1.0000
  H   H13       1.0  0.9321349884971397  0.17075481463467668  0.3227408422676845  1.0000
  H   H14       1.0  0.06786671443910558  0.8292469949331861  0.6772597150726085  1.0000
  H   H15       1.0  0.7158422667225042  0.8345963513297578  0.3535919225912139  1.0000
  H   H16       1.0  0.2841585943716325  0.16540384038376746  0.6464090445807358  1.0000
  H   H17       1.0  0.1545733759408989  0.2187035859860558  0.10481378570673881  1.0000
  H   H18       1.0  0.8454250034068665  0.7812957971341775  0.8951862985462213  1.0000
  H   H19       1.0  0.8226322859905437  0.7854478280086711  0.103603129474422  1.0000
  H   H20       1.0  0.177366920751922  0.21455155404451898  0.8963986787058574  1.0000
  H   H21       1.0  0.1643446520622049  0.7332616737676007  0.1420655328368028  1.0000
  H   H22       1.0  0.8356553944793177  0.2667393267622558  0.8579350063162181  1.0000
  H   H23       1.0  0.21607597925499533  0.8358679194190445  0.3840236300703808  1.0000
  H   H24       1.0  0.7839249121931929  0.1641346980316528  0.6159777880443684  1.0000
  H   H25       1.0  0.787272232964952  0.1672025503523002  0.39650940715236527  1.0000
  H   H26       1.0  0.21272535036369078  0.8327992592609804  0.6034898337138728  1.0000
  H   H27       1.0  0.14316705878559327  0.17431723873251306  0.2787493167354924  1.0000
  H   H28       1.0  0.856829672923439  0.8256821443436523  0.7212503268474038  1.0000
  H   H29       1.0  0.7625556857220558  0.3322031353439955  0.2066046572287021  1.0000
  H   H30       1.0  0.836611836237168  0.4300615751956657  0.1664142446432422  1.0000
  H   H31       1.0  0.7570927359013312  0.33026323230210863  0.1300068873261679  1.0000
  H   H32       1.0  0.2374435081783304  0.6677954389599139  0.7933958550431869  1.0000
  H   H33       1.0  0.2429064677765638  0.6697361506845781  0.8699936320607194  1.0000
  H   H34       1.0  0.1633873674407269  0.5699378077910213  0.8335862747436522  1.0000
  C   C1        1.0  0.6515761464755983  0.9986151643951404  0.5801061216925305  1.0000
  C   C2        1.0  0.34842558170708315  0.0013890724657131001  0.4198927386015754  1.0000
  C   C3        1.0  0.8965826843718645  0.8055013757736732  0.1286755469949625  1.0000
  C   C4        1.0  0.10341733385865132  0.19449719839668234  0.8713254004108535  1.0000
  C   C5        1.0  0.0846096153276434  0.8572682757128405  0.1921357610073713  1.0000
  C   C6        1.0  0.9153904214363707  0.1427319161342311  0.8078647710306512  1.0000
  C   C7        1.0  0.08821705068220352  0.7759423103324677  0.1503849496708938  1.0000
  C   C8        1.0  0.9117846337205363  0.22405788155867162  0.8496160230371855  1.0000
  C   C9        1.0  0.9097009389153712  0.18545589841392743  0.2065977313143179  1.0000
  C   C10       1.0  0.090298254985008  0.8145426758899745  0.7934027809575639  1.0000
  C   C11       1.0  0.9077182733584124  0.2700434571640713  0.1671732182926817  1.0000
  C   C12       1.0  0.092280105989353  0.729955925956162  0.8328268659602786  1.0000
  C   C13       1.0  0.11654056988145814  0.912198973668666  0.3191267659392167  1.0000
  C   C14       1.0  0.883461114521289  0.08780121822247372  0.6808742067688698  1.0000
  C   C15       1.0  0.1995171444839201  0.9096584089434431  0.3606662729497501  1.0000
  C   C16       1.0  0.8004845564092735  0.09034340124674153  0.6393334251949483  1.0000
  C   C17       1.0  0.8819539286900381  0.09798597291379003  0.327633994440184  1.0000
  C   C18       1.0  0.11804613536345697  0.9020166456039435  0.6723656997472531  1.0000
  C   C19       1.0  0.8020063874259407  0.09600993236982451  0.36970747987665936  1.0000
  C   C20       1.0  0.1979912046586847  0.9039926862374018  0.6302913385067868  1.0000
  C   C21       1.0  0.9932093649002949  0.010575730827568502  0.2479792943559147  1.0000
  C   C22       1.0  0.006789830021617102  0.9894228431651728  0.7520216475137715  1.0000
  C   C23       1.0  0.6525463036995091  0.00036151809406700014  0.42280542345795885  1.0000
  C   C24       1.0  0.34745366724877164  0.9996338238345006  0.5771920587054923  1.0000
  C   C25       1.0  0.0951608173697025  0.006916216888058103  0.2884504075767751  1.0000
  C   C26       1.0  0.9048416785210877  0.993083167120254  0.7115497043568482  1.0000
  C   C27       1.0  0.26147548778231317  0.0033795054525925005  0.37410784061023605  1.0000
  C   C28       1.0  0.7385254083357752  0.996623922236701  0.6258914366305319  1.0000
  C   C29       1.0  0.8997829376196479  0.007330508729758402  0.2920165925390279  1.0000
  C   C30       1.0  0.10021711096492682  0.9926704911777623  0.7079848058095877  1.0000
  C   C31       1.0  0.7402782659652303  0.0014479208559450003  0.3787535563615024  1.0000
  C   C32       1.0  0.2597209717150903  0.9985546984176707  0.621244843496406  1.0000
  C   C33       1.0  0.9952935065649201  0.11136622890825272  0.20963925427041366  1.0000
  C   C34       1.0  0.004705686313940302  0.8886323457068174  0.7903608284036778  1.0000
  C   C35       1.0  0.9970395413334643  0.2802759038540402  0.1294486014722693  1.0000
  C   C36       1.0  0.0029579961721993005  0.7197218614118555  0.8705518926123476  1.0000
  C   C37       1.0  0.9886017752983633  0.9157386459366706  0.20402145283988923  1.0000
  C   C38       1.0  0.0113966138269177  0.08426154586634028  0.7959786385280694  1.0000
  C   C39       1.0  0.9929346113100835  0.7478291397036261  0.11895362569728721  1.0000
  C   C40       1.0  0.007064603166846001  0.25217105165467063  0.881047330402403  1.0000
  C   C41       1.0  0.9932400428209007  0.6581833169876318  0.0752174514182045  1.0000
  C   C42       1.0  0.0067575240172957005  0.3418168743266038  0.9247830640114217  1.0000
  C   C43       1.0  0.0014247062316244006  0.3621002683362278  0.083145165116953  1.0000
  C   C44       1.0  0.9985728616280982  0.6378999226668398  0.9168557799104704  1.0000
  C   C45       1.0  0.1584447347005238  0.09967046486438853  0.3015596194780841  1.0000
  C   C46       1.0  0.8415528584056348  0.90033215343167  0.6984396285031522  1.0000
  C   C47       1.0  0.23978548787076903  0.09837801412577113  0.3444023967866059  1.0000
  C   C48       1.0  0.7602129100104947  0.9016229866711782  0.6555972720985608  1.0000
  C   C49       1.0  0.840471739847473  0.9120559683742896  0.3027525128300326  1.0000
  C   C50       1.0  0.159530757064843  0.08794341532286151  0.697248028701388  1.0000
  C   C51       1.0  0.762107285695258  0.9087299146449582  0.34574463230985947  1.0000
  C   C52       1.0  0.23789522872903043  0.0912710870400701  0.6542550642559704  1.0000
  C   C53       1.0  0.08446778247459011  0.12490584626795001  0.17258420273511632  1.0000
  C   C54       1.0  0.9155314104042701  0.8750927283471203  0.8274158799389751  1.0000
  C   C55       1.0  0.085545246898846  0.20856775776896092  0.133679971872148  1.0000
  C   C56       1.0  0.9144522993628073  0.7914308164908803  0.8663200997296839  1.0000
  C   C57       1.0  0.8954420003432165  0.8893727901179816  0.1693511930626954  1.0000
  C   C58       1.0  0.10455638309064601  0.11062659175759394  0.8306506095814469  1.0000
  C   C59       1.0  0.8108733393042301  0.3447490988930683  0.16774089173058832  1.0000
  C   C60       1.0  0.18912667892628582  0.6552494752772873  0.8322600556752279  1.0000
  Br  Br1       1.0  0.7600018171474262  0.9663309011511032  0.17229054945970293  1.0000
  Br  Br2       1.0  0.2399973973295033  0.0336692902071931  0.8277104066399803  1.0000
  O   O1        1.0  0.6209082730859592  0.09159385772061772  0.5631661833780655  1.0000
  O   O2        1.0  0.379092623032129  0.9084095699686828  0.43683309386270247  1.0000
  O   O3        1.0  0.6145281029735301  0.9082019817614866  0.43786451830115414  1.0000
  O   O4        1.0  0.38547357121397857  0.09179821324130441  0.5621321584289731  1.0000
  O   O5        1.0  0.6210787800129864  0.09227520766778954  0.4421232318149038  1.0000
  O   O6        1.0  0.37892122537544287  0.9077225587532851  0.5578764196825219  1.0000
  O   O7        1.0  0.6141539560915702  0.9074737152563657  0.5610944715535595  1.0000
  O   O8        1.0  0.38584941564374736  0.09253052289321323  0.438903111019428  1.0000
  O   O9        1.0  0.08699914163601362  0.6214825409533731  0.060729084961629105  1.0000
  O   O10       1.0  0.9129975900730188  0.37851684212279946  0.939270558621267  1.0000
  O   O11       1.0  0.9100980052376144  0.3954154636372706  0.0621389433827915  1.0000
  O   O12       1.0  0.08989873727045251  0.6045847278105043  0.9378611369129004  1.0000
  O   O13       1.0  0.09704661195326032  0.39176935671003593  0.06647149029560502  1.0000
  O   O14       1.0  0.9029517987700899  0.6082324518362014  0.9335294744979451  1.0000
  O   O15       1.0  0.8996727635639489  0.6246421662845307  0.0558025033716589  1.0000
  O   O16       1.0  0.10032399076467875  0.37535883322369307  0.9441984432346261  1.0000
