data_image0
_chemical_formula_structural       Zn6H32C46O32
_chemical_formula_sum              "Zn6 H32 C46 O32"
_cell_length_a       11.745101135009762
_cell_length_b       15.460411294007994
_cell_length_c       16.503881856006075
_cell_angle_alpha    90.00002303949762
_cell_angle_beta     90.00009477209306
_cell_angle_gamma    90.00011413025638

_space_group_name_H-M_alt    "P 1"
_space_group_IT_number       1

loop_
  _space_group_symop_operation_xyz
  'x, y, z'

loop_
  _atom_site_type_symbol
  _atom_site_label
  _atom_site_symmetry_multiplicity
  _atom_site_fract_x
  _atom_site_fract_y
  _atom_site_fract_z
  _atom_site_occupancy
  Zn  Zn1       1.0  0.5994868815445499  0.1735049144604942  0.10011440483073392  1.0000
  Zn  Zn2       1.0  0.400513868135988  0.6735051107253939  0.3998874923420814  1.0000
  Zn  Zn3       1.0  0.40051069703348213  0.6735019201069078  0.6001149314859405  1.0000
  Zn  Zn4       1.0  0.5994869670929928  0.17349991350903338  0.8998856413890479  1.0000
  Zn  Zn5       1.0  0.34724365187852146  0.11737230155147667  2.648255446e-06  1.0000
  Zn  Zn6       1.0  0.6527569504213061  0.6173735692729136  0.49999922800704866  1.0000
  H   H1        1.0  0.5539280398947639  0.05513090530271109  9.395710165000002e-07  1.0000
  H   H2        1.0  0.44607069614353617  0.5551318606786139  0.4999990957500984  1.0000
  H   H3        1.0  0.33331733870203806  0.9574819115743335  0.0791926509299898  1.0000
  H   H4        1.0  0.6666798994912212  0.45748001560014717  0.420807534272889  1.0000
  H   H5        1.0  0.6666800850463442  0.4574800499705347  0.5791914843525844  1.0000
  H   H6        1.0  0.3333217303674871  0.9574788601461107  0.9208061647217889  1.0000
  H   H7        1.0  0.40599072760927146  0.0234764246058319  0.13035321039365746  1.0000
  H   H8        1.0  0.5940070738957101  0.5234756065316687  0.3696468131347075  1.0000
  H   H9        1.0  0.5940082307446557  0.5234763099203192  0.6303515393048826  1.0000
  H   H10       1.0  0.40599499940565653  0.023477231853242096  0.8696459480963199  1.0000
  H   H11       1.0  0.12791391876471883  0.08165964213922895  0.047482252376127604  1.0000
  H   H12       1.0  0.872082332667311  0.5816592802642261  0.4525159750715774  1.0000
  H   H13       1.0  0.8720807410921833  0.5816644753774155  0.5474803000513262  1.0000
  H   H14       1.0  0.12791923616044437  0.08166307260802337  0.9525184208598176  1.0000
  H   H15       1.0  0.4682896309394307  0.38392615352938714  0.229367595162671  1.0000
  H   H16       1.0  0.5317108197988886  0.8839245515231225  0.270630744887093  1.0000
  H   H17       1.0  0.5317088029714865  0.8839259446955335  0.7293616099067322  1.0000
  H   H18       1.0  0.46828856222027315  0.38392174329374734  0.7706360117642249  1.0000
  H   H19       1.0  0.16689781366382303  0.542424299320139  0.242518294204686  1.0000
  H   H20       1.0  0.8331042946767223  0.0424199967060375  0.25747870679370527  1.0000
  H   H21       1.0  0.8331023086682378  0.04242204240020439  0.7425148982686736  1.0000
  H   H22       1.0  0.16689926838471075  0.5424211770046412  0.7574813843527508  1.0000
  H   H23       1.0  0.16867509997754834  0.31059408451590537  0.0958679051241234  1.0000
  H   H24       1.0  0.8313191982943663  0.8105929932283403  0.4041352549490398  1.0000
  H   H25       1.0  0.8313245314243715  0.810587860332724  0.5958671170433618  1.0000
  H   H26       1.0  0.16867178979697425  0.310587144964714  0.9041310832258989  1.0000
  H   H27       1.0  0.12504969337005178  0.48871887507655737  0.9999982338201009  1.0000
  H   H28       1.0  0.87495305548412  0.9887176743243556  0.5000000328099077  1.0000
  H   H29       1.0  0.8716363496803294  0.34240296204118437  0.13084494118442083  1.0000
  H   H30       1.0  0.12837250623213944  0.8424059677650247  0.3691564129932345  1.0000
  H   H31       1.0  0.12837025855711198  0.8424060245511882  0.6308445441651358  1.0000
  H   H32       1.0  0.8716321061386548  0.34240376906915765  0.8691560916324408  1.0000
  C   C1        1.0  0.3237364575178673  0.33935606362865656  0.16003654082273044  1.0000
  C   C2        1.0  0.6762630247814696  0.839355356976739  0.33996360037761525  1.0000
  C   C3        1.0  0.6762642511790061  0.8393541328083811  0.6600349657750613  1.0000
  C   C4        1.0  0.323732145571931  0.3393523302939413  0.8399650629641684  1.0000
  C   C5        1.0  0.3802844245281347  0.39595681112556486  0.21227399176624573  1.0000
  C   C6        1.0  0.6197152063777693  0.8959547027188036  0.28772374684653107  1.0000
  C   C7        1.0  0.6197131495006402  0.8959567352859708  0.7122687151831215  1.0000
  C   C8        1.0  0.3802859501173898  0.3959524083106842  0.7877295168885681  1.0000
  C   C9        1.0  0.32339530487664797  0.46849818249907565  0.24262986072100295  1.0000
  C   C10       1.0  0.6766053679107953  0.9684948532631947  0.25736729899709593  1.0000
  C   C11       1.0  0.6766042335837736  0.9684968990066593  0.7426276801530491  1.0000
  C   C12       1.0  0.32339761075738227  0.4684957069494118  0.757371184861434  1.0000
  C   C13       1.0  0.21092372703310497  0.48551381056596893  0.2194504030215683  1.0000
  C   C14       1.0  0.7890795446878939  0.9855100145478485  0.2805479748727038  1.0000
  C   C15       1.0  0.7890749503713151  0.9855133438544287  0.7194459301033191  1.0000
  C   C16       1.0  0.21092523580821876  0.48551134507609806  0.7805517294128705  1.0000
  C   C17       1.0  0.15613223603115495  0.4293638929890022  0.1658617559240199  1.0000
  C   C18       1.0  0.8438683340097055  0.9293608498424886  0.3341390247241663  1.0000
  C   C19       1.0  0.8438653169599274  0.9293609218250367  0.6658573469794078  1.0000
  C   C20       1.0  0.15613046469151468  0.42935951031464004  0.8341396856984461  1.0000
  C   C21       1.0  0.21116781669155663  0.35566278416342095  0.13659411449857123  1.0000
  C   C22       1.0  0.7888308570063526  0.855662257800951  0.3634078505300665  1.0000
  C   C23       1.0  0.7888303256336824  0.8556590830166471  0.6365926708846743  1.0000
  C   C24       1.0  0.21116611392783813  0.35565906100454464  0.8634055461746399  1.0000
  C   C25       1.0  0.3834343978573925  0.2612993166713053  0.1273618240826409  1.0000
  C   C26       1.0  0.6165665823323675  0.7612978871719988  0.37263828804087507  1.0000
  C   C27       1.0  0.6165719892648766  0.7612960020126563  0.6273619970886343  1.0000
  C   C28       1.0  0.38342420253518833  0.2612923634466213  0.8726392144081601  1.0000
  C   C29       1.0  0.38499730306453017  0.5282081663937106  0.29918266358443907  1.0000
  C   C30       1.0  0.6150047679566766  0.028206743658572  0.20081675579091757  1.0000
  C   C31       1.0  0.6150046175549375  0.028213341639016697  0.7991753774886734  1.0000
  C   C32       1.0  0.3849960707720398  0.5282108408041848  0.7008221116750377  1.0000
  C   C33       1.0  0.0025685136636752993  0.4184157944510503  0.0727611431925794  1.0000
  C   C34       1.0  0.9974311762167429  0.9184156110316691  0.4272396333772549  1.0000
  C   C35       1.0  0.9974330495403334  0.918414995798919  0.5727617608967891  1.0000
  C   C36       1.0  0.0025661090523527996  0.418414686249278  0.9272389032140183  1.0000
  C   C37       1.0  0.05119331298138257  0.4460996426217249  0.9999993946004793  1.0000
  C   C38       1.0  0.9488076211377103  0.9460992002943341  0.5000012798243816  1.0000
  C   C39       1.0  0.9082617939103556  0.3639709675671909  0.0737256774233899  1.0000
  C   C40       1.0  0.09174030728323147  0.86397588316742  0.4262756847851533  1.0000
  C   C41       1.0  0.09174388570251318  0.8639752683542169  0.5737252376397708  1.0000
  C   C42       1.0  0.9082585356237087  0.3639705057599655  0.9262766180284246  1.0000
  C   C43       1.0  0.8615187790843277  0.3365997168707863  1.1715692807e-06  1.0000
  C   C44       1.0  0.13848580449801057  0.8366034414822677  0.5000001804441965  1.0000
  C   C45       1.0  0.7631432149366756  0.2749770904672316  3.5263318665e-06  1.0000
  C   C46       1.0  0.23686205827488743  0.7749835509987546  0.5000008323172409  1.0000
  O   O1        1.0  0.32452546469246346  0.20669592981616347  0.088419426103421  1.0000
  O   O2        1.0  0.6754779263895896  0.7066939594315045  0.41158369527091315  1.0000
  O   O3        1.0  0.6754840934889186  0.7066907637438645  0.5884190619751735  1.0000
  O   O4        1.0  0.3245059950118188  0.2066902871126857  0.9115821291771837  1.0000
  O   O5        1.0  0.4904952149400187  0.25671414099653583  0.14152824986513932  1.0000
  O   O6        1.0  0.509504050373614  0.7567118967426012  0.3584730723852729  1.0000
  O   O7        1.0  0.5095094904897549  0.756708077290369  0.6415234505205446  1.0000
  O   O8        1.0  0.4904841350071647  0.2567039475572556  0.8584777592655684  1.0000
  O   O9        1.0  0.48874183199065147  0.5146174063058878  0.3132812229313018  1.0000
  O   O10       1.0  0.5112593519259929  0.014615173857435998  0.1867175854625103  1.0000
  O   O11       1.0  0.5112643430846758  0.014630833347460697  0.8132744216250813  1.0000
  O   O12       1.0  0.48873630956601477  0.5146220150329981  0.6867182151332543  1.0000
  O   O13       1.0  0.3252789054982371  0.5904483867079762  0.3297990737325733  1.0000
  O   O14       1.0  0.6747199232690945  0.09044768774354138  0.1702021865808163  1.0000
  O   O15       1.0  0.6747309130448397  0.0904530053931296  0.8297912514507075  1.0000
  O   O16       1.0  0.3252741958032104  0.5904523414561563  0.6702129259999552  1.0000
  O   O17       1.0  0.044256658657161586  0.44867700322293297  0.1463426499728584  1.0000
  O   O18       1.0  0.9557431106762803  0.9486760780553212  0.35365813786973643  1.0000
  O   O19       1.0  0.9557426021504507  0.9486754947555979  0.6463414012461826  1.0000
  O   O20       1.0  0.04425578447432338  0.4486758630870894  0.8536574563827345  1.0000
  O   O21       1.0  0.7258076977075374  0.2507991951873834  0.06882730826753662  1.0000
  O   O22       1.0  0.274196660604062  0.7508043886436083  0.4311788591282523  1.0000
  O   O23       1.0  0.27419511901624105  0.7507998908184774  0.5688216282532254  1.0000
  O   O24       1.0  0.7258087079987017  0.25079679507101815  0.9311826089284027  1.0000
  O   O25       1.0  0.5314932339280674  0.11576834373117609  1.5436858689e-06  1.0000
  O   O26       1.0  0.4685039584862308  0.6157693330101138  0.5000015438131912  1.0000
  O   O27       1.0  0.338798406672204  0.0187281088474691  0.09171316997416311  1.0000
  O   O28       1.0  0.6611993823662983  0.518726762272486  0.4082880636213702  1.0000
  O   O29       1.0  0.6612004486755294  0.5187274488904663  0.5917109714212003  1.0000
  O   O30       1.0  0.3388044718449235  0.018727639240331894  0.9082883319659771  1.0000
  O   O31       1.0  0.15720952078499545  0.11161357894791728  2.5362405154000004e-06  1.0000
  O   O32       1.0  0.8427885121334027  0.6116138402225247  0.4999963082847856  1.0000
