data_image0
_chemical_formula_structural       Ag2H30C18S2N4O6
_chemical_formula_sum              "Ag2 H30 C18 S2 N4 O6"
_cell_length_a       7.14321542561138
_cell_length_b       8.119160465617485
_cell_length_c       11.368713995119272
_cell_angle_alpha    107.58779107083501
_cell_angle_beta     99.27569994693576
_cell_angle_gamma    101.25730992280543

_space_group_name_H-M_alt    "P 1"
_space_group_IT_number       1

loop_
  _space_group_symop_operation_xyz
  'x, y, z'

loop_
  _atom_site_type_symbol
  _atom_site_label
  _atom_site_symmetry_multiplicity
  _atom_site_fract_x
  _atom_site_fract_y
  _atom_site_fract_z
  _atom_site_occupancy
  Ag  Ag1       1.0  0.9800995973149397  0.8141413797441146  0.5677025731627836  1.0000
  Ag  Ag2       1.0  0.019903617088139893  0.1858551733894203  0.43230079481910616  1.0000
  H   H1        1.0  0.5692120768381627  0.5949782964878665  0.409350464057077  1.0000
  H   H2        1.0  0.4307940839929927  0.40502365403472856  0.5906517674919199  1.0000
  H   H3        1.0  0.7515085200033839  0.2143666370479735  0.8012525735928901  1.0000
  H   H4        1.0  0.24848814385217108  0.785636626887282  0.19874452803121298  1.0000
  H   H5        1.0  0.9188648223712479  0.13343445827634778  0.7160673073131603  1.0000
  H   H6        1.0  0.08113605452928843  0.8665688061114165  0.28393288601493066  1.0000
  H   H7        1.0  0.21514528159976717  0.5978855670184444  0.40475713556208587  1.0000
  H   H8        1.0  0.784852684665431  0.4021070190296356  0.5952386390968057  1.0000
  H   H9        1.0  0.23018629003844643  0.11308025189283913  0.6988010262828509  1.0000
  H   H10       1.0  0.7698121127160319  0.8869190224837951  0.30119538539241825  1.0000
  H   H11       1.0  0.474382519137123  0.2402973501415673  0.7569088079913796  1.0000
  H   H12       1.0  0.5256140937490912  0.7597005747746762  0.243087114866121  1.0000
  H   H13       1.0  0.9824101461082791  0.12302322990801429  0.9405454028090288  1.0000
  H   H14       1.0  0.01758823820587446  0.8769813370329304  0.05945568870123449  1.0000
  H   H15       1.0  0.9334075764190216  0.906796296587295  0.8238830837531876  1.0000
  H   H16       1.0  0.0665890527317003  0.09320694412060249  0.17611576840510412  1.0000
  H   H17       1.0  0.7484000342564129  0.9680414997433999  0.9008226579236902  1.0000
  H   H18       1.0  0.2515980165950539  0.0319617527290106  0.09917634953550448  1.0000
  H   H19       1.0  0.32221351321808817  0.19122157095062423  0.9323553789787052  1.0000
  H   H20       1.0  0.6777835014525736  0.80878301906683  0.06764293142936857  1.0000
  H   H21       1.0  0.5235090993304754  0.09463559056535331  0.9233469440345555  1.0000
  H   H22       1.0  0.4764871963575602  0.9053663356740176  0.07664982407266764  1.0000
  H   H23       1.0  0.2811970493720395  0.9556161877443259  0.8591750587132977  1.0000
  H   H24       1.0  0.718800615959488  0.0443857154185281  0.14082449049611503  1.0000
  H   H25       1.0  0.3039199204371954  0.4663733020501368  0.9282394805559518  1.0000
  H   H26       1.0  0.6960836089882463  0.5336298581162352  0.07177065131199357  1.0000
  H   H27       1.0  0.2313976508921556  0.671879349968286  0.9770538161931482  1.0000
  H   H28       1.0  0.7685935739489409  0.3281198191310749  0.022945320046012775  1.0000
  H   H29       1.0  0.04768670531886698  0.4618199983051738  0.9079997790520334  1.0000
  H   H30       1.0  0.9523094352853292  0.5381765192331329  0.09200106189116747  1.0000
  C   C1        1.0  0.632448360690333  0.9585851157000392  0.6567368392176716  1.0000
  C   C2        1.0  0.36755109450945883  0.041418136923212494  0.3432631988095166  1.0000
  C   C3        1.0  0.529995275113386  0.6988735009258207  0.47999679110917276  1.0000
  C   C4        1.0  0.47000235551330866  0.3011283790096897  0.520004508634436  1.0000
  C   C5        1.0  0.79836334321282  0.09316808808198122  0.7592602057369928  1.0000
  C   C6        1.0  0.20163470763864674  0.9068351643904297  0.2407388017222019  1.0000
  C   C7        1.0  0.33562278603320544  0.701622372735379  0.4765343749018881  1.0000
  C   C8        1.0  0.6643847975865925  0.2983742853737611  0.5234642073801153  1.0000
  C   C9        1.0  0.4345676023961075  0.9638377519731165  0.6514289224375246  1.0000
  C   C10       1.0  0.5654332582399207  0.036160196622994106  0.34856834158976097  1.0000
  C   C11       1.0  0.3771825706980181  0.10979994040586398  0.7434723472539841  1.0000
  C   C12       1.0  0.6228154638889409  0.8901979962748999  0.2565237309044122  1.0000
  C   C13       1.0  0.8698657075226423  0.018505939245542904  0.8623831800746157  1.0000
  C   C14       1.0  0.13012698998853978  0.9814985806373359  0.13761729023205058  1.0000
  C   C15       1.0  0.3763260610354636  0.08625468079587512  0.8722170321415418  1.0000
  C   C16       1.0  0.6236758531337826  0.9137419418688779  0.12778005366976694  1.0000
  C   C17       1.0  0.19284373999768425  0.5361432705414444  0.9078353472952185  1.0000
  C   C18       1.0  0.807162000608699  0.46385730744425047  0.09216917653819218  1.0000
  S   S1        1.0  0.1854795513884326  0.5497884817016611  0.7530775469691517  1.0000
  S   S2        1.0  0.8145297006327186  0.45020944457213835  0.24692765100029848  1.0000
  N   N1        1.0  0.6772598545269588  0.8275062305256851  0.5692888067200242  1.0000
  N   N2        1.0  0.32273919888838515  0.17249035699636286  0.43070884375658364  1.0000
  N   N3        1.0  0.28920758433967825  0.834716383891312  0.5606911434828489  1.0000
  N   N4        1.0  0.7107882564187521  0.1652841465838009  0.4393096674429841  1.0000
  O   O1        1.0  0.03809855095919801  0.6501917351033911  0.7340311976008066  1.0000
  O   O2        1.0  0.9619064023427981  0.3498008284715368  0.26597148043224905  1.0000
  O   O3        1.0  0.11880281293144179  0.3614602666806447  0.6667058238267527  1.0000
  O   O4        1.0  0.8812057548119159  0.638535019042422  0.33329608130765814  1.0000
  O   O5        1.0  0.38544210381617466  0.6384139031368505  0.754344493831411  1.0000
  O   O6        1.0  0.6145665138086187  0.36159202578320293  0.2456623946374988  1.0000
