data_image0
_chemical_formula_structural       Cu2H44Ru2C24N20
_chemical_formula_sum              "Cu2 H44 Ru2 C24 N20"
_cell_length_a       8.204276649984019
_cell_length_b       9.350030286763614
_cell_length_c       12.557541836422219
_cell_angle_alpha    90.00089767008514
_cell_angle_beta     89.99939299528992
_cell_angle_gamma    110.00836838011179

_space_group_name_H-M_alt    "P 1"
_space_group_IT_number       1

loop_
  _space_group_symop_operation_xyz
  'x, y, z'

loop_
  _atom_site_type_symbol
  _atom_site_label
  _atom_site_symmetry_multiplicity
  _atom_site_fract_x
  _atom_site_fract_y
  _atom_site_fract_z
  _atom_site_occupancy
  Cu  Cu1       1.0  0.9999888511031401  0.4999671770242742  0.9999961917334304  1.0000
  Cu  Cu2       1.0  0.5000235028763029  3.8035305919900785e-05  0.5000061663597748  1.0000
  H   H1        1.0  0.40031880594235514  0.5176924749245586  0.05412693904145981  1.0000
  H   H2        1.0  0.09966418862391895  0.9822718717723262  0.5541282745846985  1.0000
  H   H3        1.0  0.5996468465181835  0.48223280376016214  0.9458459449756873  1.0000
  H   H4        1.0  0.9003848055500613  0.017796308796711503  0.4458509806679203  1.0000
  H   H5        1.0  0.31248983183600393  0.5814022174240777  0.16556503542823006  1.0000
  H   H6        1.0  0.18750487205725358  0.9185891052087313  0.665571378838834  1.0000
  H   H7        1.0  0.6875048723742979  0.41857870098455413  0.8344030708142184  1.0000
  H   H8        1.0  0.8125142462251276  0.08145098724813948  0.33440787634986446  1.0000
  H   H9        1.0  0.37893367707109604  0.27741482426449  0.153062941843551  1.0000
  H   H10       1.0  0.12102760046025204  0.22255496287160534  0.6530578576429775  1.0000
  H   H11       1.0  0.6210443815732631  0.7225434796490549  0.8469449810317685  1.0000
  H   H12       1.0  0.8789453105681633  0.7774676923460505  0.3469444912931436  1.0000
  H   H13       1.0  0.28130165296835946  0.3389056722762264  0.2618460806305833  1.0000
  H   H14       1.0  0.21867975230912157  0.1610966127927682  0.7618324253906578  1.0000
  H   H15       1.0  0.7187180900410084  0.6611034308758549  0.7381658240738957  1.0000
  H   H16       1.0  0.7812938984390387  0.8389248804042284  0.2381699235360131  1.0000
  H   H17       1.0  0.6599001969220099  0.47908371588770404  0.1887469069563537  1.0000
  H   H18       1.0  0.8400829041497958  0.02087642562525361  0.6887578234811684  1.0000
  H   H19       1.0  0.34009841871002783  0.5208741785989021  0.8112156247963966  1.0000
  H   H20       1.0  0.15990191341224158  0.9791218991753469  0.3112262095827631  1.0000
  H   H21       1.0  0.5611071784143107  0.5688578701412581  0.2810898983266767  1.0000
  H   H22       1.0  0.9388997995881284  0.9311334380237357  0.7810986389084036  1.0000
  H   H23       1.0  0.43893359115560326  0.43115196140941964  0.7188614849106187  1.0000
  H   H24       1.0  0.06109268544438612  0.0688509664824224  0.21887344903340283  1.0000
  H   H25       1.0  0.057234997925760936  0.3620422070890826  0.1498537345290742  1.0000
  H   H26       1.0  0.44273797607777254  0.13796170980698721  0.6498597601672244  1.0000
  H   H27       1.0  0.9427558791587887  0.6379353458921034  0.850151799413851  1.0000
  H   H28       1.0  0.55727548094427  0.8621060309426627  0.3501640899203693  1.0000
  H   H29       1.0  0.13943243197869756  0.2986923913684266  0.044950378123481  1.0000
  H   H30       1.0  0.3605368242902288  0.20129827363291505  0.5449521491687648  1.0000
  H   H31       1.0  0.8605242862353536  0.7012319181389376  0.9550631189627765  1.0000
  H   H32       1.0  0.6395000065483318  0.7987758858084251  0.45506612653699824  1.0000
  H   H33       1.0  0.7031732593249134  0.40729000410348004  0.36552057790387243  1.0000
  H   H34       1.0  0.7968157644271515  0.09270641346123651  0.8655254793658926  1.0000
  H   H35       1.0  0.29685520511166175  0.5927372820375539  0.6344554918397094  1.0000
  H   H36       1.0  0.20314207867967585  0.9072442613994339  0.1344633315130537  1.0000
  H   H37       1.0  0.5597269947703795  0.2513191605349405  0.3070023234186152  1.0000
  H   H38       1.0  0.9402650635565382  0.24867042649662358  0.8069969407895101  1.0000
  H   H39       1.0  0.44028931986503755  0.7486934527250284  0.6930079886501447  1.0000
  H   H40       1.0  0.05970626664807104  0.7513040735827375  0.1930173528788472  1.0000
  H   H41       1.0  0.4881769148039298  0.356756852990472  0.39373991752592025  1.0000
  H   H42       1.0  0.01181381703768381  0.1432349558590644  0.8937449959975652  1.0000
  H   H43       1.0  0.5118669857279414  0.6432930721818764  0.6062496899803307  1.0000
  H   H44       1.0  0.9881436274286275  0.8567088432530882  0.10625894519164801  1.0000
  Ru  Ru1       1.0  0.49998820622653994  0.9999676120327904  0.9999992945748062  1.0000
  Ru  Ru2       1.0  1.0694834912763005e-05  0.5000444488598532  0.5000116582812169  1.0000
  C   C1        1.0  0.31505730321620723  0.4792465899149008  0.1234964728193617  1.0000
  C   C2        1.0  0.18493157879829883  0.020741629999953704  0.6235020868597516  1.0000
  C   C3        1.0  0.6849251939024229  0.5207047415761963  0.876478003962923  1.0000
  C   C4        1.0  0.8150881372797941  0.9793087763959323  0.37648990973534074  1.0000
  C   C5        1.0  0.37625339930614393  0.37834853921391  0.19677274236055814  1.0000
  C   C6        1.0  0.12371135536189125  0.12164030765168125  0.6967759960976281  1.0000
  C   C7        1.0  0.6237480905824954  0.6216310971648585  0.8032280135529676  1.0000
  C   C8        1.0  0.8762780152999596  0.8783808727141249  0.3032207784335981  1.0000
  C   C9        1.0  0.5531958270267054  0.45911947191731173  0.2458562632019365  1.0000
  C   C10       1.0  0.9467815639988332  0.04084982296043901  0.7458634959141008  1.0000
  C   C11       1.0  0.4468276282454867  0.5408631691293665  0.7541229916303821  1.0000
  C   C12       1.0  0.053202854989450654  0.9591416259637245  0.2541213334445445  1.0000
  C   C13       1.0  0.6876069307505261  0.2034811564589063  0.0072311455608656  1.0000
  C   C14       1.0  0.8124039541664275  0.29653603329455086  0.5072391585149418  1.0000
  C   C15       1.0  0.3123479668594913  0.7964535150224068  0.9927855369300433  1.0000
  C   C16       1.0  0.18766122922332334  0.7035329727875991  0.49277752439403605  1.0000
  C   C17       1.0  0.6845947370389924  0.9038166971042189  0.021643392649473  1.0000
  C   C18       1.0  0.8154097366494213  0.5961964664139928  0.5216434293167751  1.0000
  C   C19       1.0  0.31533766834634486  0.0960989178045608  0.9783772714767167  1.0000
  C   C20       1.0  0.18465301476180682  0.4038932395417448  0.4783780317287949  1.0000
  C   C21       1.0  0.4900880312626725  0.026316640515744907  0.16017471969686173  1.0000
  C   C22       1.0  0.009922801977246853  0.4736878526855009  0.660181349938796  1.0000
  C   C23       1.0  0.5098656435649932  0.9736387068287944  0.839852315265702  1.0000
  C   C24       1.0  0.9901338018944941  0.526351494476444  0.33986161185202235  1.0000
  N   N1        1.0  0.13835756681361744  0.39483856734508294  0.0855297549225824  1.0000
  N   N2        1.0  0.3616066738421964  0.10515635602869373  0.5855263941408779  1.0000
  N   N3        1.0  0.8615869747310612  0.6051123724042143  0.9144845386981191  1.0000
  N   N4        1.0  0.6384159165852311  0.8949157920817045  0.41448391826006054  1.0000
  N   N5        1.0  0.5801206689056997  0.36272855750249994  0.3337406322159353  1.0000
  N   N6        1.0  0.9198617367273343  0.13725939931961054  0.8337444183879654  1.0000
  N   N7        1.0  0.41990571816954514  0.6372907389824649  0.6662497715028834  1.0000
  N   N8        1.0  0.08010248007222037  0.862703769153633  0.1662563375562129  1.0000
  N   N9        1.0  0.8028808279015253  0.31977163382670437  0.0164832499069902  1.0000
  N   N10       1.0  0.6971291601372797  0.18025262106215229  0.516498638967974  1.0000
  N   N11       1.0  0.19707984569823367  0.6801652171505097  0.9835127278878204  1.0000
  N   N12       1.0  0.3029340034042179  0.8198233089740159  0.4835124696497388  1.0000
  N   N13       1.0  0.7972352737493652  0.8533165873590961  0.0326376904035897  1.0000
  N   N14       1.0  0.7027736642042584  0.6466989760890769  0.5326343260849172  1.0000
  N   N15       1.0  0.2026906870294596  0.1465922718245736  0.96736704702073  1.0000
  N   N16       1.0  0.29729513340665653  0.35339060939555383  0.46736802291835033  1.0000
  N   N17       1.0  0.49096526480393277  0.055304945829142624  0.25185923410430894  1.0000
  N   N18       1.0  0.00904276541621845  0.44470236969397103  0.7518559698589727  1.0000
  N   N19       1.0  0.5090226398302776  0.9446979070591299  0.7481590413463834  1.0000
  N   N20       1.0  0.9909747009876071  0.555295305782103  0.2481615091248202  1.0000
