data_image0
_chemical_formula_structural       Cu2H28C40N8O8
_chemical_formula_sum              "Cu2 H28 C40 N8 O8"
_cell_length_a       7.2373635478472105
_cell_length_b       10.604993801198287
_cell_length_c       12.127912240588964
_cell_angle_alpha    90.00068913196199
_cell_angle_beta     97.475597576429
_cell_angle_gamma    89.99986185688465

_space_group_name_H-M_alt    "P 1"
_space_group_IT_number       1

loop_
  _space_group_symop_operation_xyz
  'x, y, z'

loop_
  _atom_site_type_symbol
  _atom_site_label
  _atom_site_symmetry_multiplicity
  _atom_site_fract_x
  _atom_site_fract_y
  _atom_site_fract_z
  _atom_site_occupancy
  Cu  Cu1       1.0  0.4999978868843584  0.499998530298555  0.4999972967636879  1.0000
  Cu  Cu2       1.0  0.49999868228231725  6.815425663999983e-07  0.9999964159842847  1.0000
  H   H1        1.0  0.1683824451979774  0.8296855506155578  0.9978119507950965  1.0000
  H   H2        1.0  0.831599302097281  0.3296700109161392  0.5021954369216388  1.0000
  H   H3        1.0  0.8316190582865487  0.17030962405391387  0.002179884023021808  1.0000
  H   H4        1.0  0.1683848939745473  0.6703232779371078  0.4978071374445605  1.0000
  H   H5        1.0  0.6205171151352855  0.8639732524833832  0.2324241930970601  1.0000
  H   H6        1.0  0.3795036295023521  0.36396586361463085  0.2675607101860749  1.0000
  H   H7        1.0  0.379484348919398  0.13603512351953378  0.7675684629444248  1.0000
  H   H8        1.0  0.6205006205680375  0.6360340258197539  0.732432208767655  1.0000
  H   H9        1.0  0.8638521520503487  0.7899710001789516  0.07665055854443642  1.0000
  H   H10       1.0  0.13615487029984044  0.28995199940047206  0.4233586540757485  1.0000
  H   H11       1.0  0.1361573152338735  0.21003171816048655  0.9233502767195106  1.0000
  H   H12       1.0  0.8638316387048659  0.7100450613272429  0.5766540371087174  1.0000
  H   H13       1.0  0.5912449904839789  0.6503500265112976  0.04786367142726532  1.0000
  H   H14       1.0  0.40875568386156386  0.15032999976967423  0.45213355038684  1.0000
  H   H15       1.0  0.4087587470834534  0.3496564636597554  0.9521399225559293  1.0000
  H   H16       1.0  0.5912337294206934  0.8496727186525562  0.5478769403245494  1.0000
  H   H17       1.0  0.6216747063518469  0.42149774816648033  0.09362224392626932  1.0000
  H   H18       1.0  0.37832576729194756  0.921476795962114  0.40637620893448206  1.0000
  H   H19       1.0  0.378324733928963  0.5785096849742999  0.9063834190863743  1.0000
  H   H20       1.0  0.6216794421286945  0.07852686534145902  0.5936258742054861  1.0000
  H   H21       1.0  0.9366702422911782  0.331605365129839  0.15950928169464618  1.0000
  H   H22       1.0  0.06331870690638647  0.8315878387069375  0.34049702060492143  1.0000
  H   H23       1.0  0.06332513724418479  0.6683973532351644  0.840493523396937  1.0000
  H   H24       1.0  0.9366880137914888  0.1684111078195869  0.659502730528402  1.0000
  H   H25       1.0  0.2125547268745152  0.471369542408972  0.18141236204186842  1.0000
  H   H26       1.0  0.7874407278716117  0.9713542350605806  0.31860264797393967  1.0000
  H   H27       1.0  0.7874449499494174  0.5286284611783431  0.818588374000278  1.0000
  H   H28       1.0  0.21255747710348055  0.028638110826307205  0.681399598866477  1.0000
  C   C1        1.0  0.44330744868217653  0.6594742076053848  0.333594837614946  1.0000
  C   C2        1.0  0.556722666483651  0.15946796981624092  0.1664011362449713  1.0000
  C   C3        1.0  0.5567035693013408  0.34052568185538945  0.6664028444989256  1.0000
  C   C4        1.0  0.44327442144464146  0.8405290907917329  0.8335952310678536  1.0000
  C   C5        1.0  0.3805711694741517  0.7293859031476514  0.2294667916113369  1.0000
  C   C6        1.0  0.6194476901459179  0.22937908114825936  0.2705296924258462  1.0000
  C   C7        1.0  0.6194384949262568  0.2706149292598354  0.7705299378755015  1.0000
  C   C8        1.0  0.3805507513640265  0.7706198653689779  0.7294676275290044  1.0000
  C   C9        1.0  0.22182694190185256  0.7212940229893832  0.1487304912932643  1.0000
  C   C10       1.0  0.7781846062251319  0.2212870763674175  0.3512726399812038  1.0000
  C   C11       1.0  0.7781771110538072  0.27870492352098347  0.8512665334225814  1.0000
  C   C12       1.0  0.2218124817026775  0.7787109271925485  0.6487237273366233  1.0000
  C   C13       1.0  0.4873694733617737  0.8289386695396886  0.19400367582214534  1.0000
  C   C14       1.0  0.5126424762842274  0.32893345611608277  0.3059899211797088  1.0000
  C   C15       1.0  0.5126347767076495  0.17106310579866596  0.8059892431415748  1.0000
  C   C16       1.0  0.487354690489667  0.6710645474326925  0.6940048038312696  1.0000
  C   C17       1.0  0.05713454183595699  0.6400766732524588  0.1347338817388675  1.0000
  C   C18       1.0  0.9428683771871603  0.1400620869729607  0.3652749903422432  1.0000
  C   C19       1.0  0.9428750437173931  0.35992604507019627  0.8652644900648099  1.0000
  C   C20       1.0  0.0571240192250571  0.859934030756726  0.634731657524263  1.0000
  C   C21       1.0  0.8810263809828809  0.6896504486529125  0.0951801083261969  1.0000
  C   C22       1.0  0.11897660520113357  0.18963311255872378  0.4048268256144709  1.0000
  C   C23       1.0  0.11898169329616338  0.3103513267348604  0.9048205954541473  1.0000
  C   C24       1.0  0.8810099432271057  0.8103630052114071  0.5951850444115792  1.0000
  C   C25       1.0  0.7260744489017977  0.6105396351696228  0.07970082832974867  1.0000
  C   C26       1.0  0.2739357021424738  0.11052035403977102  0.4203034611943366  1.0000
  C   C27       1.0  0.2739321141004964  0.38946591204321374  0.9203022074522452  1.0000
  C   C28       1.0  0.7260634621814075  0.8894785925722744  0.5797079498473039  1.0000
  C   C29       1.0  0.7439897308086854  0.4823445209854069  0.1043926952451457  1.0000
  C   C30       1.0  0.2560049898113732  0.9823236350825579  0.3956083399563965  1.0000
  C   C31       1.0  0.2560112601709363  0.5176610262286943  0.8956098146224178  1.0000
  C   C32       1.0  0.7439929391980442  0.0176771974114018  0.6043996550029362  1.0000
  C   C33       1.0  0.9195564663535831  0.4321013121481131  0.1419356939592831  1.0000
  C   C34       1.0  0.080439462532361  0.93208305112541  0.3580698672269165  1.0000
  C   C35       1.0  0.0804431316223173  0.5679004632583471  0.8580666844096925  1.0000
  C   C36       1.0  0.9195586241706832  0.06791495249019869  0.6419348431037406  1.0000
  C   C37       1.0  0.07495310938246287  0.5102690893610032  0.1561938275387789  1.0000
  C   C38       1.0  0.9250470786106461  0.010258015107012899  0.3438150483367437  1.0000
  C   C39       1.0  0.9250522183102274  0.48972891421384906  0.8438057921109419  1.0000
  C   C40       1.0  0.07495371525764939  0.9897399885191545  0.6561915672579701  1.0000
  N   N1        1.0  0.24399871170157886  0.813216224633969  0.0733069184635724  1.0000
  N   N2        1.0  0.7559998497978169  0.3132075093551521  0.42670339397648144  1.0000
  N   N3        1.0  0.7560067342612127  0.18677989302011608  0.9266902377158885  1.0000
  N   N4        1.0  0.24399142956905703  0.6867904942396592  0.5732973743474616  1.0000
  N   N5        1.0  0.40439474773436485  0.8786052689838824  0.09955480396632048  1.0000
  N   N6        1.0  0.5956029841136752  0.37859553334953927  0.4004429314641058  1.0000
  N   N7        1.0  0.59560810932939  0.12139650635479171  0.9004379835187919  1.0000
  N   N8        1.0  0.40439123895670537  0.6214024702222575  0.599554815203355  1.0000
  O   O1        1.0  0.6025628266700805  0.6825201534085964  0.3833980066515181  1.0000
  O   O2        1.0  0.39746451814723105  0.18251446019333878  0.1165971273190465  1.0000
  O   O3        1.0  0.39744536587809154  0.31748162196238633  0.6166002336685565  1.0000
  O   O4        1.0  0.6025282330723695  0.8174816574859916  0.8834021301666581  1.0000
  O   O5        1.0  0.33020704819998054  0.5774810997450145  0.3692237591327228  1.0000
  O   O6        1.0  0.669824702195477  0.07747795491987121  0.13076819272572493  1.0000
  O   O7        1.0  0.6698040880521813  0.4225197326509615  0.6307714595258815  1.0000
  O   O8        1.0  0.33017385758213885  0.9225238204365455  0.8692266637838414  1.0000
