data_image0
_chemical_formula_structural       Zn2H22C32N4O8
_chemical_formula_sum              "Zn2 H22 C32 N4 O8"
_cell_length_a       9.559398691506537
_cell_length_b       11.039733850323453
_cell_length_c       15.296756295023174
_cell_angle_alpha    89.64558483387674
_cell_angle_beta     89.96510025636451
_cell_angle_gamma    90.47759654415546

_space_group_name_H-M_alt    "P 1"
_space_group_IT_number       1

loop_
  _space_group_symop_operation_xyz
  'x, y, z'

loop_
  _atom_site_type_symbol
  _atom_site_label
  _atom_site_symmetry_multiplicity
  _atom_site_fract_x
  _atom_site_fract_y
  _atom_site_fract_z
  _atom_site_occupancy
  Zn  Zn1       1.0  0.36078082496779723  0.49473596386120283  0.50043071187131  1.0000
  Zn  Zn2       1.0  0.6420910816306034  0.49530278406634654  0.4994999991640369  1.0000
  H   H1        1.0  0.27966334050994124  0.5565474702838031  0.7752807446377543  1.0000
  H   H2        1.0  0.6981898843922566  0.43208140943811907  0.22433461586503967  1.0000
  H   H3        1.0  0.7055531738097827  0.44348920794885777  0.7790840639819974  1.0000
  H   H4        1.0  0.26824059046310816  0.5340756285405419  0.22117558511232716  1.0000
  H   H5        1.0  0.822099803023164  0.3932506066257205  0.9169190424330721  1.0000
  H   H6        1.0  0.1498170541598682  0.5811206622457376  0.0830002215266319  1.0000
  H   H7        1.0  0.7374097455029582  0.10850710368092818  0.5143562355660335  1.0000
  H   H8        1.0  0.2887067168801849  0.8813865373290708  0.4844530124896663  1.0000
  H   H9        1.0  0.7355257779042433  0.8808003391586396  0.5094180399768291  1.0000
  H   H10       1.0  0.29026545625054456  0.10924224084884322  0.49145091679248754  1.0000
  H   H11       1.0  0.8678979966673238  0.6148622448314355  0.6047416789773548  1.0000
  H   H12       1.0  0.1351302140208475  0.37836459721648913  0.39520596266905267  1.0000
  H   H13       1.0  0.865467018945381  0.3799677807533683  0.3944927604131933  1.0000
  H   H14       1.0  0.1375573265901124  0.6090594590730377  0.6076695166754007  1.0000
  H   H15       1.0  0.8293721908195764  0.3477376379075992  0.15217684840586534  1.0000
  H   H16       1.0  0.0410185491614001  0.28904983169287857  0.09614934245310278  1.0000
  H   H17       1.0  0.016513856037604996  0.376575008677861  0.00028192646170309996  1.0000
  H   H18       1.0  0.9283027204535017  0.2340451714166107  0.011342119322257798  1.0000
  H   H19       1.0  0.14322536893528337  0.6315245569819298  0.8483075835746232  1.0000
  H   H20       1.0  0.932210814710345  0.6898188231938179  0.9046730205336359  1.0000
  H   H21       1.0  0.04340701297623179  0.7418632084093418  0.9911392291922991  1.0000
  H   H22       1.0  0.955082020493364  0.5990758481922143  0.9991475533610268  1.0000
  C   C1        1.0  0.5157138725619959  0.257389258032326  0.5049630090168121  1.0000
  C   C2        1.0  0.5108043250805493  0.7326148637492126  0.4944611917897602  1.0000
  C   C3        1.0  0.7325216846249986  0.4139364172133996  0.044640120283844495  1.0000
  C   C4        1.0  0.24088659685746447  0.5643664218958334  0.955403256360185  1.0000
  C   C5        1.0  0.6397552828792284  0.0577417575249939  0.5080571997586816  1.0000
  C   C6        1.0  0.3861622536761331  0.9322387341537139  0.491476916059696  1.0000
  C   C7        1.0  0.638709349418022  0.9318406254153261  0.5052905847856053  1.0000
  C   C8        1.0  0.38709355482638585  0.05814776718071361  0.4950522014570139  1.0000
  C   C9        1.0  0.5119194263341952  0.8682242877855089  0.4968087999210694  1.0000
  C   C10       1.0  0.5138754217321804  0.1217520809830219  0.5030705063673011  1.0000
  C   C11       1.0  0.9292711269839984  0.5621444153397449  0.558705542751859  1.0000
  C   C12       1.0  0.0735109914112826  0.42940034646683506  0.4420745004410377  1.0000
  C   C13       1.0  0.9279877255501602  0.4312505413601856  0.4411986897044001  1.0000
  C   C14       1.0  0.07478124705840371  0.5593869004671748  0.5601849514222437  1.0000
  C   C15       1.0  0.4846352612747182  0.4825852788153143  0.3281371272468832  1.0000
  C   C16       1.0  0.4939994130151673  0.5045660268968389  0.6718728630953663  1.0000
  C   C17       1.0  0.37030488493142844  0.5329540308991483  0.8148128181809964  1.0000
  C   C18       1.0  0.6059116879243404  0.4514045970523669  0.18506536192901277  1.0000
  C   C19       1.0  0.4926402563210742  0.5026449297095114  0.7697022229145318  1.0000
  C   C20       1.0  0.48363997289831673  0.48082531264978456  0.23034412786255834  1.0000
  C   C21       1.0  0.6119080448348626  0.46768002806059167  0.8155476743184946  1.0000
  C   C22       1.0  0.36234466099951124  0.5111430326568255  0.18468304955854356  1.0000
  C   C23       1.0  0.6110982336226769  0.46056007245044134  0.9072555022368218  1.0000
  C   C24       1.0  0.36215970167719286  0.516933796033463  0.09286571457884209  1.0000
  C   C25       1.0  0.4866208920916363  0.4924881348006665  0.9535514272902288  1.0000
  C   C26       1.0  0.48672731628327165  0.4857080005034007  0.04641695107274298  1.0000
  C   C27       1.0  0.36523637781738927  0.5302251545531361  0.9063816518886652  1.0000
  C   C28       1.0  0.6089782960580904  0.45000993494839037  0.0935165967786133  1.0000
  C   C29       1.0  0.730730267424299  0.4201286311683675  0.9544991791835498  1.0000
  C   C30       1.0  0.24200670801346996  0.5560240865491509  0.04553277857960579  1.0000
  C   C31       1.0  0.9634976363547664  0.3156016367303707  0.04701789494871629  1.0000
  C   C32       1.0  0.008932705068858104  0.6615420799650664  0.9538093518048212  1.0000
  N   N1        1.0  0.1449329727011062  0.4932540493247828  0.5017525903229226  1.0000
  N   N2        1.0  0.8578319392373428  0.4977990194352202  0.4993198365135143  1.0000
  N   N3        1.0  0.8490704247325594  0.3764746790588801  0.09038467450803717  1.0000
  N   N4        1.0  0.12419762136248377  0.6023219857422009  0.9100396780353177  1.0000
  O   O1        1.0  0.3985828277750939  0.31106099372254187  0.5117077470861489  1.0000
  O   O2        1.0  0.6287036223400619  0.6799247365621567  0.5008967466894773  1.0000
  O   O3        1.0  0.39270081402817425  0.6794278595176095  0.4867517995186218  1.0000
  O   O4        1.0  0.6348852182010275  0.30956725723729045  0.4991023795411492  1.0000
  O   O5        1.0  0.36641701105831714  0.47750857167952904  0.3669026769593556  1.0000
  O   O6        1.0  0.6116280326677881  0.4930096706081884  0.633589276699837  1.0000
  O   O7        1.0  0.37644617418835946  0.5166421186658567  0.6331340852588383  1.0000
  O   O8        1.0  0.6032169483911574  0.4898581464978449  0.36614752222214253  1.0000
