data_image0
_chemical_formula_structural       Co4H36C44N12O16
_chemical_formula_sum              "Co4 H36 C44 N12 O16"
_cell_length_a       7.971348273439457
_cell_length_b       12.552157400215481
_cell_length_c       12.8271
_cell_angle_alpha    110.43856494556307
_cell_angle_beta     108.69399921144964
_cell_angle_gamma    89.78254358423152

_space_group_name_H-M_alt    "P 1"
_space_group_IT_number       1

loop_
  _space_group_symop_operation_xyz
  'x, y, z'

loop_
  _atom_site_type_symbol
  _atom_site_label
  _atom_site_symmetry_multiplicity
  _atom_site_fract_x
  _atom_site_fract_y
  _atom_site_fract_z
  _atom_site_occupancy
  Co  Co1       1.0  0.9995267138478781  0.9997650719713178  0.0001089131903882409  1.0000
  Co  Co2       1.0  0.000528384879622506  0.49974034406889695  0.00015251679607794196  1.0000
  Co  Co3       1.0  0.8195740923323528  0.7503741552225662  0.9998190348953033  1.0000
  Co  Co4       1.0  0.18107847361542184  0.2505781335959014  0.0013026042414026155  1.0000
  H   H1        1.0  0.8364506196966701  0.4188665499681932  0.6994033459403326  1.0000
  H   H2        1.0  0.13786231481320504  0.0815736181729463  0.2998250290932276  1.0000
  H   H3        1.0  0.16477149848692826  0.5814021897564601  0.3008364881510631  1.0000
  H   H4        1.0  0.8611542599772264  0.9186437268829976  0.7003165537960288  1.0000
  H   H5        1.0  0.1090717235394862  0.1300978946333728  0.7105122559238952  1.0000
  H   H6        1.0  0.4008261613231881  0.3702514762597175  0.2919932014979879  1.0000
  H   H7        1.0  0.8905035870478956  0.8695463998664792  0.28982856965439674  1.0000
  H   H8        1.0  0.5998745496323467  0.6294330773972945  0.7084093513371813  1.0000
  H   H9        1.0  0.7727872955567181  0.049314897780711  0.548261462299138  1.0000
  H   H10       1.0  0.2242307314683245  0.4510079192002081  0.45093849435060224  1.0000
  H   H11       1.0  0.22713842060895229  0.9506754541551033  0.45195323317827996  1.0000
  H   H12       1.0  0.7760170259982929  0.5488719341978907  0.5491879855059736  1.0000
  H   H13       1.0  0.6075692885685131  0.9601192245301533  0.3297079472785784  1.0000
  H   H14       1.0  0.27615364026726047  0.5398941421524555  0.6687390641971049  1.0000
  H   H15       1.0  0.39211367442496947  0.0400784192361172  0.6704738799023816  1.0000
  H   H16       1.0  0.7242290360102217  0.4602221267216962  0.3313711201298234  1.0000
  H   H17       1.0  0.7855147714631203  0.2604913086118117  0.28587296945462287  1.0000
  H   H18       1.0  0.4995880339717759  0.2395060088006247  0.7150911297519117  1.0000
  H   H19       1.0  0.21453010971853104  0.7397431680003663  0.714566602819602  1.0000
  H   H20       1.0  0.5008127087402485  0.7606984875881437  0.28532332300565616  1.0000
  H   H21       1.0  0.9457787887844662  0.34954028134830395  0.5029638696332273  1.0000
  H   H22       1.0  0.44462044701162995  0.1509898274630714  0.49905191314169184  1.0000
  H   H23       1.0  0.054583937046451994  0.6505057481452852  0.49753464497652544  1.0000
  H   H24       1.0  0.5555744635551322  0.8489953850058711  0.5014001894254465  1.0000
  H   H25       1.0  0.5404869740707169  0.1194232219427747  0.12764198309508862  1.0000
  H   H26       1.0  0.41212978699804376  0.3808259293463366  0.8715833192449554  1.0000
  H   H27       1.0  0.45940936463134835  0.8810613753904519  0.8727716149689544  1.0000
  H   H28       1.0  0.5882485046173545  0.6196441061640883  0.1287334156478226  1.0000
  H   H29       1.0  0.4639062846984104  0.9960672255577947  0.14638596117630703  1.0000
  H   H30       1.0  0.3142563243348064  0.5035581113760728  0.8510920282912624  1.0000
  H   H31       1.0  0.5355837227155149  0.0044884677338075  0.8539382546040954  1.0000
  H   H32       1.0  0.6864725683845451  0.49696588853649365  0.14909001517776233  1.0000
  H   H33       1.0  0.720705399784876  0.2074057553035757  0.9059897213309968  1.0000
  H   H34       1.0  0.8120705575306818  0.2929007866989224  0.0900311117662938  1.0000
  H   H35       1.0  0.28051458333398943  0.793047148650615  0.09197616017100073  1.0000
  H   H36       1.0  0.185280538142969  0.7074381924062932  0.9083647900852656  1.0000
  C   C1        1.0  0.9166327979750977  0.3597327007308593  0.7315845269295453  1.0000
  C   C2        1.0  0.1866944755140665  0.1404582032670447  0.2683813204273591  1.0000
  C   C3        1.0  0.08402686182263613  0.6403287471633377  0.2686470705514808  1.0000
  C   C4        1.0  0.8128411082766365  0.8595629854699993  0.7317599684062872  1.0000
  C   C5        1.0  0.058109676373455016  0.2116526680944588  0.7374069218217799  1.0000
  C   C6        1.0  0.3229097390230252  0.2885802082162243  0.26435357328441006  1.0000
  C   C7        1.0  0.9419522124066051  0.7881689380124327  0.2629206796206065  1.0000
  C   C8        1.0  0.6773296141464727  0.7112413978906673  0.735962599897505  1.0000
  C   C9        1.0  0.8678565303016796  0.20351860519364348  0.5363607365726111  1.0000
  C   C10       1.0  0.3322237584725372  0.2968633156562888  0.4642213190861569  1.0000
  C   C11       1.0  0.1323005094377407  0.7964554717637498  0.4639591796921537  1.0000
  C   C12       1.0  0.6679276217155775  0.70302510351992  0.5360424723238708  1.0000
  C   C13       1.0  0.7779442273181446  0.0927802256846704  0.4888727414864889  1.0000
  C   C14       1.0  0.2887629449269157  0.40746549929318837  0.5107632268326158  1.0000
  C   C15       1.0  0.22202874473528317  0.9072358235855019  0.5113687233432034  1.0000
  C   C16       1.0  0.7114753259588228  0.592476027707356  0.48940426722316493  1.0000
  C   C17       1.0  0.6864264319192444  0.043909891788281606  0.36742111729815724  1.0000
  C   C18       1.0  0.3177305606698084  0.4561302545147469  0.6317328835162996  1.0000
  C   C19       1.0  0.3132975862688099  0.9562877519779889  0.632846067681925  1.0000
  C   C20       1.0  0.6826627345024932  0.5439791617369067  0.3684402217943586  1.0000
  C   C21       1.0  0.6846994072229793  0.1042720736077243  0.29328667155997584  1.0000
  C   C22       1.0  0.3898890284851008  0.3956455820682123  0.7063015886549024  1.0000
  C   C23       1.0  0.31506265734896033  0.8960283594959648  0.7070762292868126  1.0000
  C   C24       1.0  0.6105856918990824  0.6045649103652337  0.2939573565997123  1.0000
  C   C25       1.0  0.7807969466405923  0.2139311650738378  0.34279086978882845  1.0000
  C   C26       1.0  0.43764459469330325  0.2861732245650757  0.6578617529907476  1.0000
  C   C27       1.0  0.2191934731909413  0.7863024549605341  0.6576360028597749  1.0000
  C   C28       1.0  0.5627587782319382  0.7139892995109136  0.3425053581934849  1.0000
  C   C29       1.0  0.8714712601856862  0.2642748128065122  0.464239599077871  1.0000
  C   C30       1.0  0.4080009014690802  0.2360882633315597  0.5369028200721504  1.0000
  C   C31       1.0  0.12872661319835296  0.7358097626885964  0.5361683082048218  1.0000
  C   C32       1.0  0.5921972599857314  0.763914080693624  0.4634544362443409  1.0000
  C   C33       1.0  0.5819845288731785  0.0519351693069936  0.16287101256948944  1.0000
  C   C34       1.0  0.4171217900438364  0.448121251974456  0.8361915595315494  1.0000
  C   C35       1.0  0.41767380342562194  0.9484886110015864  0.8374977846316729  1.0000
  C   C36       1.0  0.5834640881656981  0.5522562731322935  0.16404447687597218  1.0000
  C   C37       1.0  0.6984004651053513  0.9810908190963517  0.09700770687243948  1.0000
  C   C38       1.0  0.6001067190362266  0.5195418533441867  0.9030131649769687  1.0000
  C   C39       1.0  0.3009956121714765  0.0192001916514073  0.903275957720318  1.0000
  C   C40       1.0  0.4006670909069214  0.480730312691712  0.09719935378574723  1.0000
  C   C41       1.0  0.7954947592034858  0.1441192168346603  0.8593853210561095  1.0000
  C   C42       1.0  0.9351845440711559  0.3551688541496105  0.13789568697620788  1.0000
  C   C43       1.0  0.20439513011458396  0.8550402546237166  0.1386509014225653  1.0000
  C   C44       1.0  0.06337073284059612  0.6440343027771647  0.8605289044256283  1.0000
  N   N1        1.0  0.00230610642228162  0.37623295911948423  0.8435558057075031  1.0000
  N   N2        1.0  0.16085816611172285  0.1237326649139163  0.1568017674704762  1.0000
  N   N3        1.0  0.9984988064888614  0.6239030110443338  0.15668029479954287  1.0000
  N   N4        1.0  0.8384670623331232  0.8764152973392713  0.8433464003408917  1.0000
  N   N5        1.0  0.0915709605636366  0.2830629905304463  0.8473905005605007  1.0000
  N   N6        1.0  0.24659366204326016  0.2169685899944653  0.15410857951585655  1.0000
  N   N7        1.0  0.9089190054548058  0.7169068035378884  0.1529233215263234  1.0000
  N   N8        1.0  0.7531695733207543  0.7830448895422747  0.8461705301663615  1.0000
  N   N9        1.0  0.9488616511363477  0.2570375868746524  0.6616750471566917  1.0000
  N   N10       1.0  0.2888075395497225  0.2433280589968589  0.33917718360884663  1.0000
  N   N11       1.0  0.051376811796565384  0.7428491191459371  0.338624994135877  1.0000
  N   N12       1.0  0.7112707051910264  0.7565029694659628  0.661075817091181  1.0000
  O   O1        1.0  0.7340351940384836  0.0975547904076208  0.7497885939689085  1.0000
  O   O2        1.0  0.9846545014788933  0.40135552976164485  0.2474301748619825  1.0000
  O   O3        1.0  0.2643697848282258  0.9009819489815739  0.2482489204990516  1.0000
  O   O4        1.0  0.015345593845729916  0.597344815989608  0.7510441128071933  1.0000
  O   O5        1.0  0.7910289231231076  0.0345115200372561  0.06289603567135062  1.0000
  O   O6        1.0  0.7278351273775814  0.4664537303025114  0.9388543369413329  1.0000
  O   O7        1.0  0.20924955725392647  0.9657186736858634  0.9378115672506626  1.0000
  O   O8        1.0  0.2724625867475936  0.5338150094221419  0.06188274244419035  1.0000
  O   O9        1.0  0.6947187267308905  0.8757617284688735  0.08524353539613844  1.0000
  O   O10       1.0  0.607588346496378  0.624502615512597  0.9133689092851826  1.0000
  O   O11       1.0  0.3042168089603976  0.1244333455639648  0.9145874029653387  1.0000
  O   O12       1.0  0.3931377254226831  0.37569245852024113  0.08643043108087063  1.0000
  O   O13       1.0  0.9455556708861579  0.1270493342011889  0.9282210773002649  1.0000
  O   O14       1.0  0.017547734967912697  0.37191752010365786  0.07046489697088285  1.0000
  O   O15       1.0  0.05371686255300292  0.8716484418166246  0.06966850055244588  1.0000
  O   O16       1.0  0.9812933893517555  0.6269215912531081  0.9277846444882273  1.0000
