data_image0
_chemical_formula_structural       Al2H10C20S2O14
_chemical_formula_sum              "Al2 H10 C20 S2 O14"
_cell_length_a       6.611239335793726
_cell_length_b       11.23082329035317
_cell_length_c       12.749754243434687
_cell_angle_alpha    72.51707066705855
_cell_angle_beta     74.5905083096122
_cell_angle_gamma    70.79482035497163

_space_group_name_H-M_alt    "P 1"
_space_group_IT_number       1

loop_
  _space_group_symop_operation_xyz
  'x, y, z'

loop_
  _atom_site_type_symbol
  _atom_site_label
  _atom_site_symmetry_multiplicity
  _atom_site_fract_x
  _atom_site_fract_y
  _atom_site_fract_z
  _atom_site_occupancy
  Al  Al1       1.0  0.4935247865475177  0.48945182452420255  0.5138176015905742  1.0000
  Al  Al2       1.0  0.9938981411849499  0.4904780280284057  0.5105106979803153  1.0000
  H   H1        1.0  0.2194406975983156  0.3952574597600743  0.6482744154875278  1.0000
  H   H2        1.0  0.6815046362198202  0.6542378223361069  0.44574878325497747  1.0000
  H   H3        1.0  0.23910068347660032  0.511236854254399  0.86423426393862  1.0000
  H   H4        1.0  0.7577353025383148  0.46243604376563485  0.16445080599053347  1.0000
  H   H5        1.0  0.2628137591298412  0.250440067631338  0.35965175671671556  1.0000
  H   H6        1.0  0.4502765068102689  0.7926028455384894  0.34195745673410016  1.0000
  H   H7        1.0  0.7516548590369541  0.7771100937202178  0.5662176401715866  1.0000
  H   H8        1.0  0.5591729639923672  0.2026409160228866  0.5669766649384371  1.0000
  H   H9        1.0  0.5848600523988453  0.2546211551926802  0.239494742348171  1.0000
  H   H10       1.0  0.7646442271979412  0.8253038547586087  0.23082640442930819  1.0000
  C   C1        1.0  0.8801656034574632  0.2648993996308421  0.5009521594690298  1.0000
  C   C2        1.0  0.644811957486887  0.4745101519843188  0.7122842982140725  1.0000
  C   C3        1.0  0.11836414982216326  0.7256666956551356  0.4942764639207482  1.0000
  C   C4        1.0  0.34836877797002336  0.5019493460639239  0.31514815516622713  1.0000
  C   C5        1.0  0.3841325779803243  0.4964342582573167  0.8965898253451884  1.0000
  C   C6        1.0  0.613351263936231  0.475872737368185  0.13194419440922184  1.0000
  C   C7        1.0  0.5905012390593213  0.47667074994157577  0.8311202288371576  1.0000
  C   C8        1.0  0.40603912684319005  0.4962035591794985  0.19715907732165056  1.0000
  C   C9        1.0  0.6057770294013667  0.47569896033458975  0.022468615718182157  1.0000
  C   C10       1.0  0.3922872365193869  0.4959228551292014  0.006036409689158991  1.0000
  C   C11       1.0  0.9410860884540357  0.13417361195719482  0.48117595916813366  1.0000
  C   C12       1.0  0.1527658575740602  0.076591426704482  0.42047788345887943  1.0000
  C   C13       1.0  0.7850600899851514  0.06278148800053171  0.52509672916036  1.0000
  C   C14       1.0  0.3029966853674749  0.1489661032953009  0.3582820806242069  1.0000
  C   C15       1.0  0.49953491517179327  0.0959084626450277  0.29515231964781913  1.0000
  C   C16       1.0  0.05619458492295586  0.8673091725117246  0.47673293595217103  1.0000
  C   C17       1.0  0.8444366867533974  0.9282971731454666  0.5241110240142887  1.0000
  C   C18       1.0  0.20923694729702882  0.942966498378972  0.4172872825795153  1.0000
  C   C19       1.0  0.40976286436566783  0.8916754880409313  0.35062563045082845  1.0000
  C   C20       1.0  0.5542663136987046  0.9642722560650582  0.29122631151498274  1.0000
  S   S1        1.0  0.7949540697436034  0.45663682620931195  0.9020668829825241  1.0000
  S   S2        1.0  0.20224962735770197  0.5151498344778672  0.1261725793362203  1.0000
  O   O1        1.0  0.6744258730974408  0.3167152613692679  0.5352183900803382  1.0000
  O   O2        1.0  0.8459487872923435  0.4566025044559013  0.6654034624420716  1.0000
  O   O3        1.0  0.9653966120534467  0.6671715649740405  0.5199728062773801  1.0000
  O   O4        1.0  0.5051868131091694  0.4798013577276522  0.3646338899125112  1.0000
  O   O5        1.0  0.31902680364923713  0.6636080718682464  0.4864460727890787  1.0000
  O   O6        1.0  0.14592598216307814  0.5279895636565114  0.3589145530040199  1.0000
  O   O7        1.0  0.021682902075553984  0.32435288825397623  0.4889590384182796  1.0000
  O   O8        1.0  0.4861117637749999  0.49133362761937605  0.6654221324214475  1.0000
  O   O9        1.0  0.25068282950670095  0.4239114960046209  0.5673247598124576  1.0000
  O   O10       1.0  0.7307102946541306  0.5601704219140798  0.4610470928774434  1.0000
  O   O11       1.0  0.6875094351358018  0.8676466126409891  0.5761794263537894  1.0000
  O   O12       1.0  0.5789738147766598  0.10823749391793307  0.5745926144899727  1.0000
  O   O13       1.0  0.6460333427146382  0.16450217241429493  0.23357987898161534  1.0000
  O   O14       1.0  0.7491013902099442  0.9159853886555708  0.22636658273936658  1.0000
