data_image0
_chemical_formula_structural       Zn2H24C36N4O12F8
_chemical_formula_sum              "Zn2 H24 C36 N4 O12 F8"
_cell_length_a       8.077601347609304
_cell_length_b       8.077734142232776
_cell_length_c       13.959212972278051
_cell_angle_alpha    78.33345092615713
_cell_angle_beta     78.33284923756051
_cell_angle_gamma    89.63896693817811

_space_group_name_H-M_alt    "P 1"
_space_group_IT_number       1

loop_
  _space_group_symop_operation_xyz
  'x, y, z'

loop_
  _atom_site_type_symbol
  _atom_site_label
  _atom_site_symmetry_multiplicity
  _atom_site_fract_x
  _atom_site_fract_y
  _atom_site_fract_z
  _atom_site_occupancy
  Zn  Zn1       1.0  0.939942992299798  0.0600502297196144  0.7500006852849026  1.0000
  Zn  Zn2       1.0  0.06005394332640182  0.9399500034701095  0.24999916312649614  1.0000
  H   H1        1.0  0.3200457003724467  0.04679955418284722  0.7400279389199866  1.0000
  H   H2        1.0  0.953209740190502  0.6799694368340782  0.7599768649940941  1.0000
  H   H3        1.0  0.6799669975330717  0.9532158504569425  0.25996866267158936  1.0000
  H   H4        1.0  0.0468056432448236  0.3200449037793265  0.24002526210087888  1.0000
  H   H5        1.0  0.5464125395070029  0.8367745569756765  0.7416817660283072  1.0000
  H   H6        1.0  0.1632229931782732  0.4535929330122458  0.7583261178808698  1.0000
  H   H7        1.0  0.4535909492380767  0.16323320018301496  0.2583148453978055  1.0000
  H   H8        1.0  0.8367741337064132  0.5464038403705445  0.24168346587853756  1.0000
  H   H9        1.0  0.7134217296481752  0.6635496351062714  0.6607967200636722  1.0000
  H   H10       1.0  0.3364500377643084  0.2865939128114121  0.8392025028834667  1.0000
  H   H11       1.0  0.28658831304609583  0.3364571276345387  0.33920706226565756  1.0000
  H   H12       1.0  0.6635571622500436  0.7134064545966794  0.16080031311575033  1.0000
  H   H13       1.0  0.9224548253812088  0.43846737680761566  0.665510747688934  1.0000
  H   H14       1.0  0.5615232512627486  0.07754688672328308  0.8344841575840078  1.0000
  H   H15       1.0  0.07755231565663931  0.5615353656775072  0.33448747160497305  1.0000
  H   H16       1.0  0.43848352703751914  0.9224481907855024  0.16551294030310257  1.0000
  H   H17       1.0  0.9698649656331569  0.09229620221893242  0.5639090775762483  1.0000
  H   H18       1.0  0.9076852930525947  0.030151199119060803  0.9360915769466587  1.0000
  H   H19       1.0  0.030158007492715903  0.9076913063331276  0.4360883483898377  1.0000
  H   H20       1.0  0.09230325789224032  0.9698580325915247  0.06391177612277939  1.0000
  H   H21       1.0  0.8486268362873234  0.9293261181509748  0.5866745598984763  1.0000
  H   H22       1.0  0.07065166533345749  0.15138533414659613  0.9133217067293771  1.0000
  H   H23       1.0  0.15138729799532774  0.07065898141498649  0.4133271738692414  1.0000
  H   H24       1.0  0.9293366105082512  0.848621188358955  0.0866770121027258  1.0000
  C   C1        1.0  0.29115949279864145  0.9138114853957761  0.744144825038525  1.0000
  C   C2        1.0  0.08618269047568113  0.7088516697787669  0.7558598000317076  1.0000
  C   C3        1.0  0.7088512748335277  0.0861862167136209  0.2558542920506639  1.0000
  C   C4        1.0  0.9138186629458432  0.29116256981638605  0.24414055436567136  1.0000
  C   C5        1.0  0.41726500073946227  0.7962612082831344  0.7432913796629633  1.0000
  C   C6        1.0  0.20373874210366696  0.5827614760007477  0.7567143878422371  1.0000
  C   C7        1.0  0.5827549065374882  0.2037416377195598  0.2567087739344416  1.0000
  C   C8        1.0  0.7962668424748216  0.41726049817924604  0.24328873336176568  1.0000
  C   C9        1.0  0.3744480293064285  0.625572465433578  0.750001831300068  1.0000
  C   C10       1.0  0.6255725777472492  0.3744456848196408  0.24999985503843186  1.0000
  C   C11       1.0  0.5040377225926633  0.4959522101087472  0.7500019215871774  1.0000
  C   C12       1.0  0.49596682895977307  0.5040456073058693  0.2500008438215886  1.0000
  C   C13       1.0  0.6731752396501208  0.5365059516967964  0.7024531475198116  1.0000
  C   C14       1.0  0.4634820328811174  0.3268363150938142  0.7975457845553606  1.0000
  C   C15       1.0  0.3268333450514476  0.4634969682040833  0.297549880675767  1.0000
  C   C16       1.0  0.536521679570221  0.6731740998656053  0.20245404096306166  1.0000
  C   C17       1.0  0.7911528130957349  0.41057218137765966  0.7036679790664523  1.0000
  C   C18       1.0  0.5894245820225593  0.20885679796435855  0.7963231713494068  1.0000
  C   C19       1.0  0.20885070134778524  0.5894356014831814  0.2963293424321733  1.0000
  C   C20       1.0  0.4105825990426907  0.7911496356470876  0.20367170324908562  1.0000
  C   C21       1.0  0.7323829591360962  0.7975780154988854  0.9300709589932269  1.0000
  C   C22       1.0  0.20241544365736533  0.2676036746731754  0.5699351419783767  1.0000
  C   C23       1.0  0.26758821059678445  0.20240595580327891  0.0699378576554253  1.0000
  C   C24       1.0  0.7975975326038452  0.732388835346903  0.43006077407693505  1.0000
  C   C25       1.0  0.6134648407118916  0.6425617977397665  0.9657787502066739  1.0000
  C   C26       1.0  0.3574318774926227  0.3865259704781893  0.5342202704390431  1.0000
  C   C27       1.0  0.3865129735641517  0.3574334400619961  0.03422490490630282  1.0000
  C   C28       1.0  0.6425710467172366  0.6134727028462593  0.4657711272803197  1.0000
  C   C29       1.0  0.43887777899887953  0.6606577215265831  0.9831559782894245  1.0000
  C   C30       1.0  0.3393386403343045  0.5611086990595241  0.5168529300601179  1.0000
  C   C31       1.0  0.5610959726397766  0.3393336013274252  0.016845115684077403  1.0000
  C   C32       1.0  0.6606666209967573  0.43888491068636876  0.4831388169879247  1.0000
  C   C33       1.0  0.3268023989849596  0.520771103056873  0.016687045265044345  1.0000
  C   C34       1.0  0.4792250948207766  0.6731858203736607  0.4833208899760066  1.0000
  C   C35       1.0  0.6731689792948999  0.4792203790087087  0.9833186323553419  1.0000
  C   C36       1.0  0.5207689829662315  0.3268128704460268  0.5166716389846967  1.0000
  N   N1        1.0  0.12778536138252863  0.8722150900079486  0.7500019938569835  1.0000
  N   N2        1.0  0.872221809143575  0.12778646493865864  0.2499985237895785  1.0000
  N   N3        1.0  0.7512344852911781  0.24876445967260002  0.7499967214876477  1.0000
  N   N4        1.0  0.24877012061764256  0.7512407142925001  0.24999864445777575  1.0000
  O   O1        1.0  0.7542598464960408  0.8629509133202689  0.8374866331177556  1.0000
  O   O2        1.0  0.13704966603765462  0.24573024431888515  0.6625189105805801  1.0000
  O   O3        1.0  0.245717015346024  0.13705194055284411  0.1625168848629031  1.0000
  O   O4        1.0  0.8629535513941207  0.7542735903940924  0.33747465488833944  1.0000
  O   O5        1.0  0.7956187152433145  0.8495262705506762  0.9946488798476594  1.0000
  O   O6        1.0  0.1504694001635727  0.2043593622956763  0.5053623128994502  1.0000
  O   O7        1.0  0.20437403766327122  0.15045897431234317  0.005358441510495007  1.0000
  O   O8        1.0  0.849552701706479  0.7956017172225955  0.4946421942667668  1.0000
  O   O9        1.0  0.8740613305953318  0.026977399727798  0.6138403665231137  1.0000
  O   O10       1.0  0.9730050036548618  0.12593835991425104  0.8861609061107529  1.0000
  O   O11       1.0  0.1259392792322416  0.973019057731186  0.386160211548443  1.0000
  O   O12       1.0  0.026981063557812504  0.8740733546806256  0.11384101375522698  1.0000
  F   F1        1.0  0.37697798010782435  0.8184452182566915  0.9684465437271115  1.0000
  F   F2        1.0  0.18154966939031425  0.6230084731386116  0.5315672673096259  1.0000
  F   F3        1.0  0.6229880089936302  0.18154593967815913  0.031550549374245  1.0000
  F   F4        1.0  0.8184508995795527  0.3769928115808979  0.4684262475688356  1.0000
  F   F5        1.0  0.15811153359555166  0.5440040102921629  0.0324012159981635  1.0000
  F   F6        1.0  0.4560031180178328  0.8418637445885083  0.4676202354727934  1.0000
  F   F7        1.0  0.8418559400273368  0.45598249779791905  0.9676077491979669  1.0000
  F   F8        1.0  0.5439960186577651  0.15813372299322742  0.5323732353444299  1.0000
