data_image0
_chemical_formula_structural       La2H32C18O16
_chemical_formula_sum              "La2 H32 C18 O16"
_cell_length_a       8.950400068068395
_cell_length_b       9.839797168997372
_cell_length_c       10.35220480392519
_cell_angle_alpha    68.65885743880773
_cell_angle_beta     78.19138539639367
_cell_angle_gamma    58.7006844007159

_space_group_name_H-M_alt    "P 1"
_space_group_IT_number       1

loop_
  _space_group_symop_operation_xyz
  'x, y, z'

loop_
  _atom_site_type_symbol
  _atom_site_label
  _atom_site_symmetry_multiplicity
  _atom_site_fract_x
  _atom_site_fract_y
  _atom_site_fract_z
  _atom_site_occupancy
  La  La1       1.0  0.7745693576538668  0.9596084513958302  0.004881231435447942  1.0000
  La  La2       1.0  0.22542132925563144  0.04037633700477271  0.9951244812599  1.0000
  H   H1        1.0  0.6987760361411972  0.8494399510046976  0.5983566862359098  1.0000
  H   H2        1.0  0.30119305954111303  0.15054820715793937  0.40165938943302854  1.0000
  H   H3        1.0  0.4935379036092371  0.026792808950233407  0.6093175198730593  1.0000
  H   H4        1.0  0.5064391363326732  0.9732220358230846  0.3906825275418699  1.0000
  H   H5        1.0  0.36531178201233416  0.8501305416035477  0.7520946900189998  1.0000
  H   H6        1.0  0.6347019692248849  0.14986190064639254  0.24793151546333547  1.0000
  H   H7        1.0  0.4454227758962971  0.8112817743218557  0.592391728817148  1.0000
  H   H8        1.0  0.554544758049161  0.1887217174451621  0.4076337895801315  1.0000
  H   H9        1.0  0.7178736787611227  0.5541885329963492  0.7122127409443308  1.0000
  H   H10       1.0  0.282134500984725  0.4458220461699014  0.28779342928884694  1.0000
  H   H11       1.0  0.6260199541115128  0.5952106539126802  0.8717834727085928  1.0000
  H   H12       1.0  0.3739800600117177  0.404773840234661  0.12822015851580912  1.0000
  H   H13       1.0  0.36902690056540866  0.5754833736357696  0.8451952685571129  1.0000
  H   H14       1.0  0.6309554120880564  0.42450272146608353  0.15484205608257892  1.0000
  H   H15       1.0  0.45066117570730296  0.5390044524817128  0.6838277219447163  1.0000
  H   H16       1.0  0.549353398216965  0.4609954529720284  0.31616290064896185  1.0000
  H   H17       1.0  0.18839761097794386  0.8424469045136648  0.3530633940677532  1.0000
  H   H18       1.0  0.811606354144402  0.1575807089698884  0.6469277829408072  1.0000
  H   H19       1.0  0.06901565950094112  0.7439419961043255  0.4680131964993067  1.0000
  H   H20       1.0  0.9309799641082249  0.2560649691156982  0.5319881105382366  1.0000
  H   H21       1.0  0.9305952681749544  0.12339593080822195  0.35605199515843117  1.0000
  H   H22       1.0  0.06939222080995222  0.8766234838875419  0.6439431824081723  1.0000
  H   H23       1.0  0.8240869843124939  0.019847607563868094  0.48064074886314506  1.0000
  H   H24       1.0  0.1759100363190172  0.9801724042381037  0.5193423353429268  1.0000
  H   H25       1.0  0.7905589491293484  0.6993507007728255  0.25053622150156946  1.0000
  H   H26       1.0  0.20944197537129133  0.3006470546738385  0.7494549834220265  1.0000
  H   H27       1.0  0.6364400815342959  0.7116198934997089  0.18513525723189153  1.0000
  H   H28       1.0  0.36356279117335777  0.2883789391932794  0.8148524195756224  1.0000
  H   H29       1.0  0.1704091947607367  0.6789987734948254  0.029223886006256843  1.0000
  H   H30       1.0  0.8295961773385941  0.32098916710885556  0.9707749574005504  1.0000
  H   H31       1.0  0.055357718991778916  0.5852748653045765  0.07920215513391334  1.0000
  H   H32       1.0  0.9446308214983148  0.4147270001552599  0.9207911837565277  1.0000
  C   C1        1.0  0.6353002248817178  0.8972139997554223  0.793040112670475  1.0000
  C   C2        1.0  0.3647263324712355  0.10278587238222057  0.206957671068281  1.0000
  C   C3        1.0  0.5820900123346958  0.8950252434944092  0.6646167739055286  1.0000
  C   C4        1.0  0.417892029282747  0.10498490111523752  0.33539488623436137  1.0000
  C   C5        1.0  0.48624971762106367  0.7961474974465191  0.6923187576123978  1.0000
  C   C6        1.0  0.513754309584982  0.20383615503898506  0.30769915825256794  1.0000
  C   C7        1.0  0.5934945097558993  0.610567406375985  0.7687367285704952  1.0000
  C   C8        1.0  0.40650304097308515  0.3894098971275639  0.23127357015248862  1.0000
  C   C9        1.0  0.4905982892991999  0.5204180360740054  0.7852138513146656  1.0000
  C   C10       1.0  0.5093767474144857  0.4795698889742752  0.21479959506331875  1.0000
  C   C11       1.0  0.5861178574356671  0.3352778630125215  0.8599125013355576  1.0000
  C   C12       1.0  0.4138784932487313  0.6647116961164983  0.14009083137960943  1.0000
  C   C13       1.0  0.9655943524603785  0.8865318806252915  0.2642102124570513  1.0000
  C   C14       1.0  0.03440629478377837  0.11347087866414542  0.7357812417773246  1.0000
  C   C15       1.0  0.05725556321646518  0.8578839976095834  0.3862313640061146  1.0000
  C   C16       1.0  0.942749181546283  0.1421198458818793  0.6137582154434468  1.0000
  C   C17       1.0  0.952563707433434  0.008708648719704105  0.4418050813977245  1.0000
  C   C18       1.0  0.04743707304726292  0.9913028332472819  0.5581862563748814  1.0000
  O   O1        1.0  0.7865973750189851  0.8760807607766169  0.7980519949165837  1.0000
  O   O2        1.0  0.21343554214224977  0.12392845649745961  0.20193206509141254  1.0000
  O   O3        1.0  0.5240723336875844  0.9259985022998549  0.8936818140075077  1.0000
  O   O4        1.0  0.4759683514500638  0.07399744571147689  0.10632031953790742  1.0000
  O   O5        1.0  0.5711034748417064  0.2350994804598443  0.8184009494768887  1.0000
  O   O6        1.0  0.42890460397434554  0.7648955434289347  0.1815883281660007  1.0000
  O   O7        1.0  0.6794938216535015  0.27775482786111644  0.9649528510600334  1.0000
  O   O8        1.0  0.32052344574804437  0.7222424036957873  0.03503446976729667  1.0000
  O   O9        1.0  0.8527249843119975  0.8398423321152819  0.2812243311901099  1.0000
  O   O10       1.0  0.14728011881472716  0.1601564717471788  0.7187640328602214  1.0000
  O   O11       1.0  0.9963554888397469  0.9673601868974584  0.14186795753465734  1.0000
  O   O12       1.0  0.003649485569894778  0.0326489144182389  0.8581294605104332  1.0000
  O   O13       1.0  0.7595850185306932  0.6911931212066093  0.16904386225596113  1.0000
  O   O14       1.0  0.2404171664274556  0.30880699649437565  0.8309444296348758  1.0000
  O   O15       1.0  0.05848012582217881  0.6852724575227711  0.016845581410414902  1.0000
  O   O16       1.0  0.9415241612740811  0.3147228064360661  0.9831479788546957  1.0000
