data_image0
_chemical_formula_structural       Dy12H124C180O92
_chemical_formula_sum              "Dy12 H124 C180 O92"
_cell_length_a       14.292614589481701
_cell_length_b       14.29252277943756
_cell_length_c       33.06518869672027
_cell_angle_alpha    102.51751326680666
_cell_angle_beta     102.51773754722217
_cell_angle_gamma    90.01007401742557

_space_group_name_H-M_alt    "P 1"
_space_group_IT_number       1

loop_
  _space_group_symop_operation_xyz
  'x, y, z'

loop_
  _atom_site_type_symbol
  _atom_site_label
  _atom_site_symmetry_multiplicity
  _atom_site_fract_x
  _atom_site_fract_y
  _atom_site_fract_z
  _atom_site_occupancy
  Dy  Dy1       1.0  0.03988118743455261  0.538000442703428  0.08207588081023688  1.0000
  Dy  Dy2       1.0  0.46166504426899013  0.9578820466205893  0.9179040580383455  1.0000
  Dy  Dy3       1.0  0.2078861620118956  0.21165885624272107  0.41790675802086236  1.0000
  Dy  Dy4       1.0  0.78799559716942  0.7898782198967497  0.5820761958765032  1.0000
  Dy  Dy5       1.0  0.07524283769357965  0.8347735515042556  0.12380056713331558  1.0000
  Dy  Dy6       1.0  0.047317335268040474  0.289174341868346  0.12335355741517866  1.0000
  Dy  Dy7       1.0  0.16492842888334977  0.9511777105466447  0.876265245636368  1.0000
  Dy  Dy8       1.0  0.710543114891294  0.9240271618959992  0.8765926954471437  1.0000
  Dy  Dy9       1.0  0.20118253283760612  0.9149274661086364  0.37626447507405897  1.0000
  Dy  Dy10      1.0  0.17401675400102318  0.4605413091366372  0.3765893485569548  1.0000
  Dy  Dy11      1.0  0.539170538499384  0.797313559849293  0.6233546764490895  1.0000
  Dy  Dy12      1.0  0.0847646134659212  0.8252283262841046  0.6237976653506363  1.0000
  H   H1        1.0  0.239766980797917  0.9783585082758177  0.12777489940354053  1.0000
  H   H2        1.0  0.8854294203131803  0.15028552057089678  0.12705519357260897  1.0000
  H   H3        1.0  0.023294574679098796  0.11448301788162497  0.873033184324015  1.0000
  H   H4        1.0  0.8504486072475855  0.7601323549577683  0.8725225955244367  1.0000
  H   H5        1.0  0.3644929659490258  0.773295225296131  0.37303873692315637  1.0000
  H   H6        1.0  0.010135998749213013  0.6004450043587962  0.3725235100535257  1.0000
  H   H7        1.0  0.4002775009386069  0.6354257235296359  0.6270625297466025  1.0000
  H   H8        1.0  0.22834438749517702  0.9897638685263815  0.6277683711459189  1.0000
  H   H9        1.0  0.22348303597337343  0.9857334018639461  0.17362201964537852  1.0000
  H   H10       1.0  0.949218506416365  0.18560005037603836  0.17295088011215395  1.0000
  H   H11       1.0  0.013081010995371345  0.05165728969997468  0.8270550719895765  1.0000
  H   H12       1.0  0.8135407250927003  0.777300907131959  0.8266492709927034  1.0000
  H   H13       1.0  0.3016752356427546  0.7630718630447574  0.3270589625481718  1.0000
  H   H14       1.0  0.02730216915504249  0.5635371765669814  0.3266495682053899  1.0000
  H   H15       1.0  0.43561643844856196  0.6992261504254955  0.672955159157979  1.0000
  H   H16       1.0  0.23573397361795384  0.973491156803966  0.6736183697258226  1.0000
  H   H17       1.0  0.2725048866457058  0.7927481976482013  0.15781660323474253  1.0000
  H   H18       1.0  0.8851504030977466  0.3641997248888202  0.15868271936714956  1.0000
  H   H19       1.0  0.2071068868216271  0.11442565267348213  0.8424049226792147  1.0000
  H   H20       1.0  0.635549530344754  0.7263978514546138  0.8412674750590695  1.0000
  H   H21       1.0  0.36443844335441605  0.9571231168341539  0.3424082566561565  1.0000
  H   H22       1.0  0.9763917001709786  0.38553881711681004  0.3412704913928407  1.0000
  H   H23       1.0  0.61419263006551  0.6351517121055466  0.6586851093943621  1.0000
  H   H24       1.0  0.042756707928631905  0.02248600964768599  0.6578162702817564  1.0000
  H   H25       1.0  0.2142052900734299  0.6944469699619518  0.15536755160069046  1.0000
  H   H26       1.0  0.9394166452102584  0.4601914750674538  0.15550602345179235  1.0000
  H   H27       1.0  0.3054544285948137  0.058699720657372674  0.844847298261193  1.0000
  H   H28       1.0  0.5396852194189277  0.7840225318935975  0.8443812238968886  1.0000
  H   H29       1.0  0.3087015255765591  0.05546619205382091  0.3448501081732757  1.0000
  H   H30       1.0  0.034021412055260165  0.28967919664303565  0.34438109712397136  1.0000
  H   H31       1.0  0.7101873132455835  0.6894129478792334  0.6555087955745477  1.0000
  H   H32       1.0  0.944446338374682  0.9641924077915289  0.6553661724251894  1.0000
  H   H33       1.0  0.9531958007277053  0.5393816173384707  0.9939838822670521  1.0000
  H   H34       1.0  0.05675086929565491  0.505336325504146  0.9927469706294543  1.0000
  H   H35       1.0  0.4632770152014985  0.9606900025968984  0.007054281674143693  1.0000
  H   H36       1.0  0.5000851347888897  0.06430406852003759  0.007630985039817495  1.0000
  H   H37       1.0  0.21070614883159772  0.21331136651716054  0.5070701824912617  1.0000
  H   H38       1.0  0.31430876228615295  0.2501488316404732  0.5076412898077436  1.0000
  H   H39       1.0  0.755369848915727  0.8067630286671629  0.49275685874436437  1.0000
  H   H40       1.0  0.7893936133835169  0.7032022441487982  0.49398949103655804  1.0000
  H   H41       1.0  0.8324136235519146  0.7984898358634637  0.9956619810748248  1.0000
  H   H42       1.0  0.1649855478756164  0.19678621944198227  0.9959257838726143  1.0000
  H   H43       1.0  0.201098564680521  0.8347279668858218  0.004383921779663093  1.0000
  H   H44       1.0  0.8019210101479858  0.16725879822038073  0.00413543466949307  1.0000
  H   H45       1.0  0.08473335599258286  0.9510928185132171  0.5043802306797501  1.0000
  H   H46       1.0  0.4172580326224561  0.5519190263519601  0.5041371364919697  1.0000
  H   H47       1.0  0.44680206358987107  0.9149750415305885  0.4959218441131411  1.0000
  H   H48       1.0  0.04847827554620196  0.5824083465719238  0.49566007957302816  1.0000
  H   H49       1.0  0.5259592456373525  0.7671298184266104  0.976728523153774  1.0000
  H   H50       1.0  0.45371300341618304  0.2108215534316997  0.9782285215449275  1.0000
  H   H51       1.0  0.23351346715211463  0.5461281381052386  0.022015225759659515  1.0000
  H   H52       1.0  0.7904033728959023  0.47388670667948657  0.023165200502802484  1.0000
  H   H53       1.0  0.7961225181547817  0.9834901023120038  0.522003236373706  1.0000
  H   H54       1.0  0.723888358709722  0.5404074775336409  0.5231620477701425  1.0000
  H   H55       1.0  0.4608218541979098  0.20370884711179824  0.478225874894825  1.0000
  H   H56       1.0  0.017133339149168515  0.2759542412654666  0.47673076118433494  1.0000
  H   H57       1.0  0.5468707956847396  0.6801060687973716  0.035598327554673376  1.0000
  H   H58       1.0  0.4901262059209088  0.35715210952367465  0.037059507370138085  1.0000
  H   H59       1.0  0.3210118028956259  0.5100885406195274  0.9632019951406788  1.0000
  H   H60       1.0  0.6446933804351358  0.4533497432339074  0.9641949404133141  1.0000
  H   H61       1.0  0.7600703556525089  0.07098405351056411  0.4631862706049858  1.0000
  H   H62       1.0  0.7033425197721214  0.3946963731973909  0.46419133897971676  1.0000
  H   H63       1.0  0.6071534981238286  0.2401227499686058  0.537059601259905  1.0000
  H   H64       1.0  0.9301141629005798  0.29686665443377075  0.5356002048053766  1.0000
  H   H65       1.0  0.6137883636909509  0.5182619020324637  0.04948376326102277  1.0000
  H   H66       1.0  0.43697609617679944  0.5313574475464334  0.0504481084849573  1.0000
  H   H67       1.0  0.48195070459598793  0.5638640464655893  0.9499063337246197  1.0000
  H   H68       1.0  0.46906333458482385  0.3865671025709005  0.9499803320777429  1.0000
  H   H69       1.0  0.8138697368525811  0.2319303013925733  0.4499015813445836  1.0000
  H   H70       1.0  0.6365668319454085  0.2190632776423769  0.4499804690704251  1.0000
  H   H71       1.0  0.7813527601946717  0.1869716859948127  0.5504466127303687  1.0000
  H   H72       1.0  0.768251746040228  0.363778835899673  0.5494792630692301  1.0000
  H   H73       1.0  0.6223460795128943  0.44419128342956765  0.11125628896160578  1.0000
  H   H74       1.0  0.4899816241810556  0.6675446630257298  0.11223212158424187  1.0000
  H   H75       1.0  0.5556572875059657  0.5103501364358322  0.8880341837512515  1.0000
  H   H76       1.0  0.3327796658192667  0.3773894068066284  0.888207504959375  1.0000
  H   H77       1.0  0.7603632129531945  0.3056678294461789  0.3880370311165818  1.0000
  H   H78       1.0  0.6273964203099139  0.08278748217131239  0.3882049046660042  1.0000
  H   H79       1.0  0.9175450004898877  0.2399837425484036  0.6122308381776661  1.0000
  H   H80       1.0  0.6941769955930396  0.37233100403885533  0.6112522427955156  1.0000
  H   H81       1.0  0.7269430825520617  0.5198373329031438  0.18146074120394926  1.0000
  H   H82       1.0  0.45428190719702843  0.6626695175257565  0.18225954814631246  1.0000
  H   H83       1.0  0.47991354797853325  0.5451244046086643  0.8179163373052061  1.0000
  H   H84       1.0  0.3377830258241658  0.27193796572152706  0.8181523209577717  1.0000
  H   H85       1.0  0.7951349183489497  0.22993206049095954  0.317917504450996  1.0000
  H   H86       1.0  0.5219451254741685  0.08779805993970059  0.3181519587397402  1.0000
  H   H87       1.0  0.9126675014212394  0.20428150298127426  0.6822577048990225  1.0000
  H   H88       1.0  0.7698270378735758  0.4769297026126366  0.6814573598823158  1.0000
  H   H89       1.0  0.8101156793040475  0.7481042313658575  0.12830295008582474  1.0000
  H   H90       1.0  0.3175025424134787  0.3813724482353748  0.12888389681695137  1.0000
  H   H91       1.0  0.2525471034715209  0.6824294619169109  0.8714281008251488  1.0000
  H   H92       1.0  0.6196155300729271  0.1895680541914757  0.8713858831932482  1.0000
  H   H93       1.0  0.9324319023063766  0.0025408850236132833  0.371418142987963  1.0000
  H   H94       1.0  0.43956125692727005  0.36961742901034705  0.37138688562602334  1.0000
  H   H95       1.0  0.6313665761492472  0.06751041187406058  0.6288863710183391  1.0000
  H   H96       1.0  0.9980950653460994  0.5601054522785063  0.6283019417867307  1.0000
  H   H97       1.0  0.7451962494100783  0.7075769024909345  0.23929684492281206  1.0000
  H   H98       1.0  0.4932802692938907  0.5320159762711114  0.23977512344414714  1.0000
  H   H99       1.0  0.29254485327925994  0.506091708357985  0.7603241034143478  1.0000
  H   H100      1.0  0.4686324333095086  0.2538067418628173  0.7604642558457683  1.0000
  H   H101      1.0  0.7561007729216556  0.04255623695897977  0.26031981245795777  1.0000
  H   H102      1.0  0.5038163647171316  0.2186366882698465  0.26046606811396333  1.0000
  H   H103      1.0  0.7820223368143002  0.24328877707706192  0.7397754964539727  1.0000
  H   H104      1.0  0.9575690140182758  0.4951844280796891  0.7392950186653449  1.0000
  H   H105      1.0  0.8689737144253726  0.7847954739223367  0.30434533590731405  1.0000
  H   H106      1.0  0.43471683065669  0.5189065797520055  0.3046875851328251  1.0000
  H   H107      1.0  0.21504361311661296  0.5647579767067441  0.6953208852780292  1.0000
  H   H108      1.0  0.4814518657902479  0.13013510428077518  0.6955282742898843  1.0000
  H   H109      1.0  0.8147612900339352  0.9650450246803499  0.19531556235359196  1.0000
  H   H110      1.0  0.3801499770278411  0.23147524353165488  0.1955309962885181  1.0000
  H   H111      1.0  0.7689071502321524  0.18472501975970348  0.8046872417799731  1.0000
  H   H112      1.0  0.0347897447201431  0.6189611631171344  0.8043429429159302  1.0000
  H   H113      1.0  0.08706485728499294  0.7439281469606981  0.23199774893490135  1.0000
  H   H114      1.0  0.14410987978035183  0.4883624156447295  0.23235583307325663  1.0000
  H   H115      1.0  0.25584376470551706  0.855307766767332  0.767841257339654  1.0000
  H   H116      1.0  0.511205279443473  0.9118138571762342  0.7677098303717  1.0000
  H   H117      1.0  0.10531742642394448  0.005853597135413196  0.2678368757684381  1.0000
  H   H118      1.0  0.16181738247013291  0.26123402091427295  0.26770831327571176  1.0000
  H   H119      1.0  0.7383391854025448  0.8941159772614637  0.732354014871582  1.0000
  H   H120      1.0  0.9939333071124636  0.8370636912046477  0.7319987502097616  1.0000
  H   H121      1.0  0.07344617529837189  0.07648586006170181  0.15287025770216187  1.0000
  H   H122      1.0  0.9234963335520093  0.9247229433488611  0.8471906429550626  1.0000
  H   H123      1.0  0.17473881244512054  0.6734892403324932  0.34719043370525066  1.0000
  H   H124      1.0  0.3264848802024004  0.8234809063409188  0.6528659613740188  1.0000
  C   C1        1.0  0.8845357296002947  0.703397620417732  0.05632487217765459  1.0000
  C   C2        1.0  0.1728818993908448  0.3529437969383693  0.056967877529927984  1.0000
  C   C3        1.0  0.2967416270438646  0.8278858429889765  0.9437366461527785  1.0000
  C   C4        1.0  0.6465737745172574  0.11582375760262655  0.9429461390749977  1.0000
  C   C5        1.0  0.07788426693495139  0.046745881394137705  0.4437342486588064  1.0000
  C   C6        1.0  0.36582004214588437  0.39657775057501243  0.44294587985651634  1.0000
  C   C7        1.0  0.6029461284320091  0.9228743802269219  0.5569675485265292  1.0000
  C   C8        1.0  0.9533752346588712  0.6345284488050493  0.5563210551256076  1.0000
  C   C9        1.0  0.7826175561624497  0.7216455365187214  0.036939073736007785  1.0000
  C   C10       1.0  0.2553252096202883  0.31524098138984874  0.037511474979950804  1.0000
  C   C11       1.0  0.278644151300817  0.7448988965918699  0.9629241663657949  1.0000
  C   C12       1.0  0.6845468809671044  0.21745683492572698  0.9626525856681735  1.0000
  C   C13       1.0  0.9948964877170069  0.028637235641646396  0.46292174373056827  1.0000
  C   C14       1.0  0.467455941383406  0.43455345227611997  0.4626495550389364  1.0000
  C   C15       1.0  0.5652481666775131  0.005321618913214391  0.5375103196437863  1.0000
  C   C16       1.0  0.9716342052818305  0.5326197665298906  0.5369362786903337  1.0000
  C   C17       1.0  0.7700603815880882  0.7713977458061976  0.004380903820084801  1.0000
  C   C18       1.0  0.23611195612105015  0.23264779297259247  0.004985606191176792  1.0000
  C   C19       1.0  0.22836202277942136  0.7638235719885813  0.9953384534119534  1.0000
  C   C20       1.0  0.7665619521132284  0.22977603053579534  0.9953898361470761  1.0000
  C   C21       1.0  0.013823333487962816  0.9783476440651171  0.49533344215792136  1.0000
  C   C22       1.0  0.4797757736490738  0.5165618541610824  0.4953891687357127  1.0000
  C   C23       1.0  0.48265724450993014  0.9861037678733239  0.5049824516046896  1.0000
  C   C24       1.0  0.021401825618830965  0.5200576403757039  0.5043819224163427  1.0000
  C   C25       1.0  0.6783749019915817  0.7866876246744852  0.9822322230261447  1.0000
  C   C26       1.0  0.30672014329532254  0.19519843797004907  0.983502543557833  1.0000
  C   C27       1.0  0.21243298621980236  0.6931072841091036  0.016758732416803895  1.0000
  C   C28       1.0  0.8041704661888431  0.3214119643516398  0.01759610861461881  1.0000
  C   C29       1.0  0.9431021802320814  0.9624149096685101  0.5167509252401528  1.0000
  C   C30       1.0  0.5714124644838136  0.5541645513757769  0.5175967800289455  1.0000
  C   C31       1.0  0.4452057413244076  0.05671446385978379  0.4835041175453652  1.0000
  C   C32       1.0  0.03669728330665107  0.42836628150922  0.48223461998375666  1.0000
  C   C33       1.0  0.5974903255255695  0.753872746250728  0.993582809144179  1.0000
  C   C34       1.0  0.3987703491660354  0.24012914224324786  0.9951331563713451  1.0000
  C   C35       1.0  0.24590302512682172  0.6011611703079112  0.005147171298389704  1.0000
  C   C36       1.0  0.7602123114545307  0.40240226479311764  0.006235687200415902  1.0000
  C   C37       1.0  0.8511520356220145  0.9958827244014047  0.5051342398743726  1.0000
  C   C38       1.0  0.6524051860394167  0.510218841106699  0.5062375416123642  1.0000
  C   C39       1.0  0.49013041477197544  0.14876951075108016  0.49513324601075925  1.0000
  C   C40       1.0  0.0038773682606104997  0.3474916564961035  0.493588609430894  1.0000
  C   C41       1.0  0.6098000410533688  0.7043852828287737  0.026208090786759848  1.0000
  C   C42       1.0  0.418109025392944  0.322744029691691  0.027547580069367004  1.0000
  C   C43       1.0  0.296040886100357  0.5820339064540005  0.9727534109353609  1.0000
  C   C44       1.0  0.6781980785262788  0.39031587419587044  0.9735256945028253  1.0000
  C   C45       1.0  0.8320269389314419  0.04602076322843369  0.4727424054223092  1.0000
  C   C46       1.0  0.6403044294244467  0.4282034785456474  0.47352421438277753  1.0000
  C   C47       1.0  0.5727437130315493  0.16810388906313278  0.5275458836115233  1.0000
  C   C48       1.0  0.9543888457669708  0.35979256562750084  0.5262108007942031  1.0000
  C   C49       1.0  0.7015687486288799  0.6870479927151363  0.04843077870742717  1.0000
  C   C50       1.0  0.34774333424781645  0.36185931237205426  0.04932284233084519  1.0000
  C   C51       1.0  0.31337803398346836  0.6525436279706225  0.9510508770657392  1.0000
  C   C52       1.0  0.6386437291381596  0.29859564392159393  0.9511716560276539  1.0000
  C   C53       1.0  0.9025401184142013  0.06336851422592099  0.45104333065019364  1.0000
  C   C54       1.0  0.5485917174030561  0.3886467232799617  0.45117117587039246  1.0000
  C   C55       1.0  0.6118630343400113  0.09774011612625337  0.5493216307417582  1.0000
  C   C56       1.0  0.9370382472292748  0.45156346075113146  0.548430121736608  1.0000
  C   C57       1.0  0.6706693327616761  0.835674405272826  0.9463244794848079  1.0000
  C   C58       1.0  0.2813725228134982  0.10896923736134306  0.947948713060043  1.0000
  C   C59       1.0  0.1616321751445398  0.7182765742452514  0.05223844247377229  1.0000
  C   C60       1.0  0.8892527625625848  0.32898093294652136  0.05344043512577198  1.0000
  C   C61       1.0  0.9682670551282798  0.9116162082042151  0.5522314919743393  1.0000
  C   C62       1.0  0.5789743043168442  0.6392512209007889  0.553442258508042  1.0000
  C   C63       1.0  0.35897975804817867  0.031380646064214084  0.44795236394824656  1.0000
  C   C64       1.0  0.085674075212303  0.4206526639871625  0.4463229653713866  1.0000
  C   C65       1.0  0.7103233838201677  0.639038185744077  0.08450048245791918  1.0000
  C   C66       1.0  0.3743825875042148  0.44628472684546944  0.08530021388188659  1.0000
  C   C67       1.0  0.36153933228025875  0.6259697378937545  0.9150269403391603  1.0000
  C   C68       1.0  0.5545344159277261  0.28974831634486253  0.9150543673738907  1.0000
  C   C69       1.0  0.8759787327910543  0.11153101301048447  0.4150188485016315  1.0000
  C   C70       1.0  0.5397408570712513  0.3045379204754254  0.4150531065210713  1.0000
  C   C71       1.0  0.6962888640460674  0.12438231617174716  0.5853007695527308  1.0000
  C   C72       1.0  0.8890306425036485  0.46031570322347176  0.5844998522533372  1.0000
  C   C73       1.0  0.6582039858436206  0.5529616777689199  0.08030497271253267  1.0000
  C   C74       1.0  0.42270222935825075  0.527945062874913  0.08118281942564208  1.0000
  C   C75       1.0  0.44738231147464086  0.5777384377449052  0.9191395512655018  1.0000
  C   C76       1.0  0.47267346446505304  0.34182664385965467  0.9191972005424487  1.0000
  C   C77       1.0  0.8277519230973738  0.19737597843837304  0.41913545389546397  1.0000
  C   C78       1.0  0.5918296085966545  0.22268293679955056  0.4191988092439232  1.0000
  C   C79       1.0  0.7779439119500041  0.17270659169858496  0.5811826528755261  1.0000
  C   C80       1.0  0.8029529663156082  0.408193895701551  0.5803031723779666  1.0000
  C   C81       1.0  0.663755852076605  0.5108343961226325  0.11502003225496077  1.0000
  C   C82       1.0  0.45173312497989565  0.6049348345964628  0.11589181753627995  1.0000
  C   C83       1.0  0.48927543014539027  0.5484003784925946  0.8843711557216662  1.0000
  C   C84       1.0  0.3956196466456559  0.3358782894063808  0.8844947756896386  1.0000
  C   C85       1.0  0.7984068772892883  0.23928043082501918  0.3843689233529871  1.0000
  C   C86       1.0  0.5858850266155641  0.14563222544304466  0.38449466481487343  1.0000
  C   C87       1.0  0.8549371823017395  0.20173662323595914  0.6158917105343631  1.0000
  C   C88       1.0  0.7608206441898558  0.4137421788237816  0.6150174133451429  1.0000
  C   C89       1.0  0.7215747266835706  0.5534889252917381  0.15446186025165787  1.0000
  C   C90       1.0  0.43268004883178435  0.6020112569008446  0.15522121360939417  1.0000
  C   C91       1.0  0.4465844754504857  0.5670135354362456  0.8449981043443983  1.0000
  C   C92       1.0  0.39859560221903195  0.2775845653484125  0.8451335406416687  1.0000
  C   C93       1.0  0.8170271989244996  0.1965949969507506  0.34499575381183684  1.0000
  C   C94       1.0  0.5275900874286563  0.14860511762791614  0.34513449408522223  1.0000
  C   C95       1.0  0.8520112378660868  0.18268087789908088  0.6552183296539551  1.0000
  C   C96       1.0  0.8034753927808609  0.4715597935701154  0.654458391525459  1.0000
  C   C97       1.0  0.7762129168744495  0.6381459208152904  0.159062417740607  1.0000
  C   C98       1.0  0.38221923718507606  0.5220898282563623  0.15970078607948318  1.0000
  C   C99       1.0  0.36215486208419617  0.617401790756972  0.8405182685202134  1.0000
  C   C100      1.0  0.4786754980715315  0.2229377107207425  0.8405906006654645  1.0000
  C   C101      1.0  0.8674113145762803  0.11215796024615798  0.3405151376774213  1.0000
  C   C102      1.0  0.4729367877693134  0.22868140674562903  0.3405896766337903  1.0000
  C   C103      1.0  0.7720915209821866  0.13222236233588797  0.6596986146457836  1.0000
  C   C104      1.0  0.8881333781075965  0.526202820033518  0.659062693706744  1.0000
  C   C105      1.0  0.7693610699249477  0.6806950889107526  0.12415736765841957  1.0000
  C   C106      1.0  0.3544116196722982  0.44451925402042036  0.12481964995211565  1.0000
  C   C107      1.0  0.3198472373732525  0.6456603477452417  0.8754788816732454  1.0000
  C   C108      1.0  0.5563420466388604  0.23030523233008177  0.875469030778717  1.0000
  C   C109      1.0  0.8956734503840734  0.06984857713110419  0.37547235586897165  1.0000
  C   C110      1.0  0.48029317226695417  0.30633920365330874  0.37546863710141304  1.0000
  C   C111      1.0  0.6945122985024597  0.10441701758832518  0.6248195301697662  1.0000
  C   C112      1.0  0.9306872903395343  0.5193518204840402  0.6241568941528399  1.0000
  C   C113      1.0  0.8466648246265436  0.6802259328543627  0.19896378234779627  1.0000
  C   C114      1.0  0.351430895862869  0.5197614986236302  0.19949797383343076  1.0000
  C   C115      1.0  0.3198665948191743  0.6479619400376959  0.8006782168023461  1.0000
  C   C116      1.0  0.48079906009692036  0.1522954714583022  0.8007214066739505  1.0000
  C   C117      1.0  0.8979736865655781  0.06988178062717758  0.30067515165838893  1.0000
  C   C118      1.0  0.40229693644300824  0.2308148194202956  0.30072231826535756  1.0000
  C   C119      1.0  0.7697675607627089  0.10143598613826298  0.6994965896466708  1.0000
  C   C120      1.0  0.9302207441669168  0.5966529983262419  0.6989634375185431  1.0000
  C   C121      1.0  0.8204965227780505  0.7137963496312807  0.23787269717256268  1.0000
  C   C122      1.0  0.41657023210206034  0.5245301253043948  0.23836326083617368  1.0000
  C   C123      1.0  0.28625352450934105  0.582805254938158  0.761757846715234  1.0000
  C   C124      1.0  0.47596825075417104  0.17849175517709875  0.7618532807687826  1.0000
  C   C125      1.0  0.8328189406202641  0.036265738020958296  0.26175366961367524  1.0000
  C   C126      1.0  0.4285033434964802  0.22598905550471224  0.26185710756702457  1.0000
  C   C127      1.0  0.7745320953327591  0.1665749484687211  0.738361248615419  1.0000
  C   C128      1.0  0.9637894820036121  0.5704861691376735  0.7378734174561784  1.0000
  C   C129      1.0  0.8889309321206795  0.7572221210818312  0.27410174619537736  1.0000
  C   C130      1.0  0.3844448728821206  0.5167645326962926  0.2745004155658605  1.0000
  C   C131      1.0  0.24271207090761462  0.614968092342636  0.7255734507434821  1.0000
  C   C132      1.0  0.4834889823129983  0.11010103026829647  0.7256960197323605  1.0000
  C   C133      1.0  0.8649778506264455  0.9927181597068822  0.22557066834666262  1.0000
  C   C134      1.0  0.3601249711963135  0.23352240398216398  0.22570104323446566  1.0000
  C   C135      1.0  0.7667604392499925  0.13445631227611438  0.7744987881246174  1.0000
  C   C136      1.0  0.007220383648103507  0.6389212812270625  0.7741012667963572  1.0000
  C   C137      1.0  0.9851631353968813  0.7678137014349673  0.2720377447824233  1.0000
  C   C138      1.0  0.28613055636232326  0.5041149770260062  0.272372227261421  1.0000
  C   C139      1.0  0.23211590227695914  0.7132997559897375  0.7277476389532466  1.0000
  C   C140      1.0  0.4958533700902519  0.013845537581694592  0.7277458898587452  1.0000
  C   C141      1.0  0.963307663791177  0.9821168963995743  0.22774419102871235  1.0000
  C   C142      1.0  0.26385916844069607  0.24588885798627297  0.22774761668951266  1.0000
  C   C143      1.0  0.7540997668623393  0.03614413485426129  0.7723695651322159  1.0000
  C   C144      1.0  0.017816354383072053  0.7351524513244739  0.7720385027312345  1.0000
  C   C145      1.0  0.012241229083798436  0.7348857140382847  0.23343827131654385  1.0000
  C   C146      1.0  0.22036893907981178  0.49898135372320945  0.23381308858693464  1.0000
  C   C147      1.0  0.26497914527054406  0.7790413182217218  0.7663622491301465  1.0000
  C   C148      1.0  0.5008385300470976  0.9866597909201005  0.7662698714774477  1.0000
  C   C149      1.0  0.029052140286097445  0.014991385556875497  0.2663623514120416  1.0000
  C   C150      1.0  0.23666979081472309  0.25086310498856784  0.26626954118727747  1.0000
  C   C151      1.0  0.7489684184503387  0.9703763691798953  0.7338125060148071  1.0000
  C   C152      1.0  0.9848873036347282  0.7622323858768496  0.7334395581776858  1.0000
  C   C153      1.0  0.9439531350502152  0.690620116421158  0.19738562003209378  1.0000
  C   C154      1.0  0.25251315245503747  0.5077147660120785  0.19782733228437613  1.0000
  C   C155      1.0  0.30934405845250956  0.7468382019843816  0.8023712164718118  1.0000
  C   C156      1.0  0.492380089708682  0.05496709496997448  0.8022993898222379  1.0000
  C   C157      1.0  0.9968474958448043  0.05936201684482967  0.3023681678466871  1.0000
  C   C158      1.0  0.30496913892063293  0.24239629802260504  0.3023001916385509  1.0000
  C   C159      1.0  0.7577064914822316  0.0025199575136482986  0.6978268497365787  1.0000
  C   C160      1.0  0.940612900614056  0.6939407311911624  0.6973872128377037  1.0000
  C   C161      1.0  0.059039136507010335  0.815135273554958  0.31033569086175555  1.0000
  C   C162      1.0  0.2505300162816866  0.4944199934228307  0.3105755832127953  1.0000
  C   C163      1.0  0.18472710977889045  0.7490282957703299  0.6895600002633272  1.0000
  C   C164      1.0  0.5055050535505713  0.940103464659529  0.689492393888109  1.0000
  C   C165      1.0  0.9990388895377933  0.9347258871954692  0.18955891873856953  1.0000
  C   C166      1.0  0.19011683852644984  0.2555311897484174  0.18949329946155297  1.0000
  C   C167      1.0  0.7444086563723713  0.0005399179807099904  0.8105715370583578  1.0000
  C   C168      1.0  0.06513439564288583  0.8090320929633846  0.810337497861205  1.0000
  C   C169      1.0  0.976468939025608  0.648952776932319  0.15770340268390018  1.0000
  C   C170      1.0  0.1801947799379349  0.5094538171271309  0.15810846821582908  1.0000
  C   C171      1.0  0.3509215321362118  0.8189169321809899  0.8421538175313754  1.0000
  C   C172      1.0  0.4904667757049735  0.02226943138804669  0.8419560239207227  1.0000
  C   C173      1.0  0.0689238055708116  0.10092857910161261  0.34215386821045257  1.0000
  C   C174      1.0  0.27227274395633577  0.24047651580079318  0.3419563622673961  1.0000
  C   C175      1.0  0.7594539381850965  0.9301887239956411  0.6581097697601023  1.0000
  C   C176      1.0  0.8989416239325863  0.7264611300760033  0.6577043978240622  1.0000
  C   C177      1.0  0.05851399825602498  0.05876965795753359  0.11738964061179047  1.0000
  C   C178      1.0  0.9411395021134225  0.9419920509993815  0.882691122708266  1.0000
  C   C179      1.0  0.191995491122391  0.6911293462637359  0.3826909275233702  1.0000
  C   C180      1.0  0.3087828154694136  0.808513831776672  0.6173862403834106  1.0000
  O   O1        1.0  0.9437251383191311  0.7749421554566708  0.07018455394938876  1.0000
  O   O2        1.0  0.1261228153268448  0.29459587362413936  0.06989429701830119  1.0000
  O   O3        1.0  0.22490558389942794  0.8727152544754019  0.9298431349344509  1.0000
  O   O4        1.0  0.7047099153121578  0.05587330598279997  0.9299941893868747  1.0000
  O   O5        1.0  0.12271742639755692  0.9748992673506862  0.42984085425029406  1.0000
  O   O6        1.0  0.3058658028006818  0.4547099889842484  0.42998938242799056  1.0000
  O   O7        1.0  0.5446001036739502  0.8761223794909724  0.5698942522240527  1.0000
  O   O8        1.0  0.024930173373668638  0.6937296257538179  0.570181776767498  1.0000
  O   O9        1.0  0.905176114969656  0.6160219872173157  0.055476097813219376  1.0000
  O   O10       1.0  0.15410312658877962  0.4404415748615804  0.05765831676684739  1.0000
  O   O11       1.0  0.3840342999050746  0.8496958600254771  0.9446853156278718  1.0000
  O   O12       1.0  0.5589877092864625  0.09628798088011334  0.942185976715521  1.0000
  O   O13       1.0  0.09968747665072172  0.13403666539285547  0.4446854095204883  1.0000
  O   O14       1.0  0.3462830118404838  0.30899352501423044  0.44218499665448247  1.0000
  O   O15       1.0  0.6904505935300448  0.9041015123616984  0.557662040173568  1.0000
  O   O16       1.0  0.8660096637565289  0.6551675917966191  0.555472243938368  1.0000
  O   O17       1.0  0.7433771732418889  0.8381692442573364  0.9301871694033605  1.0000
  O   O18       1.0  0.19338042252935111  0.08994545142937939  0.9300921806478467  1.0000
  O   O19       1.0  0.16070879887954706  0.8062084250020118  0.07019285302055778  1.0000
  O   O20       1.0  0.9080936424133838  0.2563049500733001  0.0695771939249781  1.0000
  O   O21       1.0  0.05619939865299965  0.9106980010068071  0.5701895621086733  1.0000
  O   O22       1.0  0.5063083475315435  0.6580934970281334  0.5695803483987516  1.0000
  O   O23       1.0  0.3399479123477391  0.9433895346504285  0.430089709100855  1.0000
  O   O24       1.0  0.08815862680083329  0.493358844452217  0.4301812550962722  1.0000
  O   O25       1.0  0.5922630187113356  0.8726780341865632  0.9319288658089419  1.0000
  O   O26       1.0  0.34811478765341525  0.057400704805012  0.9363809029035436  1.0000
  O   O27       1.0  0.1213725090259246  0.651410978994164  0.06359730715513479  1.0000
  O   O28       1.0  0.9408814004613646  0.4073604366110644  0.06777971330068767  1.0000
  O   O29       1.0  0.9014013187854815  0.8713607157248048  0.5635877789398549  1.0000
  O   O30       1.0  0.6573614210034575  0.6908749554865138  0.5677823444768746  1.0000
  O   O31       1.0  0.30741980024890125  0.09812804943811669  0.43638545929603356  1.0000
  O   O32       1.0  0.1226700793268946  0.34224550844293594  0.43192855496037896  1.0000
  O   O33       1.0  0.034248880202852716  0.8562917862799536  0.3443044713031753  1.0000
  O   O34       1.0  0.30926637313223887  0.4867425462268429  0.3444491634947154  1.0000
  O   O35       1.0  0.14363929353751098  0.6903536395712491  0.6555370730098814  1.0000
  O   O36       1.0  0.5133532484155551  0.9650698641295746  0.6556781555197658  1.0000
  O   O37       1.0  0.9403666140371384  0.8936400460235345  0.15553565752032475  1.0000
  O   O38       1.0  0.21508431215718815  0.2633700466067097  0.15567599750295355  1.0000
  O   O39       1.0  0.7367340780980314  0.05927781838818896  0.8444461385837341  1.0000
  O   O40       1.0  0.10629576736644683  0.7842465494467561  0.8443041566303717  1.0000
  O   O41       1.0  0.1481100631203986  0.8139586524232667  0.30818637577625196  1.0000
  O   O42       1.0  0.15931173739200927  0.4933680189251247  0.3084045675879209  1.0000
  O   O43       1.0  0.18567344204111413  0.8403300600423336  0.6918533921753177  1.0000
  O   O44       1.0  0.5063923203332265  0.8510079149903544  0.6915427032896629  1.0000
  O   O45       1.0  0.09033962401924357  0.9356757750738321  0.19185524478388058  1.0000
  O   O46       1.0  0.10102076462221277  0.25640936398351494  0.19154464940840643  1.0000
  O   O47       1.0  0.7433589326139083  0.9093239888528328  0.8084009531058454  1.0000
  O   O48       1.0  0.06395658229747161  0.8981017366981447  0.8081848216454545  1.0000
  O   O49       1.0  0.026756985438872467  0.6998055586162552  0.14234660978879524  1.0000
  O   O50       1.0  0.11461642661190297  0.44300750868676175  0.14275645762790387  1.0000
  O   O51       1.0  0.29996650672472197  0.8843218161031101  0.8576439206183152  1.0000
  O   O52       1.0  0.5567264221534811  0.9718096339113628  0.8572062455989096  1.0000
  O   O53       1.0  0.13432035415924998  0.04996733624557239  0.3576450218138517  1.0000
  O   O54       1.0  0.22180044202553964  0.30673056840777235  0.35720106580499317  1.0000
  O   O55       1.0  0.6930060017681823  0.8646187589694847  0.6427587095770304  1.0000
  O   O56       1.0  0.9497986868167415  0.7767458048560055  0.6423443422310624  1.0000
  O   O57       1.0  0.9571882527598135  0.5607398140514164  0.13984595515474743  1.0000
  O   O58       1.0  0.18109443885871457  0.579412412270557  0.14001187227763268  1.0000
  O   O59       1.0  0.43911192481594696  0.8175096618347765  0.8600080731691903  1.0000
  O   O60       1.0  0.42047862599520847  0.04123981111357719  0.8600433479376262  1.0000
  O   O61       1.0  0.06751475479729402  0.1891148992379001  0.3600101472215157  1.0000
  O   O62       1.0  0.2912443987383354  0.17048721585522483  0.3600423753658503  1.0000
  O   O63       1.0  0.829418673763463  0.9310860383969624  0.6400152783636839  1.0000
  O   O64       1.0  0.8107338624255147  0.7071762770672407  0.6398494898723894  1.0000
  O   O65       1.0  0.05194883588621477  0.9710910966450824  0.09895477842075445  1.0000
  O   O66       1.0  0.04989619243126947  0.12783111310240255  0.09894568330620497  1.0000
  O   O67       1.0  0.028828819693230995  0.9516329887775327  0.9012078559150819  1.0000
  O   O68       1.0  0.8719978822309075  0.9501817502358276  0.9010813344261093  1.0000
  O   O69       1.0  0.2016371313816164  0.7788319946833012  0.4012057217911361  1.0000
  O   O70       1.0  0.2001611875215444  0.622003741113339  0.4010834178421589  1.0000
  O   O71       1.0  0.37782846228372335  0.7998998177163587  0.598945750496476  1.0000
  O   O72       1.0  0.22107923808594165  0.8019364222868216  0.5989480746307335  1.0000
  O   O73       1.0  0.23872440341057197  0.9414390200792438  0.14921311338795817  1.0000
  O   O74       1.0  0.9104383786678625  0.20738939959972666  0.14889186637286397  1.0000
  O   O75       1.0  0.059000550910660234  0.08960991158200932  0.8513720372967197  1.0000
  O   O76       1.0  0.7927747671600612  0.7613881153830417  0.8507166614450197  1.0000
  O   O77       1.0  0.33963034101333284  0.8089956869135833  0.3513731719329485  1.0000
  O   O78       1.0  0.011381123871245704  0.5427706084713648  0.35071659040482916  1.0000
  O   O79       1.0  0.45738924672398446  0.660437968557339  0.648892754658945  1.0000
  O   O80       1.0  0.19143543546905303  0.9887240911454852  0.6492104965418547  1.0000
  O   O81       1.0  0.21251131307512586  0.7659171444459004  0.16074199655169955  1.0000
  O   O82       1.0  0.9475845832618647  0.3945938867177644  0.16122599561276013  1.0000
  O   O83       1.0  0.23398663579279563  0.0515276976762351  0.8394916851033043  1.0000
  O   O84       1.0  0.6052559933710738  0.7862769907581465  0.8386262584620636  1.0000
  O   O85       1.0  0.30153855417362496  0.983997805919081  0.33949539289915964  1.0000
  O   O86       1.0  0.03626721595711757  0.35525079729742254  0.33862466365560095  1.0000
  O   O87       1.0  0.644587130623094  0.6975823637862104  0.6612247587562122  1.0000
  O   O88       1.0  0.015920632648984794  0.9624950213418867  0.660743570422454  1.0000
  O   O89       1.0  0.9991744639478954  0.49298125194218306  0.0024538656425576815  1.0000
  O   O90       1.0  0.5090719459172561  0.9963632686990989  0.9974308162189017  1.0000
  O   O91       1.0  0.24636439613919942  0.25910124534328816  0.4974353145372489  1.0000
  O   O92       1.0  0.7429891814171227  0.7491821095517609  0.5024548325691923  1.0000
