data_image0
_chemical_formula_structural       Zn4H18C24N10Cl4O2
_chemical_formula_sum              "Zn4 H18 C24 N10 Cl4 O2"
_cell_length_a       7.245173745153063
_cell_length_b       7.245167748855071
_cell_length_c       15.637810414542919
_cell_angle_alpha    79.77166481278809
_cell_angle_beta     79.77178002042216
_cell_angle_gamma    64.83359274349054

_space_group_name_H-M_alt    "P 1"
_space_group_IT_number       1

loop_
  _space_group_symop_operation_xyz
  'x, y, z'

loop_
  _atom_site_type_symbol
  _atom_site_label
  _atom_site_symmetry_multiplicity
  _atom_site_fract_x
  _atom_site_fract_y
  _atom_site_fract_z
  _atom_site_occupancy
  Zn  Zn1       1.0  0.7303061326614327  0.3835363735710047  0.3352503360840942  1.0000
  Zn  Zn2       1.0  0.616465806084669  0.269693086027509  0.164749546594841  1.0000
  Zn  Zn3       1.0  0.26969268621396475  0.616464557981715  0.6647495864078012  1.0000
  Zn  Zn4       1.0  0.3835364419596346  0.7303063117647143  0.835250222449858  1.0000
  H   H1        1.0  0.9370025776194169  0.0629957931421998  0.2500005622769166  1.0000
  H   H2        1.0  0.06299608552328818  0.9370020646803782  0.7500002611455728  1.0000
  H   H3        1.0  0.7486233728926525  0.9635460590039813  0.3928347125984645  1.0000
  H   H4        1.0  0.03645218532103912  0.25137750199285597  0.1071663934330687  1.0000
  H   H5        1.0  0.2513787222881732  0.03645026792951001  0.607165317432596  1.0000
  H   H6        1.0  0.9635460059967542  0.7486249617840387  0.8928340952979497  1.0000
  H   H7        1.0  0.7946524574709175  0.7214713357075481  0.5306012357309201  1.0000
  H   H8        1.0  0.27852996841143357  0.2053453033578663  0.9694001071440612  1.0000
  H   H9        1.0  0.20535258931546002  0.2785280576769368  0.4693995860499456  1.0000
  H   H10       1.0  0.7214714992117875  0.7946525557998075  0.03060048912612252  1.0000
  H   H11       1.0  0.7669915903818919  0.8543361219228914  0.6728535526086574  1.0000
  H   H12       1.0  0.14567044226159714  0.23300159952534472  0.827147665853346  1.0000
  H   H13       1.0  0.23300675379938707  0.14566941271272776  0.3271466751360066  1.0000
  H   H14       1.0  0.8543336741094337  0.7669931872372828  0.1728536041951259  1.0000
  H   H15       1.0  0.6842747294201104  0.4408029996643351  0.5242175399688378  1.0000
  H   H16       1.0  0.5591976719515941  0.31572597559930676  0.9757817701154679  1.0000
  H   H17       1.0  0.3157192637845725  0.5591994707241598  0.47578136965794476  1.0000
  H   H18       1.0  0.44080317672168  0.6842734243967855  0.024217472561147715  1.0000
  C   C1        1.0  0.740036779067978  0.014620380923759104  0.45555297003450324  1.0000
  C   C2        1.0  0.9853828250156912  0.25996183014365937  0.04444640128994592  1.0000
  C   C3        1.0  0.25996422533798863  0.9853820928024745  0.5444453717115181  1.0000
  C   C4        1.0  0.014619425897826973  0.7400375705199737  0.9555527278105204  1.0000
  C   C5        1.0  0.7634915719143648  0.88149999049341  0.5327667179477517  1.0000
  C   C6        1.0  0.1184982324799932  0.23650642535293542  0.9672341340165005  1.0000
  C   C7        1.0  0.2365119226374972  0.11849633423621242  0.467233838451385  1.0000
  C   C8        1.0  0.8815012053453589  0.7634929653613655  0.032767142068962626  1.0000
  C   C9        1.0  0.7509561320615319  0.9543663765605289  0.6111177227328498  1.0000
  C   C10       1.0  0.045635492551490124  0.2490424686746024  0.8888827486842106  1.0000
  C   C11       1.0  0.24904330002537733  0.045633008410945294  0.3888848332410789  1.0000
  C   C12       1.0  0.9543659808101667  0.7509553962258979  0.11111656769750772  1.0000
  C   C13       1.0  0.7154401097902651  0.16084464487111924  0.6097953767960576  1.0000
  C   C14       1.0  0.8391561207410021  0.2845606865317407  0.8902046907692522  1.0000
  C   C15       1.0  0.2845587090851326  0.839156286681593  0.3902045456958377  1.0000
  C   C16       1.0  0.16084409750543935  0.7154402428171096  0.1097957580907263  1.0000
  C   C17       1.0  0.6993538717308354  0.2830986969238439  0.5293802847403839  1.0000
  C   C18       1.0  0.7169056273719292  0.30064570745640407  0.9706195341197273  1.0000
  C   C19       1.0  0.3006430759486207  0.7169068427870613  0.4706187766919712  1.0000
  C   C20       1.0  0.28309802291263275  0.699353691003367  0.02938012134882228  1.0000
  C   C21       1.0  0.6983427919196643  0.24915514160338156  0.6896090670555353  1.0000
  C   C22       1.0  0.7508452892675666  0.30165694363046924  0.8103904289472297  1.0000
  C   C23       1.0  0.30165540513657163  0.7508473279163469  0.31039014178702473  1.0000
  C   C24       1.0  0.2491541600346709  0.6983424585694918  0.18960828736130253  1.0000
  N   N1        1.0  0.7102548108115914  0.21188518180265697  0.4540998514760375  1.0000
  N   N2        1.0  0.7881155550845591  0.28974418742527774  0.045900230661189284  1.0000
  N   N3        1.0  0.2897418340101298  0.7881142190622086  0.5458990919848006  1.0000
  N   N4        1.0  0.21188388847923542  0.7102552090318495  0.9540997655358154  1.0000
  N   N5        1.0  0.8323363549786009  0.16766507013322499  0.749999685422587  1.0000
  N   N6        1.0  0.16766589593491693  0.8323343305304153  0.24999944367787927  1.0000
  N   N7        1.0  0.5420764161635604  0.4252256127954582  0.7109323167205235  1.0000
  N   N8        1.0  0.5747752892529051  0.45792221103904046  0.7890683677541404  1.0000
  N   N9        1.0  0.457920997602372  0.5747753152183037  0.2890683592917541  1.0000
  N   N10       1.0  0.42522617837031623  0.5420756481186261  0.21093222851604312  1.0000
  Cl  Cl1       1.0  0.8970049175694683  0.566021163618295  0.354709359225673  1.0000
  Cl  Cl2       1.0  0.433980739412398  0.10299229184102643  0.1452919807261139  1.0000
  Cl  Cl3       1.0  0.10299311801562532  0.43397822642845807  0.6452920304359395  1.0000
  Cl  Cl4       1.0  0.5660227551394643  0.8970040328886032  0.8547085756730226  1.0000
  O   O1        1.0  0.8086609336761015  0.19133807449724577  0.2500004558082409  1.0000
  O   O2        1.0  0.19133710477821358  0.8086613184209243  0.750000293909146  1.0000
