data_image0
_chemical_formula_structural       Mn6H6C18N18Cl6
_chemical_formula_sum              "Mn6 H6 C18 N18 Cl6"
_cell_length_a       8.313074296346322
_cell_length_b       14.917617512539076
_cell_length_c       14.91760242797129
_cell_angle_alpha    116.62976837308788
_cell_angle_beta     100.71066250942515
_cell_angle_gamma    100.71050706424491

_space_group_name_H-M_alt    "P 1"
_space_group_IT_number       1

loop_
  _space_group_symop_operation_xyz
  'x, y, z'

loop_
  _atom_site_type_symbol
  _atom_site_label
  _atom_site_symmetry_multiplicity
  _atom_site_fract_x
  _atom_site_fract_y
  _atom_site_fract_z
  _atom_site_occupancy
  Mn  Mn1       1.0  0.2882370425390945  0.5765080783543226  0.2882315116957627  1.0000
  Mn  Mn2       1.0  2.82128956988921e-06  0.7117461101704662  0.2882499057854844  1.0000
  Mn  Mn3       1.0  0.7117736012511383  0.7117715563952343  0.4234933598437393  1.0000
  Mn  Mn4       1.0  0.7117640503985214  0.4234934915809845  0.7117697701694469  1.0000
  Mn  Mn5       1.0  0.9999970914300745  0.2882530963794139  0.7117495241855921  1.0000
  Mn  Mn6       1.0  0.2882267054657531  0.28822843794816316  0.5765064640364558  1.0000
  H   H1        1.0  0.19840721261545002  0.41997638269474885  0.999970878739781  1.0000
  H   H2        1.0  0.19840501369986166  0.9999640082821697  0.41997317459406247  1.0000
  H   H3        1.0  0.7784375856497333  0.5799463085640824  0.5799420742567208  1.0000
  H   H4        1.0  0.8015922144243673  0.5800267627074688  3.29458458025231e-05  1.0000
  H   H5        1.0  0.22156473866846932  0.4200552614190867  0.42005665474046333  1.0000
  H   H6        1.0  0.8015929272597547  3.1259305004e-05  0.5800249559982263  1.0000
  C   C1        1.0  0.4619387408739755  0.5229611331148051  0.09211388037298454  1.0000
  C   C2        1.0  0.3698204445296653  0.9078713528600845  0.43086217448637865  1.0000
  C   C3        1.0  0.9389519823960271  0.5691184883830687  0.47698703526491937  1.0000
  C   C4        1.0  0.6301801627095428  0.569138264773791  0.09212498203097405  1.0000
  C   C5        1.0  0.0610518591240278  0.523012794884849  0.4308826483344035  1.0000
  C   C6        1.0  0.5380634410044677  0.9078887025818502  0.4770413338339806  1.0000
  C   C7        1.0  0.5380615200016265  0.4770412245515202  0.9078883377690233  1.0000
  C   C8        1.0  0.6301807259003169  0.0921254904684048  0.5691396801895011  1.0000
  C   C9        1.0  0.061048282027130044  0.43088386927349376  0.5230138425435129  1.0000
  C   C10       1.0  0.3698184375896004  0.4308656683448078  0.9078777683310477  1.0000
  C   C11       1.0  0.9389516877058813  0.47698877517058247  0.5691168786286626  1.0000
  C   C12       1.0  0.4619348516586684  0.09210971611201299  0.5229582445956639  1.0000
  C   C13       1.0  0.32670999004422885  0.45267104041509737  0.9999788848798802  1.0000
  C   C14       1.0  0.3267055054567222  0.999975939450131  0.45266691678575194  1.0000
  C   C15       1.0  0.8739807186026455  0.5472288923987847  0.5472255570166171  1.0000
  C   C16       1.0  0.6732886084811298  0.5473328927083827  2.4535648925915734e-05  1.0000
  C   C17       1.0  0.12602160571555734  0.4527726775843917  0.45277317198056016  1.0000
  C   C18       1.0  0.673291168923683  2.169138283390001e-05  0.5473321399356692  1.0000
  N   N1        1.0  0.4683574742099878  0.56187411286389  0.19597569882993326  1.0000
  N   N2        1.0  0.27238230073400144  0.8039958491684087  0.365884106772917  1.0000
  N   N3        1.0  0.9064768818831791  0.6340869155459001  0.43809453650068525  1.0000
  N   N4        1.0  0.7276169613155616  0.6341140134576689  0.19600085902408892  1.0000
  N   N5        1.0  0.09353041554329872  0.5619038775804339  0.365913165977922  1.0000
  N   N6        1.0  0.5316486077387381  0.8040254214106995  0.43812642642268435  1.0000
  N   N7        1.0  0.5316411666091055  0.43812745694641814  0.8040266677706358  1.0000
  N   N8        1.0  0.727616426446339  0.19600099401068147  0.6341154818043863  1.0000
  N   N9        1.0  0.09352342838126755  0.36591307878773444  0.5619039470459413  1.0000
  N   N10       1.0  0.2723825097917683  0.36588676862650266  0.8040012414664661  1.0000
  N   N11       1.0  0.9064719070011266  0.43809769240761637  0.6340862331860393  1.0000
  N   N12       1.0  0.4683513455008637  0.19597142183089025  0.5618726197869393  1.0000
  N   N13       1.0  0.6267558724702695  0.6267740485539619  0.25352775417685797  1.0000
  N   N14       1.0  0.37325014433947246  0.7464713790658806  0.37322556220149755  1.0000
  N   N15       1.0  3.1897420455324353e-06  0.6267645617734914  0.37323340099840874  1.0000
  N   N16       1.0  0.373244822922551  0.37322673359759034  0.7464744741128015  1.0000
  N   N17       1.0  0.626749810673907  0.2535254641708277  0.626772813841349  1.0000
  N   N18       1.0  0.999996290234165  0.37323622028628  0.6267653486582319  1.0000
  Cl  Cl1       1.0  0.500004712528458  0.5744605722691601  0.4255431338520523  1.0000
  Cl  Cl2       1.0  0.07440564306074991  0.574426758723547  0.14886090100065988  1.0000
  Cl  Cl3       1.0  0.9255986608240933  0.851138760358417  0.4255674101964574  1.0000
  Cl  Cl4       1.0  0.49999559241465613  0.4255394220791188  0.5744573601949271  1.0000
  Cl  Cl5       1.0  0.9255930471471884  0.42557244775407815  0.8511377310045276  1.0000
  Cl  Cl6       1.0  0.0744028737258304  0.1488612340425988  0.5744312011492739  1.0000
