data_image0
_chemical_formula_structural       CoH18C14Br4N2O8
_chemical_formula_sum              "Co1 H18 C14 Br4 N2 O8"
_cell_length_a       8.386927021697092
_cell_length_b       9.159790928828551
_cell_length_c       9.787951307365136
_cell_angle_alpha    78.41269744616429
_cell_angle_beta     75.30638791660382
_cell_angle_gamma    91.56505367631765

_space_group_name_H-M_alt    "P 1"
_space_group_IT_number       1

loop_
  _space_group_symop_operation_xyz
  'x, y, z'

loop_
  _atom_site_type_symbol
  _atom_site_label
  _atom_site_symmetry_multiplicity
  _atom_site_fract_x
  _atom_site_fract_y
  _atom_site_fract_z
  _atom_site_occupancy
  Co  Co1       1.0  0.999999133503806  0.4999979615508893  0.5000052480735846  1.0000
  H   H1        1.0  0.7205529950482087  0.40491761919529523  0.41709913220683603  1.0000
  H   H2        1.0  0.27945129401239643  0.59508384144106  0.5829041427883509  1.0000
  H   H3        1.0  0.8966281563849279  0.4061320847560951  0.3084984586272981  1.0000
  H   H4        1.0  0.10337469387953041  0.5938661027729283  0.6915015845271312  1.0000
  H   H5        1.0  0.1374556980009203  0.758140207008779  0.2537448339332045  1.0000
  H   H6        1.0  0.862545855487383  0.24185680039607863  0.746256711777896  1.0000
  H   H7        1.0  0.8209131182975399  0.923574481079342  0.48713676878536916  1.0000
  H   H8        1.0  0.17909624817737319  0.0764292668444995  0.5128680744287379  1.0000
  H   H9        1.0  0.772486514067019  0.029024337651314604  0.32922914905464756  1.0000
  H   H10       1.0  0.2275229274591055  0.9709804142358677  0.670779600463554  1.0000
  H   H11       1.0  0.9205017546869173  0.10803802765016005  0.4018840785696867  1.0000
  H   H12       1.0  0.0795110521939151  0.8919614390421986  0.598117642812852  1.0000
  H   H13       1.0  0.1859093091257833  0.9650340242174242  0.0982544043006185  1.0000
  H   H14       1.0  0.8140872901092282  0.03496298734826553  0.9017431250972193  1.0000
  H   H15       1.0  0.1466691152420694  0.13240324994859523  0.16794211821402166  1.0000
  H   H16       1.0  0.8533323631950154  0.8675927534929357  0.8320555211929914  1.0000
  H   H17       1.0  0.0040278735573125  0.05879843156618851  0.08750258418898227  1.0000
  H   H18       1.0  0.9959663384200542  0.9411994301063374  0.9125024867426957  1.0000
  C   C1        1.0  0.806925827771842  0.5566848185783897  0.7663130087602781  1.0000
  C   C2        1.0  0.1930794151385413  0.4433124621394669  0.23368154500082028  1.0000
  C   C3        1.0  0.64650852067237  0.5261236933380002  0.8857883332912877  1.0000
  C   C4        1.0  0.3534859884309469  0.47388001036399885  0.11420651312352705  1.0000
  C   C5        1.0  0.5076272814538001  0.6030119101542653  0.8722101953078506  1.0000
  C   C6        1.0  0.4923722192360316  0.39699319028056124  0.12777820874079282  1.0000
  C   C7        1.0  0.3620217160193491  0.5770738135004764  0.9850349053405977  1.0000
  C   C8        1.0  0.6379718469318476  0.42293578288749967  0.014946916856104133  1.0000
  C   C9        1.0  0.03930532740017869  0.7963595724183606  0.333357411499044  1.0000
  C   C10       1.0  0.9606941467330046  0.20364401371415397  0.6666455555100442  1.0000
  C   C11       1.0  0.8711030747901418  0.003137135801033299  0.3840963008845648  1.0000
  C   C12       1.0  0.12890382668176412  0.9968664866184794  0.6159111514890441  1.0000
  C   C13       1.0  0.0909195303059604  0.028450215493308003  0.1540002928673871  1.0000
  C   C14       1.0  0.9090833815389915  0.9715491177598776  0.8459985262398746  1.0000
  Br  Br1       1.0  0.5230915813179208  0.7452884967719842  0.6971703291389276  1.0000
  Br  Br2       1.0  0.47689312447224097  0.2546948534340743  0.302830030426918  1.0000
  Br  Br3       1.0  0.17107282157425635  0.6757598742274882  0.9651643022081797  1.0000
  Br  Br4       1.0  0.8289092712979667  0.32424236810251034  0.03483352727854339  1.0000
  N   N1        1.0  0.0025080769251886056  0.9368695036752827  0.29375963449124487  1.0000
  N   N2        1.0  0.9974949018885582  0.0631309185977358  0.7062400127093511  1.0000
  O   O1        1.0  0.8151353704785792  0.480700231138002  0.6683878482234035  1.0000
  O   O2        1.0  0.18485155348592738  0.5192997155828537  0.33161644567092446  1.0000
  O   O3        1.0  0.9147828997832903  0.6481338902192562  0.776788911730165  1.0000
  O   O4        1.0  0.08521175672832021  0.35187184976157937  0.22321272122258054  1.0000
  O   O5        1.0  0.8218259226837789  0.46775660610799014  0.36569425809995687  1.0000
  O   O6        1.0  0.1781760753387687  0.5322482796051842  0.6343038496322109  1.0000
  O   O7        1.0  0.9691798760169233  0.7116341505522925  0.4535584736965177  1.0000
  O   O8        1.0  0.030828233709201004  0.28836978978888794  0.5464384394650776  1.0000
