data_image0
_chemical_formula_structural       Al2H12C26Br2N2Cl2O10
_chemical_formula_sum              "Al2 H12 C26 Br2 N2 Cl2 O10"
_cell_length_a       6.666780022871526
_cell_length_b       11.098529240422243
_cell_length_c       16.87307261926568
_cell_angle_alpha    84.70747278948723
_cell_angle_beta     84.193677610549
_cell_angle_gamma    73.73248272155601

_space_group_name_H-M_alt    "P 1"
_space_group_IT_number       1

loop_
  _space_group_symop_operation_xyz
  'x, y, z'

loop_
  _atom_site_type_symbol
  _atom_site_label
  _atom_site_symmetry_multiplicity
  _atom_site_fract_x
  _atom_site_fract_y
  _atom_site_fract_z
  _atom_site_occupancy
  Al  Al1       1.0  0.4831115384332706  0.5068741766820608  0.4954449210937711  1.0000
  Al  Al2       1.0  0.9840310861865618  0.5030988640881304  0.49886258358505864  1.0000
  H   H1        1.0  0.16767533770081383  0.6568898932463797  0.45365455451131  1.0000
  H   H2        1.0  0.7373807389782385  0.43460392175393286  0.592921474562317  1.0000
  H   H3        1.0  0.9195415679762391  0.42006099275500486  0.7379098979289227  1.0000
  H   H4        1.0  0.8594232980372497  0.4116546166362553  0.8864784927069708  1.0000
  H   H5        1.0  0.3917625765572127  0.555485795149849  0.8972726064049115  1.0000
  H   H6        1.0  0.6290646154163612  0.4100327424153035  0.10163750560486311  1.0000
  H   H7        1.0  0.15571485594765735  0.5583003433570681  0.1146206135482331  1.0000
  H   H8        1.0  0.07817010647239903  0.5628566134858132  0.2630014325591788  1.0000
  H   H9        1.0  0.8940753741997297  0.7727812892175124  0.5962787409649977  1.0000
  H   H10       1.0  0.6567596838457276  0.23945791660781168  0.5880271805636356  1.0000
  H   H11       1.0  0.16005886013638815  0.12350400695715537  0.445300583290198  1.0000
  H   H12       1.0  0.28005405803648387  0.8889669968674241  0.44837499145403115  1.0000
  C   C1        1.0  0.6190787466374771  0.7338897048348374  0.5041078228635529  1.0000
  C   C2        1.0  0.7800517771225441  0.4973938227536578  0.3546876069069144  1.0000
  C   C3        1.0  0.3473409568215188  0.2796502924630958  0.4968191641098373  1.0000
  C   C4        1.0  0.2002767739187376  0.49882853775965696  0.6435407823533341  1.0000
  C   C5        1.0  0.18585670421325046  0.4930180691751218  0.7327579221975142  1.0000
  C   C6        1.0  0.022276633009830987  0.4493469229469156  0.7736504448066982  1.0000
  C   C7        1.0  0.9878369737940319  0.4446935777979917  0.8559067785665563  1.0000
  C   C8        1.0  0.11998821973738669  0.48592637749505485  0.900495771437676  1.0000
  C   C9        1.0  0.2892201098402651  0.5251505974391577  0.8618241679835992  1.0000
  C   C10       1.0  0.3225515181976418  0.528510155829153  0.7787735691405404  1.0000
  C   C11       1.0  0.726298442820422  0.4439864219600053  0.13755024387506157  1.0000
  C   C12       1.0  0.8957560664219668  0.48404078045394544  0.09974873870856271  1.0000
  C   C13       1.0  0.02412855473210845  0.5279085252419262  0.1446827597934046  1.0000
  C   C14       1.0  0.9804135178867384  0.5304417746750189  0.2265071194753574  1.0000
  C   C15       1.0  0.8122525856503273  0.48959521625183555  0.2661593403688371  1.0000
  C   C16       1.0  0.6866789642249741  0.44436083460675485  0.22035015341300124  1.0000
  C   C17       1.0  0.5518101240734977  0.8733899998738792  0.5100432655968561  1.0000
  C   C18       1.0  0.6673719004479534  0.9386092046775616  0.5490292212665369  1.0000
  C   C19       1.0  0.369705610678551  0.940325880140925  0.4754818043907747  1.0000
  C   C20       1.0  0.8404932925897839  0.874897898961173  0.5934509997334204  1.0000
  C   C21       1.0  0.9414443173850412  0.9399396133641957  0.6342004208633939  1.0000
  C   C22       1.0  0.41746137741677797  0.1391580397959942  0.5057628863190617  1.0000
  C   C23       1.0  0.30229951051593656  0.0722452164577874  0.47344784570650955  1.0000
  C   C24       1.0  0.598886642581931  0.0738095564055996  0.546715504057211  1.0000
  C   C25       1.0  0.7063784281967286  0.1376141590530082  0.5892792167911054  1.0000
  C   C26       1.0  0.8727814531318927  0.0729443186828647  0.6323535234069839  1.0000
  Br  Br1       1.0  0.17070119931354802  0.8473239060826502  0.6918462701126914  1.0000
  Br  Br2       1.0  0.0027811581450691856  0.16525938669746412  0.6900054424274559  1.0000
  N   N1        1.0  0.09543760568138988  0.4922584195943215  0.9843910794123407  1.0000
  N   N2        1.0  0.9233664212133091  0.47629021691533074  0.016076268609950307  1.0000
  Cl  Cl1       1.0  0.5312061142417834  0.5831668570414975  0.7372607192599434  1.0000
  Cl  Cl2       1.0  0.48893766262163757  0.38111345510465355  0.2629369588748958  1.0000
  O   O1        1.0  0.47277895792379326  0.680080479230135  0.5054345483349039  1.0000
  O   O2        1.0  0.9436763149084229  0.4877086011121676  0.3904347465869123  1.0000
  O   O3        1.0  0.15104371708216743  0.3318903458004455  0.5031969768183799  1.0000
  O   O4        1.0  0.37996013817123475  0.48694961421272615  0.6066877210383268  1.0000
  O   O5        1.0  0.4890593670039536  0.3371339440631189  0.4832961289579458  1.0000
  O   O6        1.0  0.029411880181889668  0.512662078028626  0.6110444025873891  1.0000
  O   O7        1.0  0.8152080051175831  0.6791460632329702  0.4957916485675824  1.0000
  O   O8        1.0  0.5949162023822152  0.5166980373472825  0.3875647208959237  1.0000
  O   O9        1.0  0.21077298866909897  0.5663865915407911  0.4646982836303979  1.0000
  O   O10       1.0  0.7479285782490448  0.45130198428412893  0.53532454896974  1.0000
