data_image0
_chemical_formula_structural       Cu2H32C20N2O10
_chemical_formula_sum              "Cu2 H32 C20 N2 O10"
_cell_length_a       7.456550861886232
_cell_length_b       7.867676859526939
_cell_length_c       10.812498997029591
_cell_angle_alpha    84.49278556216593
_cell_angle_beta     87.97619031970815
_cell_angle_gamma    71.38064126454148

_space_group_name_H-M_alt    "P 1"
_space_group_IT_number       1

loop_
  _space_group_symop_operation_xyz
  'x, y, z'

loop_
  _atom_site_type_symbol
  _atom_site_label
  _atom_site_symmetry_multiplicity
  _atom_site_fract_x
  _atom_site_fract_y
  _atom_site_fract_z
  _atom_site_occupancy
  Cu  Cu1       1.0  0.027576869466763274  0.9775947253656552  0.13831004427111543  1.0000
  Cu  Cu2       1.0  0.9724250692188361  0.022402878738155593  0.86169476647634  1.0000
  H   H1        1.0  0.2700533908189867  0.20549399098148774  0.04580276877354089  1.0000
  H   H2        1.0  0.7299531670483932  0.7945022370619623  0.9541965270717583  1.0000
  H   H3        1.0  0.8603203896465034  0.7751638350680705  0.2728132040987674  1.0000
  H   H4        1.0  0.13967404953757515  0.2248403517180364  0.7271847579252864  1.0000
  H   H5        1.0  0.09572158655680599  0.4203355184770388  0.1595001700803493  1.0000
  H   H6        1.0  0.9042831859510795  0.5796660576257012  0.8404959863770927  1.0000
  H   H7        1.0  0.2855790392005701  0.32271248848759626  0.2641664717966208  1.0000
  H   H8        1.0  0.7144270940518563  0.6772890903604178  0.735828740270378  1.0000
  H   H9        1.0  0.1365807320423826  0.10712242682816958  0.3603021702782385  1.0000
  H   H10       1.0  0.863426665305752  0.8928792051986105  0.6396957950812805  1.0000
  H   H11       1.0  0.9905410577926471  0.3357614016007346  0.369173535200602  1.0000
  H   H12       1.0  0.009464562673834076  0.6642415489351235  0.6308234341764702  1.0000
  H   H13       1.0  0.698187645551293  0.21416867474640355  0.3974869787178932  1.0000
  H   H14       1.0  0.3018192546952676  0.7858383459100577  0.6025096761255427  1.0000
  H   H15       1.0  0.8909083751028746  0.009859264501749001  0.40647415344972165  1.0000
  H   H16       1.0  0.10909408357520077  0.9901450144062736  0.5935236887561004  1.0000
  H   H17       1.0  0.5847772453298034  0.9678876482857389  0.3678580281833844  1.0000
  H   H18       1.0  0.4152262062801169  0.03211792940518169  0.632135080417612  1.0000
  H   H19       1.0  0.5540917888488507  0.1049935098675263  0.22601790541570918  1.0000
  H   H20       1.0  0.44591505459545266  0.8950175655558964  0.7739784548638083  1.0000
  H   H21       1.0  0.7700420224702139  0.4658997775950978  0.2018872655074233  1.0000
  H   H22       1.0  0.22996935198487722  0.5341059426512301  0.798109420958305  1.0000
  H   H23       1.0  0.6249236908774518  0.331039731564573  0.18138004228489987  1.0000
  H   H24       1.0  0.3750844734648097  0.6689673422706548  0.8186193658510632  1.0000
  H   H25       1.0  0.9438344184883718  0.37524905939070397  0.008492150500764207  1.0000
  H   H26       1.0  0.05617663774975062  0.6247458556342308  0.9915062525460812  1.0000
  H   H27       1.0  0.7022832835439133  0.40986904106072314  0.9739099860499109  1.0000
  H   H28       1.0  0.2977263793096157  0.5901299133775095  0.02608814240271331  1.0000
  H   H29       1.0  0.198544149523073  0.4275120952328492  0.5256025435371542  1.0000
  H   H30       1.0  0.8014368852624043  0.5724758576410025  0.4744069650678284  1.0000
  H   H31       1.0  0.5309315959789841  0.7240745155372819  0.3288918983998457  1.0000
  H   H32       1.0  0.46904544474386245  0.2759174082174455  0.6711146022880996  1.0000
  C   C1        1.0  0.17610226932823275  0.2936005741097531  0.2117179904637894  1.0000
  C   C2        1.0  0.8239060001407024  0.7064024197417778  0.7882798633946136  1.0000
  C   C3        1.0  0.05015474852708478  0.22938362119615618  0.3060609030475447  1.0000
  C   C4        1.0  0.9498508719393965  0.7706193293397019  0.6939360663295276  1.0000
  C   C5        1.0  0.7875806481573873  0.10659705348980002  0.3428475645150186  1.0000
  C   C6        1.0  0.21242671655070197  0.8934086206955669  0.657149181859829  1.0000
  C   C7        1.0  0.6618655149630328  0.012352701598452096  0.2885035738134647  1.0000
  C   C8        1.0  0.33813695939941363  0.9876555942514074  0.7114912005662006  1.0000
  C   C9        1.0  0.7691147327387637  0.3378190570981729  0.1691215422510695  1.0000
  C   C10       1.0  0.23089438468876713  0.6621853111864908  0.8308771245269638  1.0000
  C   C11       1.0  0.8229186744296796  0.3243816276542189  0.03178500934455292  1.0000
  C   C12       1.0  0.17708693035243067  0.6756173059398021  0.9682150278586688  1.0000
  C   C13       1.0  0.181905314858774  0.685909583083955  0.337504879883312  1.0000
  C   C14       1.0  0.8180850590473552  0.31408653636588457  0.6625002021229065  1.0000
  C   C15       1.0  0.3487000420485701  0.5856897065671092  0.41890761611884386  1.0000
  C   C16       1.0  0.6512848449245607  0.41429142843792016  0.5810949348075312  1.0000
  C   C17       1.0  0.3315431547532908  0.4574617727831053  0.5142782738015228  1.0000
  C   C18       1.0  0.6684393942278177  0.5425220776355884  0.48572688729397123  1.0000
  C   C19       1.0  0.518461194604633  0.6267203981999855  0.4047822927050575  1.0000
  C   C20       1.0  0.4815231795825525  0.373262108492888  0.595222015531391  1.0000
  N   N1        1.0  0.8970549642286937  0.18191695417436188  0.2478699345870083  1.0000
  N   N2        1.0  0.10295281661650783  0.8180873987566456  0.7521287521607292  1.0000
  O   O1        1.0  0.8659850892159469  0.1429839118622809  0.0089648013914427  1.0000
  O   O2        1.0  0.1340164091703286  0.8570150261042642  0.9910389934038619  1.0000
  O   O3        1.0  0.26195151608543904  0.15511674707627068  0.1308302480495556  1.0000
  O   O4        1.0  0.7380545531581998  0.8448808400466489  0.8691698806850781  1.0000
  O   O5        1.0  0.20496202216989443  0.811719593945284  0.2601989354087877  1.0000
  O   O6        1.0  0.7950233490573879  0.18827518066070328  0.7398109401113686  1.0000
  O   O7        1.0  0.7607057923751626  0.8664668531607302  0.21817331981254992  1.0000
  O   O8        1.0  0.2392988906904208  0.13354281986753586  0.7818213230963024  1.0000
  O   O9        1.0  0.0321613955329666  0.6429075655858654  0.3525210006129811  1.0000
  O   O10       1.0  0.9678109522501613  0.3570978480966076  0.6474864336023742  1.0000
