data_image0
_chemical_formula_structural       CuH26C18S2N4O8
_chemical_formula_sum              "Cu1 H26 C18 S2 N4 O8"
_cell_length_a       7.03674249493939
_cell_length_b       8.378562201591174
_cell_length_c       9.419604688545936
_cell_angle_alpha    85.87764234752485
_cell_angle_beta     78.0348849215173
_cell_angle_gamma    82.58000822756026

_space_group_name_H-M_alt    "P 1"
_space_group_IT_number       1

loop_
  _space_group_symop_operation_xyz
  'x, y, z'

loop_
  _atom_site_type_symbol
  _atom_site_label
  _atom_site_symmetry_multiplicity
  _atom_site_fract_x
  _atom_site_fract_y
  _atom_site_fract_z
  _atom_site_occupancy
  Cu  Cu1       1.0  0.5000004855834419  0.5000020307967858  0.4999980517930637  1.0000
  H   H1        1.0  0.8134517795434846  0.38404028788158934  0.5838737856563085  1.0000
  H   H2        1.0  0.18654906121822998  0.6159649523640452  0.4161243972283302  1.0000
  H   H3        1.0  0.863524532572761  0.4653571873698823  0.4149289489504611  1.0000
  H   H4        1.0  0.1364754581842362  0.5346432505162538  0.585069633465082  1.0000
  H   H5        1.0  0.9848333047788884  0.037966664523978  0.11133686508543413  1.0000
  H   H6        1.0  0.015174820377957593  0.9620275367967396  0.8886713826507276  1.0000
  H   H7        1.0  0.9630747477639191  0.3049831581204501  0.21295634989052553  1.0000
  H   H8        1.0  0.03693692347618342  0.6950170954394678  0.7870446302217502  1.0000
  H   H9        1.0  0.6648864545263607  0.12125704947104049  0.627015839143688  1.0000
  H   H10       1.0  0.3351099904480109  0.8787482794484588  0.3729798534687276  1.0000
  H   H11       1.0  0.69130956894017  0.8500427491921059  0.5257862434345171  1.0000
  H   H12       1.0  0.3086809782163159  0.14996375930208927  0.4742177549291284  1.0000
  H   H13       1.0  0.36970808611233963  0.5266384037960349  0.82478110422214  1.0000
  H   H14       1.0  0.6303015306709271  0.47335471965820364  0.17521528673326972  1.0000
  H   H15       1.0  0.6991653846452549  0.8349750395140844  0.7508149724553803  1.0000
  H   H16       1.0  0.3008360921824291  0.16502534274538763  0.24918656156549449  1.0000
  H   H17       1.0  0.6719311353140114  0.863719634252355  0.9400755019534088  1.0000
  H   H18       1.0  0.3280632184354317  0.13627962590434353  0.0599272276163276  1.0000
  H   H19       1.0  0.496505352643659  0.9678558371985413  0.8403109200554297  1.0000
  H   H20       1.0  0.5034907479868026  0.03214101002735959  0.1596906025226303  1.0000
  H   H21       1.0  0.27335488293545046  0.6091759945194043  0.0451906030050964  1.0000
  H   H22       1.0  0.7266495088639929  0.3908123891804891  0.9548058187235712  1.0000
  H   H23       1.0  0.24449496409719979  0.8221846090057738  0.04285471005172071  1.0000
  H   H24       1.0  0.7555049223179823  0.17780501595134268  0.9571434222178397  1.0000
  H   H25       1.0  0.44203489131452767  0.7117028225404098  0.11423315153326292  1.0000
  H   H26       1.0  0.5579659963187709  0.2882904000554305  0.8857646234214869  1.0000
  C   C1        1.0  0.8400190163775889  0.9274712638102328  0.312678533454374  1.0000
  C   C2        1.0  0.15998086478248302  0.07253032665926179  0.6873242497742709  1.0000
  C   C3        1.0  0.9175743296947303  0.05434303674249458  0.2249798343166063  1.0000
  C   C4        1.0  0.08243024967949006  0.945656055611586  0.7750255236164421  1.0000
  C   C5        1.0  0.9044721360242606  0.20529357100955536  0.2821091536394604  1.0000
  C   C6        1.0  0.0955321097107955  0.7947079698891386  0.717892937589518  1.0000
  C   C7        1.0  0.8125686127721039  0.22920725343206527  0.426973638671953  1.0000
  C   C8        1.0  0.18743081474775644  0.7707979511997535  0.5730290179084392  1.0000
  C   C9        1.0  0.7404069553777077  0.09984097351954799  0.5157240747640657  1.0000
  C   C10       1.0  0.2595990791554712  0.9001690455834961  0.48427089507541865  1.0000
  C   C11       1.0  0.7538650314196146  0.9495049896317838  0.45904896163958847  1.0000
  C   C12       1.0  0.2461272626178896  0.050499105931614  0.5409538297323735  1.0000
  C   C13       1.0  0.46697684026770503  0.6202693246938366  0.7874069802778861  1.0000
  C   C14       1.0  0.5330282815354154  0.379725026983273  0.21259218197570107  1.0000
  C   C15       1.0  0.5934319660847223  0.8556797844593406  0.8521751152230622  1.0000
  C   C16       1.0  0.406566731431468  0.144319452195262  0.1478248008324101  1.0000
  C   C17       1.0  0.3530880585092576  0.7149372488673008  0.030822763747259774  1.0000
  C   C18       1.0  0.6469132827642455  0.2850523595662153  0.9691751378557356  1.0000
  S   S1        1.0  0.8385062421617205  0.7381593623640796  0.2388223792434871  1.0000
  S   S2        1.0  0.16148313175500556  0.261844779280878  0.7611798127042846  1.0000
  N   N1        1.0  0.7801957256018072  0.3858113653496744  0.482249400281951  1.0000
  N   N2        1.0  0.21980510475578544  0.6141938879303126  0.5177477218453959  1.0000
  N   N3        1.0  0.4777957213822789  0.7212145666615727  0.8868121111351074  1.0000
  N   N4        1.0  0.5222080759676756  0.27877862288706007  0.1131852024865196  1.0000
  O   O1        1.0  0.6398331632255817  0.6927194231564257  0.2966538216178307  1.0000
  O   O2        1.0  0.36015585624374313  0.3072871931018426  0.7033429821112875  1.0000
  O   O3        1.0  0.9885104505675598  0.6229638569325929  0.2938072155013102  1.0000
  O   O4        1.0  0.011481103062152422  0.3770342836879478  0.7061917745884331  1.0000
  O   O5        1.0  0.8819594226248739  0.7637847694000113  0.0808391202817802  1.0000
  O   O6        1.0  0.11803257938993987  0.2362217225705834  0.9191646474153075  1.0000
  O   O7        1.0  0.5624513777220486  0.6261438268408096  0.6575186499191901  1.0000
  O   O8        1.0  0.43755294639757386  0.37385660057758224  0.3424760582247828  1.0000
