data_image0
_chemical_formula_structural       Zn2H30C44N6O12
_chemical_formula_sum              "Zn2 H30 C44 N6 O12"
_cell_length_a       14.055640138551414
_cell_length_b       15.208473719223441
_cell_length_c       17.395886672369215
_cell_angle_alpha    83.2812733184734
_cell_angle_beta     97.18201408414284
_cell_angle_gamma    89.26100145314244

_space_group_name_H-M_alt    "P 1"
_space_group_IT_number       1

loop_
  _space_group_symop_operation_xyz
  'x, y, z'

loop_
  _atom_site_type_symbol
  _atom_site_label
  _atom_site_symmetry_multiplicity
  _atom_site_fract_x
  _atom_site_fract_y
  _atom_site_fract_z
  _atom_site_occupancy
  Zn  Zn1       1.0  0.6076667693789021  0.4988012427288382  0.5079874287480808  1.0000
  Zn  Zn2       1.0  0.39973401139145887  0.5036173137872665  0.4958994723607476  1.0000
  H   H1        1.0  0.3735089527852298  0.41229810080919543  0.7357234635271015  1.0000
  H   H2        1.0  0.6321914185547186  0.5315018315724772  0.25549885995406646  1.0000
  H   H3        1.0  0.10017095795717522  0.4407591087944524  0.6209818582263084  1.0000
  H   H4        1.0  0.9164693389421217  0.642766281984123  0.4513712463645947  1.0000
  H   H5        1.0  0.2740214273043975  0.44233535787992645  0.6039276245279768  1.0000
  H   H6        1.0  0.7411427644693165  0.6254087212169067  0.45740871507391045  1.0000
  H   H7        1.0  0.0415430770417728  0.5828799194865654  0.3891690422248574  1.0000
  H   H8        1.0  0.9594884612559724  0.3755688226807692  0.5680767315805756  1.0000
  H   H9        1.0  0.332003252212651  0.48336313914125384  0.25817607644449236  1.0000
  H   H10       1.0  0.6635119374870656  0.4999097628377315  0.7577617994802355  1.0000
  H   H11       1.0  0.6133631793221996  0.5174020421317067  0.11331209520226086  1.0000
  H   H12       1.0  0.3780760340992799  0.396996170490013  0.8809301248608252  1.0000
  H   H13       1.0  0.6431419408525728  0.0496242598901873  0.5072474110961097  1.0000
  H   H14       1.0  0.3671089035311469  0.9489437630791072  0.5132561415379515  1.0000
  H   H15       1.0  0.6472322203521657  0.21010746627381138  0.5222680739613568  1.0000
  H   H16       1.0  0.3691039440335615  0.7834620701322734  0.5319093624570714  1.0000
  H   H17       1.0  0.3529957407587504  0.2423819012514059  0.4187480673891103  1.0000
  H   H18       1.0  0.6263538211098592  0.7783379339807581  0.4224667864147521  1.0000
  H   H19       1.0  0.2963266748874532  0.5785968229100291  0.360852085426366  1.0000
  H   H20       1.0  0.17926530320350054  0.6170845570808298  0.3232425725497522  1.0000
  H   H21       1.0  0.8172492616733324  0.30002322031377554  0.595827570625872  1.0000
  H   H22       1.0  0.7018853995512516  0.34479322512714816  0.5650729130535697  1.0000
  H   H23       1.0  0.42691654066283047  0.578594226477115  0.9146329618059641  1.0000
  H   H24       1.0  0.6308290205184477  0.32861665681052427  0.9909773233651227  1.0000
  H   H25       1.0  0.6780899756953503  0.512575361848512  0.9653452310540449  1.0000
  H   H26       1.0  0.7387800102604417  0.5214693235930242  0.8864108896513658  1.0000
  H   H27       1.0  0.2386030028806516  0.46036940385495484  0.1432965741514636  1.0000
  H   H28       1.0  0.2763414883136832  0.48261685544584043  0.052958543969829526  1.0000
  H   H29       1.0  0.33626059564483773  0.01141098437211949  0.3626989717019741  1.0000
  H   H30       1.0  0.6220476672310584  0.022096569514388893  0.358505640119347  1.0000
  C   C1        1.0  0.49949935475211754  0.33154961077169537  0.4881855209097312  1.0000
  C   C2        1.0  0.5033603634842122  0.6712835951481962  0.49584620408454344  1.0000
  C   C3        1.0  0.5800612368395334  0.09237545630397649  0.48633841237682435  1.0000
  C   C4        1.0  0.4225667061135853  0.9112663920736424  0.49155471847349475  1.0000
  C   C5        1.0  0.5819604801279115  0.18172835631477818  0.4961435908883659  1.0000
  C   C6        1.0  0.42439013608095894  0.8192118653209236  0.5035182579972216  1.0000
  C   C7        1.0  0.4994135243118123  0.23612144846691763  0.4741049403870009  1.0000
  C   C8        1.0  0.4993335037442321  0.7705006029527155  0.48072114108840236  1.0000
  C   C9        1.0  0.41674795780963353  0.2002736655892718  0.43855853066245504  1.0000
  C   C10       1.0  0.5692980558598109  0.8152308382440125  0.442702697690642  1.0000
  C   C11       1.0  0.41442178358438747  0.1106962807249943  0.4267950557759904  1.0000
  C   C12       1.0  0.5666450070839133  0.9078387256035755  0.42810908065457925  1.0000
  C   C13       1.0  0.4962068051387689  0.05472864733003036  0.45303630788564686  1.0000
  C   C14       1.0  0.4938422861811489  0.9573182397062823  0.4546729559010601  1.0000
  C   C15       1.0  0.1231777979391993  0.47101309413336884  0.5668031227627639  1.0000
  C   C16       1.0  0.8896944007009538  0.5808223747258481  0.47724590179602455  1.0000
  C   C17       1.0  0.2193091081568426  0.47194605533395884  0.5578724496503896  1.0000
  C   C18       1.0  0.7926412935553913  0.571737403998469  0.4806950276907573  1.0000
  C   C19       1.0  0.19049731803139744  0.5498463015360074  0.43283792776997393  1.0000
  C   C20       1.0  0.8134629664784615  0.4278544087100897  0.5450324272582281  1.0000
  C   C21       1.0  0.09092595807594253  0.5522050186268571  0.4386666666230285  1.0000
  C   C22       1.0  0.9136248175029282  0.43314498505407056  0.5442505042972032  1.0000
  C   C23       1.0  0.5154734292303473  0.4711827645177919  0.6517893594474985  1.0000
  C   C24       1.0  0.49261523873364865  0.5157951266132343  0.3503428276415833  1.0000
  C   C25       1.0  0.05657074889872861  0.5119328603527931  0.5051004536176154  1.0000
  C   C26       1.0  0.9523663288083669  0.5090697614089024  0.5096436475309647  1.0000
  C   C27       1.0  0.5187009145436008  0.45716522005225346  0.7389503468709366  1.0000
  C   C28       1.0  0.4823503061209351  0.5087964023781238  0.2647991310658214  1.0000
  C   C29       1.0  0.43756389468465073  0.42806424367570634  0.7729722692263936  1.0000
  C   C30       1.0  0.5628506679882294  0.5179386968769464  0.22433429922300976  1.0000
  C   C31       1.0  0.44026704638120157  0.4205227077472386  0.8535762273146548  1.0000
  C   C32       1.0  0.5517088461841696  0.5094169252664642  0.14553379262327587  1.0000
  C   C33       1.0  0.5224463151901517  0.44169600777851764  0.901891367499019  1.0000
  C   C34       1.0  0.4628470840496632  0.4907689516703542  0.10428357735332845  1.0000
  C   C35       1.0  0.605014429374023  0.4696925994274608  0.8672966528227024  1.0000
  C   C36       1.0  0.3811688912609128  0.4816413230495655  0.14544463431671065  1.0000
  C   C37       1.0  0.601857574117922  0.4765796796741526  0.7859222569883146  1.0000
  C   C38       1.0  0.3935998227467152  0.49116254074668575  0.22572191322249327  1.0000
  C   C39       1.0  0.5251806984053502  0.4354046900124757  0.9878090459244648  1.0000
  C   C40       1.0  0.4606388142402907  0.48415979080064636  0.02027946015940782  1.0000
  C   C41       1.0  0.3929427586606309  0.543660759894472  0.9636412871710367  1.0000
  C   C42       1.0  0.5917942169830396  0.3638639343339421  0.031040552940979196  1.0000
  C   C43       1.0  0.3276285774746911  0.07782336805333046  0.382569889636443  1.0000
  C   C44       1.0  0.6376885440589888  0.9510468638554102  0.38091108491541803  1.0000
  N   N1        1.0  0.2533479134635357  0.5095591735812378  0.4927863875847792  1.0000
  N   N2        1.0  0.7542512846769116  0.49740166971558614  0.5130906416073914  1.0000
  N   N3        1.0  0.22534511998321707  0.5869503288027785  0.3679921167440271  1.0000
  N   N4        1.0  0.7740577179412753  0.3540817928989527  0.5780040892454466  1.0000
  N   N5        1.0  0.6872383717876147  0.4900780259110178  0.9140787058860342  1.0000
  N   N6        1.0  0.293243403250429  0.45838419498558375  0.11058983206103085  1.0000
  O   O1        1.0  0.578496728113578  0.36205202908253403  0.5177205565236138  1.0000
  O   O2        1.0  0.42797484134239033  0.6333020446737764  0.5143671026371096  1.0000
  O   O3        1.0  0.4210013966304018  0.37530939175202593  0.4698496569477087  1.0000
  O   O4        1.0  0.5823131665601126  0.6331927619074662  0.48833863368231106  1.0000
  O   O5        1.0  0.5923125080969457  0.4942545659577533  0.6242449323972752  1.0000
  O   O6        1.0  0.41839867256527447  0.5400476706021066  0.37943083147483503  1.0000
  O   O7        1.0  0.4351044950507657  0.4598983551454268  0.6117945832824605  1.0000
  O   O8        1.0  0.5741343026576261  0.4958377548320243  0.38893926687929803  1.0000
  O   O9        1.0  0.3073456386140805  0.5575515748229093  0.9676418170261275  1.0000
  O   O10       1.0  0.6015282142241674  0.33922136002139075  0.10126390223850731  1.0000
  O   O11       1.0  0.251198000597185  0.11962916664763411  0.3661901738864374  1.0000
  O   O12       1.0  0.7085599091783834  0.9126865262453309  0.36475664352710174  1.0000
