data_image0
_chemical_formula_structural       Cd3H48C56N8O12
_chemical_formula_sum              "Cd3 H48 C56 N8 O12"
_cell_length_a       8.228302723808111
_cell_length_b       10.947001543980024
_cell_length_c       15.35984691807706
_cell_angle_alpha    71.08558699884837
_cell_angle_beta     74.92485057736165
_cell_angle_gamma    70.75351765724422

_space_group_name_H-M_alt    "P 1"
_space_group_IT_number       1

loop_
  _space_group_symop_operation_xyz
  'x, y, z'

loop_
  _atom_site_type_symbol
  _atom_site_label
  _atom_site_symmetry_multiplicity
  _atom_site_fract_x
  _atom_site_fract_y
  _atom_site_fract_z
  _atom_site_occupancy
  Cd  Cd1       1.0  0.08667248756496092  0.4338031697980824  0.27571769866349893  1.0000
  Cd  Cd2       1.0  0.9133266024710239  0.5661967214655875  0.7242819886955658  1.0000
  Cd  Cd3       1.0  1.928792627898978e-07  0.4999999706015217  0.4999998592553538  1.0000
  H   H1        1.0  0.6110953842272551  0.8341743935877305  0.274714639349753  1.0000
  H   H2        1.0  0.388905892534865  0.16582647558364277  0.7252851719799552  1.0000
  H   H3        1.0  0.7197868665328357  0.8321466038918502  0.3605195065897463  1.0000
  H   H4        1.0  0.2802134856128831  0.1678532772553538  0.6394800076347664  1.0000
  H   H5        1.0  0.5524111646361334  0.6976782306125031  0.48508449580615587  1.0000
  H   H6        1.0  0.4475904496193054  0.30232164041824217  0.5149148452837978  1.0000
  H   H7        1.0  0.4057191520922885  0.8336727661570792  0.4208873303274244  1.0000
  H   H8        1.0  0.5942824621631503  0.16632710487366612  0.5791120107625362  1.0000
  H   H9        1.0  0.5121869388816691  0.6653758348820844  0.2542866056202087  1.0000
  H   H10       1.0  0.4878114747459605  0.3346260611871088  0.7457127183628175  1.0000
  H   H11       1.0  0.3063948868463696  0.7708785213904578  0.2849447545844868  1.0000
  H   H12       1.0  0.6936063899157503  0.22912234778091548  0.7150550567452144  1.0000
  H   H13       1.0  0.5115463619521988  0.5380877514978409  0.4237046229851985  1.0000
  H   H14       1.0  0.4884527273729233  0.4619121440279559  0.576294412446103  1.0000
  H   H15       1.0  0.3014338920845391  0.6393565356040939  0.45407120999022504  1.0000
  H   H16       1.0  0.6985661225678613  0.36064434368373816  0.5459287744740353  1.0000
  H   H17       1.0  0.17311017965211306  0.03789451002524662  0.5894549474331471  1.0000
  H   H18       1.0  0.8268879857674707  0.9621043932142472  0.4105444428207362  1.0000
  H   H19       1.0  0.34015187100222033  0.0094306623678762  0.492341401600399  1.0000
  H   H20       1.0  0.6598488200585348  0.9905682121144325  0.507658946239907  1.0000
  H   H21       1.0  0.1402924296593184  0.9740671898647478  0.4151237922511584  1.0000
  H   H22       1.0  0.8597098602936201  0.025930680622607803  0.5848752602870775  1.0000
  H   H23       1.0  0.1370175649925755  0.8663158127199114  0.5286742578927673  1.0000
  H   H24       1.0  0.8629859863592202  0.1336820519131194  0.4713239695831462  1.0000
  H   H25       1.0  0.7106239744288275  0.35877202460114443  0.3849215427178621  1.0000
  H   H26       1.0  0.2893763784277539  0.641227852283926  0.6150786234344211  1.0000
  H   H27       1.0  0.49154673590413017  0.2606005527579854  0.3619733672220136  1.0000
  H   H28       1.0  0.508452016638536  0.7394003366463054  0.6380267903767987  1.0000
  H   H29       1.0  0.5404735126328577  0.19740915598329423  0.212333196089304  1.0000
  H   H30       1.0  0.4595245613688589  0.8025937510129284  0.7876646423501654  1.0000
  H   H31       1.0  0.2611604066908271  0.3182000468683556  0.8869887625660058  1.0000
  H   H32       1.0  0.7388390222602083  0.6817988377304122  0.11301175840885236  1.0000
  H   H33       1.0  0.4650952435936801  0.40185735022311064  0.9330990751369656  1.0000
  H   H34       1.0  0.5349038471531742  0.5981425367784184  0.0669012641498696  1.0000
  H   H35       1.0  0.38566070836533584  0.44927524963414106  0.09283375303152039  1.0000
  H   H36       1.0  0.6143383823815187  0.5507246373673881  0.9071665862553145  1.0000
  H   H37       1.0  0.5304739913247118  0.1011809316567849  0.9629288758917128  1.0000
  H   H38       1.0  0.46952602474941313  0.8988199391067728  0.037072412428088314  1.0000
  H   H39       1.0  0.473756675723898  0.9760152637300763  0.8693538184024517  1.0000
  H   H40       1.0  0.5262414925391355  0.023983622460882304  0.13064817956249186  1.0000
  H   H41       1.0  0.7076420067591017  0.9054205476219792  0.7384468450535381  1.0000
  H   H42       1.0  0.2923577625287024  0.09457732178761805  0.2615558133926399  1.0000
  H   H43       1.0  0.9926319653136418  0.9537901964209473  0.7089579665449646  1.0000
  H   H44       1.0  0.007367465059118696  0.046208679653545914  0.29104385828542695  1.0000
  H   H45       1.0  0.051991599709324994  0.06977513135057482  0.8061622831636158  1.0000
  H   H46       1.0  0.9480065685537155  0.9302237548403769  0.19383971480133508  1.0000
  H   H47       1.0  0.04098035287950807  0.23475775014641448  0.8642169136708944  1.0000
  H   H48       1.0  0.9590174764684889  0.7652421427094326  0.13578425067826316  1.0000
  C   C1        1.0  0.8008016333500121  0.6521009341640893  0.320698356107293  1.0000
  C   C2        1.0  0.1991987187956994  0.34789894698311497  0.6793011581172196  1.0000
  C   C3        1.0  0.6572846602058532  0.7728138204312814  0.34042098585648267  1.0000
  C   C4        1.0  0.34271535373568435  0.22718706311869147  0.6595783466800144  1.0000
  C   C5        1.0  0.5062104929883304  0.7390376834846607  0.4175783379516034  1.0000
  C   C6        1.0  0.4937923833768282  0.26096217742962574  0.5824208300038054  1.0000
  C   C7        1.0  0.3030578371051575  0.5765135745698801  0.2922306657787246  1.0000
  C   C8        1.0  0.6969389754977015  0.42348933828066043  0.7077679977230675  1.0000
  C   C9        1.0  0.39125334705382636  0.6686281173880815  0.30603823522014306  1.0000
  C   C10       1.0  0.60874759079325  0.33137375844819433  0.693960742493772  1.0000
  C   C11       1.0  0.4249930488134838  0.6395956991185017  0.4047401244064588  1.0000
  C   C12       1.0  0.5750069651280472  0.3604051844314712  0.5952592081300381  1.0000
  C   C13       1.0  0.14703277542015772  0.1984269967178137  0.46411496441476163  1.0000
  C   C14       1.0  0.8529691756177372  0.8015718804344375  0.5358832545076807  1.0000
  C   C15       1.0  0.19880087946597064  0.0495118561709802  0.5138249861460268  1.0000
  C   C16       1.0  0.8011994719688789  0.950488029238365  0.48617387615071567  1.0000
  C   C17       1.0  0.099043586563539  0.9722376148412908  0.4894535033726868  1.0000
  C   C18       1.0  0.9009599647882567  0.02776024979174711  0.5105447241032196  1.0000
  C   C19       1.0  0.7258177060842358  0.32977606582161917  0.3210851542474771  1.0000
  C   C20       1.0  0.27418104645843744  0.6702248235826718  0.6789150033513422  1.0000
  C   C21       1.0  0.6050467058336082  0.2742405906861052  0.3083300917978989  1.0000
  C   C22       1.0  0.3949507838884756  0.7257603130967782  0.6916695870077094  1.0000
  C   C23       1.0  0.6309479411379897  0.24045717976799355  0.2254539637444282  1.0000
  C   C24       1.0  0.36905013428545885  0.7595457187039545  0.774545178550575  1.0000
  C   C25       1.0  0.7760262331511072  0.2631257346127357  0.15611100802978944  1.0000
  C   C26       1.0  0.22397218118738485  0.7368761571943169  0.843888967881007  1.0000
  C   C27       1.0  0.8921711929898207  0.32032618423189524  0.17472636874578037  1.0000
  C   C28       1.0  0.10782882237344171  0.6796746907938032  0.8252742676462506  1.0000
  C   C29       1.0  0.047139343050012876  0.34357447978645445  0.10660517034180118  1.0000
  C   C30       1.0  0.9528613487216051  0.6564243904337205  0.8933958294262684  1.0000
  C   C31       1.0  0.08228581914567457  0.31380294861948244  0.018738796562281793  1.0000
  C   C32       1.0  0.91771613473567  0.6861959114842336  0.9812620300712285  1.0000
  C   C33       1.0  0.23377277363319854  0.3378362882261926  0.9553242718156696  1.0000
  C   C34       1.0  0.766228257053463  0.6621615753290869  0.04467756156818577  1.0000
  C   C35       1.0  0.3454656263995235  0.3859174647695767  0.9805812285436062  1.0000
  C   C36       1.0  0.654535064661232  0.614081409712732  0.019419119296699643  1.0000
  C   C37       1.0  0.30274038133458714  0.4115363891756302  0.06883230283590085  1.0000
  C   C38       1.0  0.6972596333178135  0.5884644901122016  0.9311676816283593  1.0000
  C   C39       1.0  0.9631147116173155  0.25717185229115813  0.003269494318210738  1.0000
  C   C40       1.0  0.03688345522400023  0.7428270424240682  0.9967311997911992  1.0000
  C   C41       1.0  0.8167523287220391  0.22983834312073279  0.06891442021077411  1.0000
  C   C42       1.0  0.18324802342367255  0.7701615380264785  0.9310850940137384  1.0000
  C   C43       1.0  0.8269735069288232  0.1573223505023833  0.952323219345701  1.0000
  C   C44       1.0  0.17302558452889366  0.8426775322370119  0.0476777718688979  1.0000
  C   C45       1.0  0.7936822737646452  0.09327814237605743  0.8915716903663979  1.0000
  C   C46       1.0  0.2063171566081152  0.9067207336984354  0.108430134463994  1.0000
  C   C47       1.0  0.6308436098813247  0.06741782785552182  0.9074042098958162  1.0000
  C   C48       1.0  0.36915674439698165  0.932582040505281  0.09259726011200092  1.0000
  C   C49       1.0  0.5990347476188872  0.9996371009691953  0.8534926883674957  1.0000
  C   C50       1.0  0.40096594557446263  0.0003617607267045995  0.1465096152561074  1.0000
  C   C51       1.0  0.7290827205991945  0.9590123183724019  0.7814676489779518  1.0000
  C   C52       1.0  0.2709183093766114  0.04098554944501131  0.2185335324781406  1.0000
  C   C53       1.0  0.8905201037252085  0.9864403338016889  0.764409722280284  1.0000
  C   C54       1.0  0.10947932735841452  0.0135585380106704  0.23559275447787806  1.0000
  C   C55       1.0  0.9237395724939717  0.05243761350806861  0.8189428725086502  1.0000
  C   C56       1.0  0.0762601953721074  0.9475602644258033  0.181058482081994  1.0000
  N   N1        1.0  0.8642219975947613  0.351691100028134  0.2565522097871167  1.0000
  N   N2        1.0  0.13577894167404733  0.6483107672838673  0.7434480717823322  1.0000
  N   N3        1.0  0.15854685253292908  0.3916267212839983  0.1290385467615422  1.0000
  N   N4        1.0  0.8414551006375532  0.6083721430818514  0.8709616279442046  1.0000
  N   N5        1.0  0.9672676928066369  0.21014022387239353  0.9300938364580706  1.0000
  N   N6        1.0  0.03273139865108017  0.7898596588670018  0.06990715475652817  1.0000
  N   N7        1.0  0.7336351529487076  0.16710702456833812  0.036687735890176015  1.0000
  N   N8        1.0  0.26636486241454804  0.8328938504573599  0.9633129005018546  1.0000
  O   O1        1.0  0.8875675813901439  0.6591666106853469  0.23813259112292684  1.0000
  O   O2        1.0  0.11242990762107753  0.34083429735967036  0.7618664357549108  1.0000
  O   O3        1.0  0.8326093273380976  0.543947874620315  0.3861158923547806  1.0000
  O   O4        1.0  0.1673903469775269  0.4560540198566869  0.6138819546381598  1.0000
  O   O5        1.0  0.31780012196508534  0.5638896989248607  0.2113405801478692  1.0000
  O   O6        1.0  0.6821985398705906  0.4361151899740251  0.7886586775643069  1.0000
  O   O7        1.0  0.2111679677823517  0.5130594420578165  0.36328419949558105  1.0000
  O   O8        1.0  0.7888297680151909  0.48694446734116803  0.6367134572558654  1.0000
  O   O9        1.0  0.18657352144948186  0.22902104505484294  0.37525736712640173  1.0000
  O   O10       1.0  0.8134227047411573  0.7709798773687667  0.6247411809582247  1.0000
  O   O11       1.0  0.06535637051620569  0.2781583618352671  0.5155274810259415  1.0000
  O   O12       1.0  0.9346439830512309  0.7218415107876696  0.48447333705411216  1.0000
