data_image0
_chemical_formula_structural       Zn8H90C120N6O26
_chemical_formula_sum              "Zn8 H90 C120 N6 O26"
_cell_length_a       27.005253838227723
_cell_length_b       27.14865191984606
_cell_length_c       27.18569624723243
_cell_angle_alpha    60.78575648821194
_cell_angle_beta     60.603424197186186
_cell_angle_gamma    60.524781164645574

_space_group_name_H-M_alt    "P 1"
_space_group_IT_number       1

loop_
  _space_group_symop_operation_xyz
  'x, y, z'

loop_
  _atom_site_type_symbol
  _atom_site_label
  _atom_site_symmetry_multiplicity
  _atom_site_fract_x
  _atom_site_fract_y
  _atom_site_fract_z
  _atom_site_occupancy
  Zn  Zn1       1.0  0.0331267009724456  0.039544469530142096  0.9024522413489109  1.0000
  Zn  Zn2       1.0  0.03449099075702119  0.0414599953205013  0.018922102334975897  1.0000
  Zn  Zn3       1.0  0.036477246806519814  0.9236212851130432  0.017799741819409506  1.0000
  Zn  Zn4       1.0  0.9173335948140461  0.0387681974449734  0.019818138421136493  1.0000
  Zn  Zn5       1.0  0.47651434000201215  0.4822807649984853  0.5760956790844601  1.0000
  Zn  Zn6       1.0  0.474426275055464  0.4820800842564521  0.4617043269203408  1.0000
  Zn  Zn7       1.0  0.5944023495942972  0.4810860652426996  0.4610319489284792  1.0000
  Zn  Zn8       1.0  0.4779735024418343  0.5983936277029398  0.46059420432516884  1.0000
  H   H1        1.0  0.19876105395324115  0.08249410235688967  0.9142882383105971  1.0000
  H   H2        1.0  0.276985628930511  0.1323513872734665  0.8445320666791147  1.0000
  H   H3        1.0  0.1741823741428519  0.244340884640259  0.7243989453001946  1.0000
  H   H4        1.0  0.09942262914587019  0.1903644473542982  0.7912766970083283  1.0000
  H   H5        1.0  0.3155766687781068  0.19854016134764407  0.7560800979467076  1.0000
  H   H6        1.0  0.2239957903685905  0.29250609835685276  0.770412343866397  1.0000
  H   H7        1.0  0.24194669413599712  0.37974563598174876  0.744786985121621  1.0000
  H   H8        1.0  0.31192113362014595  0.43908646330767437  0.6802993934875374  1.0000
  H   H9        1.0  0.4124687629806161  0.32842032961222145  0.5685102207142378  1.0000
  H   H10       1.0  0.34961671591846505  0.26553166049045973  0.5863064884973924  1.0000
  H   H11       1.0  0.45300680327650167  0.2110463238926599  0.6142227354324136  1.0000
  H   H12       1.0  0.4457781020581776  0.10403191980356748  0.6636400986625263  1.0000
  H   H13       1.0  0.3305536954998516  0.11639903574329216  0.7250742577861615  1.0000
  H   H14       1.0  0.3390319012334401  0.13381355729121944  0.6506110860482011  1.0000
  H   H15       1.0  0.2692904526140225  0.2301847131571364  0.6587239425398366  1.0000
  H   H16       1.0  0.06960517661313055  0.8236237628964316  0.9143506868150624  1.0000
  H   H17       1.0  0.11813725023999665  0.7640929968618765  0.8458202673573184  1.0000
  H   H18       1.0  0.23673360141390992  0.8680200896767545  0.7256152035176128  1.0000
  H   H19       1.0  0.18406470702245767  0.931235879462335  0.7910715090426591  1.0000
  H   H20       1.0  0.18622491757621162  0.7441017475613165  0.7584411841310867  1.0000
  H   H21       1.0  0.28092274242470705  0.7269611314580189  0.7732345908387613  1.0000
  H   H22       1.0  0.3688624988714154  0.6485151583404942  0.7477280839435849  1.0000
  H   H23       1.0  0.4304005320593233  0.5847660884430894  0.6819751920230815  1.0000
  H   H24       1.0  0.32130180079793286  0.7040053354499206  0.5687854265714662  1.0000
  H   H25       1.0  0.2556016783842025  0.8092998511805476  0.5880094365808971  1.0000
  H   H26       1.0  0.2017868191606951  0.7311717530216839  0.6172399529401531  1.0000
  H   H27       1.0  0.0936229961039815  0.7954636915114079  0.6661695855508895  1.0000
  H   H28       1.0  0.10509079363139753  0.8401360603038271  0.7259936375854181  1.0000
  H   H29       1.0  0.12373414070240324  0.8861695253675849  0.6509939017123044  1.0000
  H   H30       1.0  0.21997914477775996  0.853229574591765  0.6603562565796254  1.0000
  H   H31       1.0  0.8158904436690121  0.20816575511422283  0.9181636254895483  1.0000
  H   H32       1.0  0.7584153270542515  0.2876115251478594  0.8483504675785482  1.0000
  H   H33       1.0  0.8615430954688463  0.1848768878964435  0.7282844648630301  1.0000
  H   H34       1.0  0.922693823150702  0.10868955104882622  0.7952130194195703  1.0000
  H   H35       1.0  0.7406422153671315  0.3269990544389501  0.759553326951277  1.0000
  H   H36       1.0  0.7189550380718116  0.23741686640609322  0.7750050850425935  1.0000
  H   H37       1.0  0.6391862334698645  0.2556120809576399  0.7488332335908227  1.0000
  H   H38       1.0  0.5762986466387118  0.3239706172915149  0.6824033973239666  1.0000
  H   H39       1.0  0.7012918655355022  0.42086560063714984  0.5701464008529983  1.0000
  H   H40       1.0  0.807337249628354  0.3588119018588073  0.589645645822138  1.0000
  H   H41       1.0  0.7333570845029199  0.46193699805841937  0.6176035258277325  1.0000
  H   H42       1.0  0.8002388410609526  0.45406035519499  0.6665855178181063  1.0000
  H   H43       1.0  0.8404750067254412  0.33958257163558864  0.7275539567373386  1.0000
  H   H44       1.0  0.8873111751498609  0.3475380743514123  0.6527709763068474  1.0000
  H   H45       1.0  0.8493228751236119  0.278593261760001  0.6625766804205709  1.0000
  H   H46       1.0  0.20321298263466764  0.8244851066667137  0.05543850561736718  1.0000
  H   H47       1.0  0.281181323775442  0.7658415865150019  0.10593478021244362  1.0000
  H   H48       1.0  0.18056039386156908  0.874284669284634  0.22041939592413945  1.0000
  H   H49       1.0  0.10598545503869865  0.9362406652170564  0.16608804710420338  1.0000
  H   H50       1.0  0.3203153943252701  0.7484599617814353  0.17322932072291045  1.0000
  H   H51       1.0  0.2282470401780828  0.7312410326281052  0.2659760223756964  1.0000
  H   H52       1.0  0.24478277501982146  0.6520327673596783  0.35285210601416833  1.0000
  H   H53       1.0  0.3137283231260212  0.5871375556016716  0.4133186611436982  1.0000
  H   H54       1.0  0.41732960419217585  0.7058741759740312  0.3073166291025161  1.0000
  H   H55       1.0  0.3572375397502157  0.8125168966871854  0.24474175882524923  1.0000
  H   H56       1.0  0.4584221249225564  0.7359069642908691  0.1891790745727134  1.0000
  H   H57       1.0  0.4515885573550734  0.8020772022172764  0.0825099489748454  1.0000
  H   H58       1.0  0.33599802494531866  0.8466155903757198  0.09406708084271286  1.0000
  H   H59       1.0  0.347103945548767  0.8916725362131004  0.11467943060586089  1.0000
  H   H60       1.0  0.2758692449481473  0.8570151075205884  0.20939206509524413  1.0000
  H   H61       1.0  0.8195561300328363  0.0722341114320741  0.188780966955463  1.0000
  H   H62       1.0  0.7609139698357623  0.12090869853476251  0.2679319465018535  1.0000
  H   H63       1.0  0.8622542924462592  0.2421600317529879  0.16594334107266928  1.0000
  H   H64       1.0  0.9245211862163172  0.18966190834926516  0.09006109811053152  1.0000
  H   H65       1.0  0.7419723093703466  0.18871079699749774  0.3076835621995285  1.0000
  H   H66       1.0  0.7183738588608649  0.2818748737110893  0.2190165561250197  1.0000
  H   H67       1.0  0.637187656391923  0.36745461927014833  0.23788053651143315  1.0000
  H   H68       1.0  0.5737769587982555  0.42876004072667223  0.306003887712656  1.0000
  H   H69       1.0  0.7002309921056097  0.32702434118651513  0.40125343118897644  1.0000
  H   H70       1.0  0.8062284993077427  0.2649474812346639  0.33974943321163664  1.0000
  H   H71       1.0  0.7331438370787354  0.2075805540543385  0.44256674373711025  1.0000
  H   H72       1.0  0.8016526638173145  0.1010891617848415  0.4345349659925903  1.0000
  H   H73       1.0  0.8421751444505786  0.11254564959190819  0.32024222375484607  1.0000
  H   H74       1.0  0.887998053763958  0.13512210080337175  0.3282519834042575  1.0000
  H   H75       1.0  0.8488943508096934  0.22930115964925324  0.2595619202134288  1.0000
  H   H76       1.0  0.819918651094376  0.9311419193234725  0.05627354454680501  1.0000
  H   H77       1.0  0.7623918420910483  0.8603407582686489  0.10668005497458916  1.0000
  H   H78       1.0  0.8719112932300702  0.7434255935356974  0.2203017965996707  1.0000
  H   H79       1.0  0.9326235038818423  0.8115618619617847  0.16615429974996226  1.0000
  H   H80       1.0  0.7455731437486577  0.7723297328624098  0.1744758659112051  1.0000
  H   H81       1.0  0.7290231752574668  0.7897135252356762  0.26702372364581367  1.0000
  H   H82       1.0  0.6496216412512226  0.7654086719598039  0.3542655695647526  1.0000
  H   H83       1.0  0.584216114507967  0.7014280207900254  0.4143789437586706  1.0000
  H   H84       1.0  0.7043577018086604  0.5859533612783708  0.3075659298703642  1.0000
  H   H85       1.0  0.8122835871717978  0.6028663797145626  0.24527430150028823  1.0000
  H   H86       1.0  0.7362795974432996  0.6286574935782879  0.19058909045682534  1.0000
  H   H87       1.0  0.8015746333113257  0.6758915853916819  0.08348461232004911  1.0000
  H   H88       1.0  0.8434663670813192  0.7390257625967253  0.09398756731232548  1.0000
  H   H89       1.0  0.8908592731198511  0.6643654909841388  0.113504861683765  1.0000
  H   H90       1.0  0.8560594715752144  0.6756565119663946  0.2084285163665528  1.0000
  C   C1        1.0  0.10041940881304612  0.10093280353945736  0.8965729826829545  1.0000
  C   C2        1.0  0.1449017240174513  0.13322144860901367  0.8565609191732477  1.0000
  C   C3        1.0  0.194315360199802  0.11742729014049051  0.8721728888256521  1.0000
  C   C4        1.0  0.23754128204823385  0.1455813790221683  0.833299032542172  1.0000
  C   C5        1.0  0.2310955818594991  0.19092965054720415  0.7796369410766459  1.0000
  C   C6        1.0  0.18026546086274917  0.20798785446284276  0.7654114309501524  1.0000
  C   C7        1.0  0.13810060315451977  0.1785770309120309  0.8028543626549407  1.0000
  C   C8        1.0  0.27850497996298873  0.22061271578494504  0.7374076321031922  1.0000
  C   C9        1.0  0.29012588914305587  0.3181230832364932  0.694727734729284  1.0000
  C   C10       1.0  0.2799700980825436  0.368156548980579  0.7063704493839609  1.0000
  C   C11       1.0  0.3184431018994545  0.4014963617891993  0.6704497303186229  1.0000
  C   C12       1.0  0.36654256565154236  0.38722808936146436  0.6203652637322677  1.0000
  C   C13       1.0  0.37537029840012076  0.3385403571671475  0.6079793934823527  1.0000
  C   C14       1.0  0.3390350237833956  0.3025973919829923  0.6451783097625423  1.0000
  C   C15       1.0  0.35121511538145705  0.2488330536156055  0.6318347327404367  1.0000
  C   C16       1.0  0.411826127991027  0.20053366478658322  0.6334078363129834  1.0000
  C   C17       1.0  0.4078876039663228  0.1456349387326981  0.6589640766936711  1.0000
  C   C18       1.0  0.34431402677493134  0.14729060229782218  0.6795686398174682  1.0000
  C   C19       1.0  0.30621127153358424  0.21355578749614776  0.6754255364769435  1.0000
  C   C20       1.0  0.40788849040280445  0.4227502981120919  0.581729428439104  1.0000
  C   C21       1.0  0.09219503873211478  0.9185609482030302  0.8959013378790316  1.0000
  C   C22       1.0  0.12356952206202017  0.8812357095669086  0.8564355278098715  1.0000
  C   C23       1.0  0.10561423955873285  0.8335688907113764  0.8724135785908163  1.0000
  C   C24       1.0  0.13307244321418923  0.8003288534142783  0.8342118105976725  1.0000
  C   C25       1.0  0.17995618782235576  0.8127137818468241  0.7808872017657507  1.0000
  C   C26       1.0  0.19915902792025963  0.8591499063083178  0.7663183162990563  1.0000
  C   C27       1.0  0.17044109701024723  0.8940533692571436  0.8030032846634825  1.0000
  C   C28       1.0  0.20933514436287476  0.776895233520058  0.7394073363184291  1.0000
  C   C29       1.0  0.3078821288364821  0.7106771751298808  0.6969517319465696  1.0000
  C   C30       1.0  0.35806464648265296  0.6601625412911076  0.7087442563761358  1.0000
  C   C31       1.0  0.39266413585337295  0.6249005409082286  0.6721285219289613  1.0000
  C   C32       1.0  0.37953146089834183  0.6408021601910362  0.6212341491268276  1.0000
  C   C33       1.0  0.3305894242411611  0.6918774901252647  0.60881747629751  1.0000
  C   C34       1.0  0.2933654791744046  0.7262317580867973  0.6467262650517255  1.0000
  C   C35       1.0  0.23906119086822034  0.7795194035759677  0.6336639468752169  1.0000
  C   C36       1.0  0.19079648836036966  0.7643081762151382  0.6358546521025944  1.0000
  C   C37       1.0  0.13536386284685883  0.7973088764357353  0.6611330030124237  1.0000
  C   C38       1.0  0.1367073275182378  0.8396847527213608  0.6807858899362957  1.0000
  C   C39       1.0  0.20317656022860595  0.8165243823702182  0.6770975793171703  1.0000
  C   C40       1.0  0.41662907923297615  0.6032738715412831  0.5818804233740736  1.0000
  C   C41       1.0  0.9098663693728212  0.1085353897650236  0.9000449061956673  1.0000
  C   C42       1.0  0.8730161548893419  0.15412001822835458  0.8604615372087993  1.0000
  C   C43       1.0  0.826100758106392  0.203950924325575  0.8760349383880738  1.0000
  C   C44       1.0  0.7940246050028887  0.24793201020432315  0.837091698940306  1.0000
  C   C45       1.0  0.8068379414079558  0.241870801675347  0.7834034506949124  1.0000
  C   C46       1.0  0.8523909347034075  0.1906571961801546  0.7692777387746262  1.0000
  C   C47       1.0  0.8860861864182396  0.1477105704341994  0.8067520230407509  1.0000
  C   C48       1.0  0.7723063819590478  0.28967660739316864  0.7411492597194924  1.0000
  C   C49       1.0  0.7043666151722403  0.3019398209211274  0.6983942024745885  1.0000
  C   C50       1.0  0.6522774188533659  0.29247619810990233  0.7098865629816302  1.0000
  C   C51       1.0  0.6174747798957866  0.33001719990261336  0.6729312618668217  1.0000
  C   C52       1.0  0.6352088862052908  0.3765368352409694  0.622126787591647  1.0000
  C   C53       1.0  0.6877550035842004  0.3849107607527458  0.6101204798240192  1.0000
  C   C54       1.0  0.7219637195108602  0.349373992191957  0.6481894467403748  1.0000
  C   C55       1.0  0.7774658249608775  0.3607570650685829  0.6351308254622696  1.0000
  C   C56       1.0  0.7654356679602187  0.4208806466228553  0.6366648167022932  1.0000
  C   C57       1.0  0.7997641654920784  0.4165966563663588  0.6619725216857191  1.0000
  C   C58       1.0  0.840079987664417  0.35322325258171366  0.6823126603106502  1.0000
  C   C59       1.0  0.813848754280059  0.3158682918535334  0.6788962679642481  1.0000
  C   C60       1.0  0.5981787818574131  0.4162648128603691  0.5823343697429452  1.0000
  C   C61       1.0  0.10532477943361593  0.9205638616261992  0.07557380078022638  1.0000
  C   C62       1.0  0.15030723402765037  0.8840719334542012  0.1074780847640114  1.0000
  C   C63       1.0  0.19915921732280148  0.8355488887480857  0.09105873379286328  1.0000
  C   C64       1.0  0.24227473334973842  0.8028169878047394  0.11960442311709583  1.0000
  C   C65       1.0  0.23639503976336584  0.8166115214250169  0.16596499499778616  1.0000
  C   C66       1.0  0.1862516723852964  0.8640803196512578  0.18343439374149276  1.0000
  C   C67       1.0  0.14418414514801733  0.8983521988676414  0.1537430814614209  1.0000
  C   C68       1.0  0.28361801879246673  0.7811834721891914  0.19623926953780574  1.0000
  C   C69       1.0  0.2943817917033869  0.7141727135025349  0.29354885352528726  1.0000
  C   C70       1.0  0.2832184556255727  0.6633612919130485  0.3425069172693043  1.0000
  C   C71       1.0  0.3211333305453439  0.6273988131064668  0.3764725517464669  1.0000
  C   C72       1.0  0.3698302682755139  0.6426974541436578  0.36384750510686115  1.0000
  C   C73       1.0  0.3797595240089251  0.6941325587931574  0.31617417762581823  1.0000
  C   C74       1.0  0.34385853202633865  0.7293947144644759  0.2797402091191543  1.0000
  C   C75       1.0  0.35732451687244543  0.7833531975851001  0.2270923093883327  1.0000
  C   C76       1.0  0.4176085353320643  0.7691605380666502  0.1787594269581233  1.0000
  C   C77       1.0  0.4138528069175748  0.8031319893153966  0.12409264428043076  1.0000
  C   C78       1.0  0.3507111023717897  0.845308198886343  0.1261151788853213  1.0000
  C   C79       1.0  0.31224758732365376  0.820933471758565  0.19168098287608604  1.0000
  C   C80       1.0  0.41054680993842385  0.6043988924618304  0.4000713293824489  1.0000
  C   C81       1.0  0.9128994201784764  0.0963587701178881  0.08971959875896116  1.0000
  C   C82       1.0  0.8758391875583413  0.1276938310027731  0.13509442328429333  1.0000
  C   C83       1.0  0.8291285282295816  0.1089201921992569  0.18467234374010377  1.0000
  C   C84       1.0  0.7963649328959262  0.1364512659714165  0.2284880759411507  1.0000
  C   C85       1.0  0.8082555515071659  0.1841123482845006  0.2226315308358621  1.0000
  C   C86       1.0  0.8536768601003573  0.20406647793628707  0.1716937089049536  1.0000
  C   C87       1.0  0.8880734278614639  0.17541965015097818  0.12886127578085657  1.0000
  C   C88       1.0  0.7729124667199015  0.21341821510978315  0.27053432729243804  1.0000
  C   C89       1.0  0.7032844744164279  0.31027270374594457  0.2833396008617441  1.0000
  C   C90       1.0  0.6505658015713962  0.35822986604683393  0.27430354528333806  1.0000
  C   C91       1.0  0.6154338352671259  0.3926717290517772  0.31171836347551374  1.0000
  C   C92       1.0  0.6334209387955596  0.381589333230238  0.3577007174420502  1.0000
  C   C93       1.0  0.6865066009507286  0.33475484736460004  0.3657016202918087  1.0000
  C   C94       1.0  0.721025387420589  0.29778992239549495  0.33035755839009084  1.0000
  C   C95       1.0  0.7769071048282895  0.24609360012888706  0.34163614023964345  1.0000
  C   C96       1.0  0.7654215053143999  0.19742893177126314  0.40158099243107875  1.0000
  C   C97       1.0  0.8006012918225307  0.1428338836840624  0.39720908651414555  1.0000
  C   C98       1.0  0.8409704628832556  0.1453092746037399  0.3339362041629955  1.0000
  C   C99       1.0  0.8138911399146592  0.21063035736710126  0.29673444402234855  1.0000
  C   C100      1.0  0.5962624131022591  0.41886895677539127  0.39732553619707306  1.0000
  C   C101      1.0  0.9156014583129206  0.9162372257254602  0.0763436372041609  1.0000
  C   C102      1.0  0.879790112463503  0.8752835735744425  0.10805462500258779  1.0000
  C   C103      1.0  0.831398598208203  0.889495360773779  0.09171493469816032  1.0000
  C   C104      1.0  0.7993314195819393  0.850028078780305  0.12018102247010613  1.0000
  C   C105      1.0  0.8137786331895781  0.7970351514810757  0.16626966841072724  1.0000
  C   C106      1.0  0.8612302623565427  0.7839760906089382  0.18354473172261265  1.0000
  C   C107      1.0  0.8947679501625669  0.8221065630699085  0.15399219443776946  1.0000
  C   C108      1.0  0.7788901318979384  0.7545148192258249  0.19674458499549266  1.0000
  C   C109      1.0  0.7122260998680331  0.7135539912902191  0.2943609476210797  1.0000
  C   C110      1.0  0.6610658204193669  0.7263335566922107  0.3436297174406631  1.0000
  C   C111      1.0  0.624857015136186  0.6906773295164683  0.3774178643868495  1.0000
  C   C112      1.0  0.640403197402307  0.6397339536926694  0.3644119340857584  1.0000
  C   C113      1.0  0.6923848504308198  0.6261298704552232  0.31662483504793226  1.0000
  C   C114      1.0  0.7278173476171758  0.6629980106230063  0.2802453963614227  1.0000
  C   C115      1.0  0.7824807865282324  0.6482662555925954  0.22749087075573013  1.0000
  C   C116      1.0  0.7688223553691104  0.6481067562029635  0.17970346124407408  1.0000
  C   C117      1.0  0.8023512629645636  0.67254474201966  0.12474604029649357  1.0000
  C   C118      1.0  0.8436631976270376  0.693888943058404  0.12587129463256727  1.0000
  C   C119      1.0  0.8194760237727933  0.6917429392610117  0.19146326078995204  1.0000
  C   C120      1.0  0.6015582313065764  0.6015934097014934  0.4002727052872003  1.0000
  N   N1        1.0  0.2521688621857336  0.2841392584796266  0.7312890469185548  1.0000
  N   N2        1.0  0.27302106282184013  0.7456754503232403  0.7339280578622931  1.0000
  N   N3        1.0  0.7389483814932518  0.2645257445807871  0.7356710675182679  1.0000
  N   N4        1.0  0.25686221757990074  0.7497729085669033  0.2590464611795371  1.0000
  N   N5        1.0  0.7383532528006355  0.27575924343752684  0.24588455707442608  1.0000
  N   N6        1.0  0.7478458225897666  0.7499411418501012  0.2597648422399673  1.0000
  O   O1        1.0  0.005509723978725802  0.0110416001766822  0.9896452561718477  1.0000
  O   O2        1.0  0.0952424328665344  0.077409959222706  0.9519297195193985  1.0000
  O   O3        1.0  0.07149859291794058  0.09904041329281202  0.8721583156195294  1.0000
  O   O4        1.0  0.43782337978566943  0.4214277740310878  0.5281203479718855  1.0000
  O   O5        1.0  0.4107081378027927  0.4521251317630545  0.6050514263890746  1.0000
  O   O6        1.0  0.06834356951756605  0.8934261621680617  0.9514525224377195  1.0000
  O   O7        1.0  0.09128526320773754  0.9728566217452081  0.8709075157304867  1.0000
  O   O8        1.0  0.4160826042219269  0.6277163744716104  0.5280789921696539  1.0000
  O   O9        1.0  0.44647212571003086  0.5488917173699832  0.6049462573427533  1.0000
  O   O10       1.0  0.8854316145305957  0.10369226185562039  0.955422881090897  1.0000
  O   O11       1.0  0.9632831003188683  0.07804297077209547  0.8751932431392294  1.0000
  O   O12       1.0  0.6234175738667957  0.445932650034436  0.5290231358206301  1.0000
  O   O13       1.0  0.5433663452838431  0.41777509301232396  0.6045098511064849  1.0000
  O   O14       1.0  0.10050332933740702  0.8949634380158783  0.04990255782159633  1.0000
  O   O15       1.0  0.07541330523638122  0.9743061115909625  0.07624613465414862  1.0000
  O   O16       1.0  0.4421399788258071  0.6281420966352371  0.3990740053913413  1.0000
  O   O17       1.0  0.41108583816765787  0.5502663717528832  0.4296073193936323  1.0000
  O   O18       1.0  0.8884453382856917  0.0694319095550213  0.08505485338824305  1.0000
  O   O19       1.0  0.9663916375670921  0.09860959092167582  0.059367488471885055  1.0000
  O   O20       1.0  0.6219349477679899  0.41943352648272747  0.4260440763765417  1.0000
  O   O21       1.0  0.5410942987260939  0.44771511356529453  0.3996689624961575  1.0000
  O   O22       1.0  0.8898391841780793  0.970969260978066  0.050042998317792395  1.0000
  O   O23       1.0  0.9693000874019615  0.8933373319518194  0.07780593896988115  1.0000
  O   O24       1.0  0.6257967828623946  0.547313040098537  0.4005853218016213  1.0000
  O   O25       1.0  0.546437649753642  0.626163197366502  0.4281391790832743  1.0000
  O   O26       1.0  0.5065223097070514  0.5111173186263046  0.489034889442834  1.0000
