data_image0
_chemical_formula_structural       Ca4H40C24O24
_chemical_formula_sum              "Ca4 H40 C24 O24"
_cell_length_a       6.882206324041131
_cell_length_b       11.248164524089432
_cell_length_c       13.767935956623491
_cell_angle_alpha    114.26022841471658
_cell_angle_beta     89.97570415936694
_cell_angle_gamma    107.81812685559086

_space_group_name_H-M_alt    "P 1"
_space_group_IT_number       1

loop_
  _space_group_symop_operation_xyz
  'x, y, z'

loop_
  _atom_site_type_symbol
  _atom_site_label
  _atom_site_symmetry_multiplicity
  _atom_site_fract_x
  _atom_site_fract_y
  _atom_site_fract_z
  _atom_site_occupancy
  Ca  Ca1       1.0  0.0569278453672055  0.10331711275679113  0.6614234325039305  1.0000
  Ca  Ca2       1.0  0.9533660316324489  0.896625996890457  0.8385469742559836  1.0000
  Ca  Ca3       1.0  0.9430696551726072  0.8966815670555095  0.3385766925111468  1.0000
  Ca  Ca4       1.0  0.04663541094095081  0.10337475401448161  0.1614523934893981  1.0000
  H   H1        1.0  0.3921533971111373  0.35487224324912603  0.43066362070879893  1.0000
  H   H2        1.0  0.036628261666578545  0.6449250410492979  0.06903946225620666  1.0000
  H   H3        1.0  0.6078480460112986  0.6451285081388677  0.5693350208734316  1.0000
  H   H4        1.0  0.9633712104390638  0.35507467479237687  0.9309595579608754  1.0000
  H   H5        1.0  0.3658320558763037  0.37114560665607854  0.5657993621857997  1.0000
  H   H6        1.0  0.9940715088382177  0.6287699896151296  0.9339540036656118  1.0000
  H   H7        1.0  0.6341688692202468  0.6288541091224005  0.43419965785581377  1.0000
  H   H8        1.0  0.005927963267424726  0.37122972622654526  0.06604501655146318  1.0000
  H   H9        1.0  0.1963772625917386  0.4122007620726151  0.49869531898636404  1.0000
  H   H10       1.0  0.7835568346553856  0.5877287601445786  0.0011425821250696593  1.0000
  H   H11       1.0  0.803623662504812  0.5877989537058639  0.5013037010552494  1.0000
  H   H12       1.0  0.2164426374502497  0.41227095569709604  0.9988564380920053  1.0000
  H   H13       1.0  0.2853014011255936  0.8794429294158161  0.5444111287586677  1.0000
  H   H14       1.0  0.4055635416555461  0.12043748088665042  0.9555583209144842  1.0000
  H   H15       1.0  0.7146955819373703  0.12055471527002483  0.4555886485526415  1.0000
  H   H16       1.0  0.5944392539201147  0.8795601640294776  0.04444072953180714  1.0000
  H   H17       1.0  0.4473460100043525  0.851547355586284  0.627718018926366  1.0000
  H   H18       1.0  0.5955457476190134  0.1483187946039664  0.8721867561733987  1.0000
  H   H19       1.0  0.5526524265985556  0.14845028951941694  0.3722810320463239  1.0000
  H   H20       1.0  0.4044555949657322  0.8516788503753502  0.12781229444836117  1.0000
  H   H21       1.0  0.5380950625430145  0.8761685558072332  0.514599475439006  1.0000
  H   H22       1.0  0.6615836277420969  0.12364524291119491  0.9852500053915776  1.0000
  H   H23       1.0  0.4619029565717057  0.12383116009763742  0.4853995449535375  1.0000
  H   H24       1.0  0.33841771539167803  0.8763524025511773  0.014748319067024264  1.0000
  H   H25       1.0  0.5681120348847486  0.6364340270420783  0.8573464392484026  1.0000
  H   H26       1.0  0.9315171225595122  0.3634961914434244  0.6424028177616492  1.0000
  H   H27       1.0  0.4318894054925266  0.36356672193064554  0.14265583314958968  1.0000
  H   H28       1.0  0.06848432056291633  0.6365045599445692  0.3575958238205813  1.0000
  H   H29       1.0  0.4435568928821638  0.6049100156898533  0.961680138572163  1.0000
  H   H30       1.0  0.8386854534953514  0.39508971189411574  0.5380915774552122  1.0000
  H   H31       1.0  0.5564466168534566  0.39509487330565213  0.03832425080406666  1.0000
  H   H32       1.0  0.16131453663616221  0.6049110395570667  0.461907064302487  1.0000
  H   H33       1.0  0.29792956367535345  0.6091448614216831  0.8558349830728957  1.0000
  H   H34       1.0  0.6887048025396753  0.39085633262897806  0.6439736887284299  1.0000
  H   H35       1.0  0.7020718761528855  0.39085588706799274  0.14416801548824756  1.0000
  H   H36       1.0  0.31129467011499673  0.6091433836957522  0.35602460532549435  1.0000
  H   H37       1.0  0.49166880682480496  0.27690954101814214  0.772174732023764  1.0000
  H   H38       1.0  0.21459894847574665  0.723062412186515  0.7276967302399129  1.0000
  H   H39       1.0  0.5083301472549523  0.7230891392140252  0.22782466665269396  1.0000
  H   H40       1.0  0.7854030121235313  0.276939374327931  0.2723022590460857  1.0000
  C   C1        1.0  0.13701502386280137  0.1952663930699288  0.44100468147875194  1.0000
  C   C2        1.0  0.9413317051010496  0.8046794862976088  0.05892704868123384  1.0000
  C   C3        1.0  0.8629878695053819  0.8047343558395994  0.5589975907437789  1.0000
  C   C4        1.0  0.05866922109356658  0.19532023044698119  0.9410705190340708  1.0000
  C   C5        1.0  0.28420116045689536  0.34184441188072173  0.4869987442786864  1.0000
  C   C6        1.0  0.9417363952494  0.6580433688414971  0.012780862022651676  1.0000
  C   C7        1.0  0.7158002821165045  0.658156339024217  0.5130006234666952  1.0000
  C   C8        1.0  0.05826359433308433  0.34195738212663684  0.9872185058981913  1.0000
  C   C9        1.0  0.5374269394666342  0.06070872382439771  0.6508136398082273  1.0000
  C   C10       1.0  0.4763848423814992  0.9391183415485858  0.8490491329728584  1.0000
  C   C11       1.0  0.4625720140640866  0.9392899559247142  0.3491864850313817  1.0000
  C   C12       1.0  0.5236175357059665  0.0608813741667049  0.1509498868932866  1.0000
  C   C13       1.0  0.44497547226030315  0.9076893161817735  0.5788228786062318  1.0000
  C   C14       1.0  0.5369604378383527  0.09216499927503462  0.9210749487649464  1.0000
  C   C15       1.0  0.5550225463053877  0.0923103992400414  0.4211768679494625  1.0000
  C   C16       1.0  0.4630409047463929  0.9078326457042822  0.07892410185681337  1.0000
  C   C17       1.0  0.3799180587067498  0.4270005618118731  0.8102916232106523  1.0000
  C   C18       1.0  0.9528649312874717  0.5729327227404467  0.6895511861246248  1.0000
  C   C19       1.0  0.6200425259127372  0.5729794917553905  0.18969498483888  1.0000
  C   C20       1.0  0.047132668691958285  0.4270690625144199  0.310449982177225  1.0000
  C   C21       1.0  0.4237487321989378  0.5789285178479703  0.8753151845479223  1.0000
  C   C22       1.0  0.8447471054535499  0.4210490333513591  0.6244519929967964  1.0000
  C   C23       1.0  0.5762557125017195  0.4210753354748321  0.12468958311221456  1.0000
  C   C24       1.0  0.15525433657081325  0.5789517170705312  0.3755481009117361  1.0000
  O   O1        1.0  0.08248506235567281  0.1334504572011994  0.501545614465492  1.0000
  O   O2        1.0  0.9484461798875188  0.8665538633471854  0.9984438922341352  1.0000
  O   O3        1.0  0.9175163807667562  0.8665502941867944  0.4984530271167387  1.0000
  O   O4        1.0  0.051555261587815024  0.13344688659164922  0.001556927837555104  1.0000
  O   O5        1.0  0.06648175952847882  0.13213535633307325  0.3409819807027361  1.0000
  O   O6        1.0  0.934398978036228  0.8678521588566004  0.15902280313378722  1.0000
  O   O7        1.0  0.9335201010821451  0.8678633242557582  0.6590166914596408  1.0000
  O   O8        1.0  0.06559903943139744  0.13214755559910435  0.8409783957482161  1.0000
  O   O9        1.0  0.7302952266658947  0.11728791281505126  0.67428426105662  1.0000
  O   O10       1.0  0.6126835622368247  0.8825144811784754  0.8255410926671019  1.0000
  O   O11       1.0  0.26969936734304417  0.8827107666405852  0.32571659047254536  1.0000
  O   O12       1.0  0.3873143568892417  0.11748212880076643  0.1744576106018201  1.0000
  O   O13       1.0  0.41151685165679913  0.1278505047320238  0.6879197530530803  1.0000
  O   O14       1.0  0.28336858280403737  0.872000768763094  0.8120060701422104  1.0000
  O   O15       1.0  0.5884831368276126  0.8721502452700066  0.3120810671940716  1.0000
  O   O16       1.0  0.7166318275608248  0.1279979143041956  0.18798897137986606  1.0000
  O   O17       1.0  0.2193789180079619  0.3504606031407108  0.7453017258658862  1.0000
  O   O18       1.0  0.8688542485637855  0.6494169547197687  0.754718280792801  1.0000
  O   O19       1.0  0.7806413805408781  0.6495546279188603  0.2547192100810633  1.0000
  O   O20       1.0  0.13114615905592336  0.3505817259322584  0.24528039154503742  1.0000
  O   O21       1.0  0.5266592475785856  0.3810213760096417  0.8271642648533798  1.0000
  O   O22       1.0  0.1455157772136246  0.618987334234511  0.6726040478060966  1.0000
  O   O23       1.0  0.4733475861760894  0.6189814425433654  0.17283942858890808  1.0000
  O   O24       1.0  0.8544856653597747  0.3810134166704274  0.32739531993928483  1.0000
