data_image0
_chemical_formula_structural       Er4H36C48N12Cl12O36
_chemical_formula_sum              "Er4 H36 C48 N12 Cl12 O36"
_cell_length_a       12.537754460094238
_cell_length_b       13.536163420612857
_cell_length_c       15.316214448972154
_cell_angle_alpha    114.26027811464041
_cell_angle_beta     90.00038869326322
_cell_angle_gamma    90.00003326042838

_space_group_name_H-M_alt    "P 1"
_space_group_IT_number       1

loop_
  _space_group_symop_operation_xyz
  'x, y, z'

loop_
  _atom_site_type_symbol
  _atom_site_label
  _atom_site_symmetry_multiplicity
  _atom_site_fract_x
  _atom_site_fract_y
  _atom_site_fract_z
  _atom_site_occupancy
  Er  Er1       1.0  0.4442459342649202  0.1603599993506464  0.3056160566088906  1.0000
  Er  Er2       1.0  0.9442430302493465  0.33964532401700603  0.6943835284637815  1.0000
  Er  Er3       1.0  0.555751770265026  0.8396396235144717  0.6943832005352347  1.0000
  Er  Er4       1.0  0.055758662231376405  0.6603534961763556  0.3056147782137018  1.0000
  H   H1        1.0  0.251838579181289  0.9556449095097506  0.3189197073656799  1.0000
  H   H2        1.0  0.7518425578775024  0.5443562483340969  0.6810816860508098  1.0000
  H   H3        1.0  0.7481599229500592  0.044353054744256305  0.6810821996005886  1.0000
  H   H4        1.0  0.24815674183354738  0.455645820610435  0.31891717198291053  1.0000
  H   H5        1.0  0.24835379107767613  0.8366687166263277  0.10729842303637584  1.0000
  H   H6        1.0  0.7483556031283243  0.66332755116116  0.8927024441859646  1.0000
  H   H7        1.0  0.7516463062276132  0.1633292704538647  0.8927015336009989  1.0000
  H   H8        1.0  0.2516452917667706  0.33667125381524693  0.1072971627117028  1.0000
  H   H9        1.0  0.18459311040006557  0.8025089611270529  0.19188761577539268  1.0000
  H   H10       1.0  0.6845950434307185  0.6974871199529956  0.8081082579644561  1.0000
  H   H11       1.0  0.8154061893187221  0.1974914568125996  0.8081132419662326  1.0000
  H   H12       1.0  0.31540585146705524  0.30251167741568  0.1918919990446994  1.0000
  H   H13       1.0  0.12301806570907563  0.2940655717657208  0.3699993406041813  1.0000
  H   H14       1.0  0.6230241173093419  0.20593444560427795  0.6300004129771039  1.0000
  H   H15       1.0  0.8769804364079904  0.7059348766033365  0.6299989166887628  1.0000
  H   H16       1.0  0.3769783727787655  0.7940659571259161  0.3700017449985538  1.0000
  H   H17       1.0  0.25028687503309044  0.19428240987331688  0.4758341837474092  1.0000
  H   H18       1.0  0.7502921160074866  0.3057180940759281  0.5241658033711829  1.0000
  H   H19       1.0  0.7497084367218182  0.8057204769584275  0.5241643245299983  1.0000
  H   H20       1.0  0.24970877889296625  0.6942806956850232  0.47583510374944626  1.0000
  H   H21       1.0  0.11889902392712773  0.24746304642399505  0.498526920837989  1.0000
  H   H22       1.0  0.6189016513939338  0.25253448653804605  0.50147515358249  1.0000
  H   H23       1.0  0.8811002757836165  0.7525373943388375  0.5014719865692001  1.0000
  H   H24       1.0  0.3810976483260334  0.7474651135068909  0.4985260539016068  1.0000
  H   H25       1.0  0.711138114112437  0.0854613829130884  0.2846186150337644  1.0000
  H   H26       1.0  0.21113897661241773  0.4145405790510352  0.7153830012132901  1.0000
  H   H27       1.0  0.28886517357319974  0.9145381867084411  0.7153851929100982  1.0000
  H   H28       1.0  0.7888627158739752  0.5854598541085778  0.2846165563136864  1.0000
  H   H29       1.0  0.8098368077644695  0.27794918012541797  0.2696803259317874  1.0000
  H   H30       1.0  0.30983527963240937  0.22205481189692475  0.7303193257714256  1.0000
  H   H31       1.0  0.19016328953694744  0.722049632457214  0.7303186308516346  1.0000
  H   H32       1.0  0.6901632224983701  0.7779472266151971  0.2696821327054479  1.0000
  H   H33       1.0  0.8709657293490952  0.16001465286999664  0.2672541993942232  1.0000
  H   H34       1.0  0.37096668823471657  0.3399862976353701  0.7327472757172657  1.0000
  H   H35       1.0  0.12903436796067072  0.8399857650711554  0.7327466583501732  1.0000
  H   H36       1.0  0.6290350042627041  0.6600157332750313  0.26725483288215907  1.0000
  C   C1        1.0  0.273090881113511  0.9434041733596956  0.24530659644379674  1.0000
  C   C2        1.0  0.7730938798126064  0.5565914304945635  0.7546895913876385  1.0000
  C   C3        1.0  0.726907621011293  0.05659462400448229  0.7546936605570453  1.0000
  C   C4        1.0  0.22690621748613893  0.4434073896957996  0.24530871528430956  1.0000
  C   C5        1.0  0.19517218630657857  0.2570926814297607  0.38533106523737365  1.0000
  C   C6        1.0  0.695175741874131  0.2429084253805199  0.6146688395725803  1.0000
  C   C7        1.0  0.8048271134017855  0.7429093951225029  0.6146671426848728  1.0000
  C   C8        1.0  0.30482674820830624  0.7570903643834298  0.38533206755358407  1.0000
  C   C9        1.0  0.7095716647782384  0.16610990726204725  0.2831634180427329  1.0000
  C   C10       1.0  0.20956929815115904  0.33389129176780596  0.7168333361675894  1.0000
  C   C11       1.0  0.2904300277215556  0.8338904878589164  0.7168393900416348  1.0000
  C   C12       1.0  0.7904292039796205  0.6661107467443158  0.2831681223092771  1.0000
  C   C13       1.0  0.6107088803467563  0.981194531984876  0.46617409377235225  1.0000
  C   C14       1.0  0.11071357861568032  0.5188036790766688  0.53382411842626  1.0000
  C   C15       1.0  0.38929041937289816  0.0188034398783543  0.5338271630852134  1.0000
  C   C16       1.0  0.8892873162582334  0.48118948432174596  0.46617078544244356  1.0000
  C   C17       1.0  0.5390026045427662  0.033582622938489196  0.4286570842819515  1.0000
  C   C18       1.0  0.039003108562312115  0.46641709344640236  0.5713407857217518  1.0000
  C   C19       1.0  0.4609966951605032  0.9664137663894152  0.5713403212802035  1.0000
  C   C20       1.0  0.9609969887265849  0.5335793110984497  0.4286553196202121  1.0000
  C   C21       1.0  0.4236200556561301  0.054250011018155  0.46444634757325803  1.0000
  C   C22       1.0  0.9236206931909553  0.4457519631523112  0.535554493272187  1.0000
  C   C23       1.0  0.5763792440683205  0.9457520198877416  0.5355557610178606  1.0000
  C   C24       1.0  0.07638099927693531  0.5542428208215712  0.4644410113373  1.0000
  C   C25       1.0  0.4298242790660468  0.07817365762770828  0.9850871075140476  1.0000
  C   C26       1.0  0.9298222000447115  0.42183161146594716  0.014912377429183681  1.0000
  C   C27       1.0  0.5701774134304998  0.9218308193591085  0.014914601969436983  1.0000
  C   C28       1.0  0.07017789726300092  0.5781720704463353  0.9850877314568012  1.0000
  C   C29       1.0  0.4494029964901431  0.08978920305163028  0.07865783744688308  1.0000
  C   C30       1.0  0.9494020099101522  0.41021447350776435  0.921345083369765  1.0000
  C   C31       1.0  0.5505994935917259  0.9102136609704415  0.9213426211898793  1.0000
  C   C32       1.0  0.05059808740322321  0.5897908213707622  0.07865627636571297  1.0000
  C   C33       1.0  0.5226825020892037  0.0069635248324714984  0.0936360645176748  1.0000
  C   C34       1.0  0.022678609394255003  0.49304010548149785  0.9063696951170143  1.0000
  C   C35       1.0  0.4773207855836504  0.9930393391910924  0.9063643941218587  1.0000
  C   C36       1.0  0.9773198927398213  0.5069651817863061  0.09363231472440955  1.0000
  C   C37       1.0  0.49448039328549953  0.5302037930200497  0.41876184208033607  1.0000
  C   C38       1.0  0.9944774350098485  0.9697966954519188  0.5812373847250284  1.0000
  C   C39       1.0  0.5055197040287497  0.4697990557820616  0.5812399167710822  1.0000
  C   C40       1.0  0.005519471926120901  0.030201306837724897  0.4187612716783136  1.0000
  C   C41       1.0  0.47670199800867163  0.42150565611615315  0.4047315024158139  1.0000
  C   C42       1.0  0.9767036948390385  0.07849730529269289  0.5952719576947914  1.0000
  C   C43       1.0  0.5232980993026005  0.5784955721119829  0.5952696556975852  1.0000
  C   C44       1.0  0.02330039042538351  0.9215014844742624  0.4047289494369081  1.0000
  C   C45       1.0  0.48721299173290333  0.3894998853157928  0.48948472213820077  1.0000
  C   C46       1.0  0.987210818884627  0.11049908703188997  0.510515358759335  1.0000
  C   C47       1.0  0.5127910935291454  0.6105005402405935  0.5105154855085559  1.0000
  C   C48       1.0  0.012788480826991102  0.8894989076545272  0.48948394776379434  1.0000
  N   N1        1.0  0.23351729755650305  0.8541257943896594  0.17723784462830847  1.0000
  N   N2        1.0  0.7335217117756443  0.6458672220643606  0.8227578174455631  1.0000
  N   N3        1.0  0.7664827997487864  0.1458721926905326  0.822762112009066  1.0000
  N   N4        1.0  0.2664799807119352  0.3541323932005297  0.17724208982388484  1.0000
  N   N5        1.0  0.19013651414147156  0.23851089539036957  0.4636563367200496  1.0000
  N   N6        1.0  0.6901394350121208  0.26149018485936176  0.5363441832355491  1.0000
  N   N7        1.0  0.8098603927897515  0.761490378478129  0.5363409207133999  1.0000
  N   N8        1.0  0.3098614598913231  0.7385102254755651  0.46365732462309245  1.0000
  N   N9        1.0  0.8038205481111123  0.20229685124569133  0.26798219073037194  1.0000
  N   N10       1.0  0.30381908159530724  0.29770550516848  0.7320161683515211  1.0000
  N   N11       1.0  0.19617954919180391  0.7977027716239248  0.7320170664220598  1.0000
  N   N12       1.0  0.696181015714771  0.7022965409543784  0.2679846400194066  1.0000
  Cl  Cl1       1.0  0.7417752494592023  0.9627918997795956  0.4280276535285663  1.0000
  Cl  Cl2       1.0  0.24177548856894768  0.5372068273618068  0.5719695183389107  1.0000
  Cl  Cl3       1.0  0.25822564544573373  0.0372093208423152  0.5719741546990775  1.0000
  Cl  Cl4       1.0  0.7582246087283055  0.46279118254157225  0.4280284879640277  1.0000
  Cl  Cl5       1.0  0.34746337061762494  0.16729393413042704  0.9619150122685909  1.0000
  Cl  Cl6       1.0  0.8474646171115696  0.33271100979077045  0.03808520106166204  1.0000
  Cl  Cl7       1.0  0.6525367266954448  0.8327097325663999  0.03808639684035598  1.0000
  Cl  Cl8       1.0  0.15253627778650983  0.6672894157596047  0.9619150065740244  1.0000
  Cl  Cl9       1.0  0.4877834178914641  0.5602940585924826  0.3191808779606973  1.0000
  Cl  Cl10      1.0  0.987781262487566  0.9397055943901119  0.6808180019800715  1.0000
  Cl  Cl11      1.0  0.5122174770149642  0.4397079723164126  0.6808212306359565  1.0000
  Cl  Cl12      1.0  0.0122188348165366  0.060293210584795504  0.3191816049148315  1.0000
  O   O1        1.0  0.33086322622407494  0.009561680179572799  0.22910060998405873  1.0000
  O   O2        1.0  0.8308674293129175  0.4904366276843248  0.770904886484182  1.0000
  O   O3        1.0  0.6691376686760722  0.9904354813996786  0.7709003465100325  1.0000
  O   O4        1.0  0.1691334655866541  0.5095646081530418  0.22909562152051416  1.0000
  O   O5        1.0  0.2738024604221394  0.2374556780525978  0.3301933702664428  1.0000
  O   O6        1.0  0.7738072809832204  0.26254488396526904  0.6698093805697952  1.0000
  O   O7        1.0  0.7261968392787566  0.7625423470647307  0.6698033358107693  1.0000
  O   O8        1.0  0.22619361391573994  0.737453095508698  0.3301912261818245  1.0000
  O   O9        1.0  0.6249696592830818  0.21891954111763573  0.2951464873941063  1.0000
  O   O10       1.0  0.12496556534725302  0.28108052161668695  0.7048500291448505  1.0000
  O   O11       1.0  0.3750328308175457  0.7810832696503383  0.7048585220230166  1.0000
  O   O12       1.0  0.8750329367781691  0.7189215321108905  0.29515012910906085  1.0000
  O   O13       1.0  0.5623207260960471  0.06760920325937998  0.3658034756184563  1.0000
  O   O14       1.0  0.06232092982092752  0.4323881624134387  0.6341943052908263  1.0000
  O   O15       1.0  0.43767857359887335  0.9323855807100048  0.6341920289827244  1.0000
  O   O16       1.0  0.937679965060454  0.5676090524199038  0.3658021004229184  1.0000
  O   O17       1.0  0.36684499372761087  0.10294275164218193  0.4262129670938535  1.0000
  O   O18       1.0  0.8668475113259293  0.39705494220988397  0.5737872779359634  1.0000
  O   O19       1.0  0.633152710793681  0.897053637682717  0.5737844384627664  1.0000
  O   O20       1.0  0.13315258597131674  0.6029430676934878  0.4262107283669678  1.0000
  O   O21       1.0  0.4127125541941795  0.16362416132653831  0.1550507148302671  1.0000
  O   O22       1.0  0.9127092955236907  0.33637774135556936  0.8449526507147027  1.0000
  O   O23       1.0  0.5872859479413466  0.8363746056067213  0.844952142616492  1.0000
  O   O24       1.0  0.08729239696955911  0.6636234868755718  0.15504850740423132  1.0000
  O   O25       1.0  0.5366446913765586  0.021516698998567594  0.1795275613422973  1.0000
  O   O26       1.0  0.036643271048674805  0.4784845530054441  0.8204773941360913  1.0000
  O   O27       1.0  0.4633554059335197  0.9784853471242839  0.8204732470286303  1.0000
  O   O28       1.0  0.9633576238568793  0.5215199239798662  0.1795243153446292  1.0000
  O   O29       1.0  0.4522419262076556  0.34623405252925454  0.32591892635587527  1.0000
  O   O30       1.0  0.9522395352661663  0.1537688396402075  0.674082413575164  1.0000
  O   O31       1.0  0.5477573735102511  0.6537688114868061  0.6740815322698097  1.0000
  O   O32       1.0  0.0477613596301083  0.846229147441491  0.3259175430649747  1.0000
  O   O33       1.0  0.47914922430645407  0.28818465061389986  0.46752034986431573  1.0000
  O   O34       1.0  0.9791512844382882  0.21181591196793187  0.5324802757976599  1.0000
  O   O35       1.0  0.5208540633714592  0.7118165700125089  0.5324814583716418  1.0000
  O   O36       1.0  0.020845622492011304  0.7881804773554676  0.4675171297561889  1.0000
