data_image0
_chemical_formula_structural       Nd2H18C16N2O18
_chemical_formula_sum              "Nd2 H18 C16 N2 O18"
_cell_length_a       7.795742581952504
_cell_length_b       7.593121839534562
_cell_length_c       9.683821585330177
_cell_angle_alpha    95.91482822038658
_cell_angle_beta     101.91472459569174
_cell_angle_gamma    99.18649245373972

_space_group_name_H-M_alt    "P 1"
_space_group_IT_number       1

loop_
  _space_group_symop_operation_xyz
  'x, y, z'

loop_
  _atom_site_type_symbol
  _atom_site_label
  _atom_site_symmetry_multiplicity
  _atom_site_fract_x
  _atom_site_fract_y
  _atom_site_fract_z
  _atom_site_occupancy
  Nd  Nd1       1.0  0.7185506452421323  0.21176740300563066  0.13904729296029933  1.0000
  Nd  Nd2       1.0  0.28144450733643833  0.788233481270801  0.8609520506938042  1.0000
  H   H1        1.0  0.4109019411881718  0.4483376637940565  0.09315228340008024  1.0000
  H   H2        1.0  0.5890912551439415  0.551660898514193  0.9068372152452329  1.0000
  H   H3        1.0  0.3359724521307684  0.2562634094251733  0.9977052343458228  1.0000
  H   H4        1.0  0.66402491108002  0.7437365210225974  0.0022798988717696238  1.0000
  H   H5        1.0  0.5497673662101404  0.479699015723824  0.3043326589386837  1.0000
  H   H6        1.0  0.4502273284547443  0.5203062415117685  0.695658795468816  1.0000
  H   H7        1.0  0.7508638984390219  0.5123316423590081  0.38915184106488726  1.0000
  H   H8        1.0  0.24912746638955946  0.4876639255267318  0.6108473915763568  1.0000
  H   H9        1.0  0.8998016833596268  0.5966125301746315  0.2375228607650827  1.0000
  H   H10       1.0  0.100190894579093  0.4033883157898541  0.7624802035285543  1.0000
  H   H11       1.0  0.9224214387543912  0.593561313167413  0.07870425587861266  1.0000
  H   H12       1.0  0.0775720276793237  0.4064436063812095  0.921298333114045  1.0000
  H   H13       1.0  0.467533146652748  0.6837518013832947  0.461275842162742  1.0000
  H   H14       1.0  0.532472422662771  0.31624859907893205  0.5387271674639891  1.0000
  H   H15       1.0  0.6745354161907287  0.817152598639076  0.695184044732841  1.0000
  H   H16       1.0  0.325470749831723  0.18285049395102249  0.3048193350091921  1.0000
  H   H17       1.0  0.9097658495967735  0.09135664119779816  0.7012462788141037  1.0000
  H   H18       1.0  0.09024488869470562  0.9086437297113292  0.2987523809553566  1.0000
  C   C1        1.0  0.5852736027767805  0.8845430931245485  0.34868965275300223  1.0000
  C   C2        1.0  0.41473065952255445  0.11545739435869959  0.6513121257717034  1.0000
  C   C3        1.0  0.5707017219639638  0.801350123293055  0.46889566471012506  1.0000
  C   C4        1.0  0.4293048494488474  0.19864887947654344  0.5311073604870559  1.0000
  C   C5        1.0  0.6848804592902836  0.8770817366431557  0.599066361642798  1.0000
  C   C6        1.0  0.3151274125732826  0.12291721449775388  0.4009368641824765  1.0000
  C   C7        1.0  0.8135987379046556  0.02928455230824767  0.6036029404964368  1.0000
  C   C8        1.0  0.186408112165374  0.9707159027022879  0.39639717833659927  1.0000
  C   C9        1.0  0.8230985088484245  0.10053149214203215  0.477803569334796  1.0000
  C   C10       1.0  0.1769050365762511  0.8994718098824491  0.5221963177292537  1.0000
  C   C11       1.0  0.46437211163258507  0.8136906701170544  0.20499224662969345  1.0000
  C   C12       1.0  0.535626073499543  0.18630587951216163  0.7950112656314802  1.0000
  C   C13       1.0  0.9686287573673056  0.2529174295319549  0.4686988725282646  1.0000
  C   C14       1.0  0.031369307597095976  0.7470846267663588  0.5313031183875412  1.0000
  C   C15       1.0  0.03935224883444019  0.08767596560305438  0.9753008276354223  1.0000
  C   C16       1.0  0.9606505545246337  0.9123176145988549  0.024705177970695023  1.0000
  N   N1        1.0  0.7076798182627256  0.03202285725068069  0.353489076434606  1.0000
  N   N2        1.0  0.2923221414885547  0.9679790795538921  0.646512485891556  1.0000
  O   O1        1.0  0.45408260550560453  0.9267692668380432  0.11390846770674301  1.0000
  O   O2        1.0  0.5459064830365961  0.07322760879968367  0.8860946706316855  1.0000
  O   O3        1.0  0.38365712468022645  0.6527228235869769  0.18123426536512716  1.0000
  O   O4        1.0  0.6163505952592628  0.347269133251558  0.8187744186435923  1.0000
  O   O5        1.0  0.9741078713683249  0.2906793408535434  0.34453699767096424  1.0000
  O   O6        1.0  0.025892674329888576  0.7093281188564827  0.6554638731556752  1.0000
  O   O7        1.0  0.07806458863526441  0.3263054014153538  0.5832519428426722  1.0000
  O   O8        1.0  0.9219363821495606  0.6736978622971745  0.41675166486091103  1.0000
  O   O9        1.0  0.9730996873953544  0.2254795999563298  0.002623355501874888  1.0000
  O   O10       1.0  0.02690151715948731  0.7745126858103358  0.997382264418498  1.0000
  O   O11       1.0  0.16480672353751658  0.0794173570709589  0.9107867338708218  1.0000
  O   O12       1.0  0.835190241919058  0.9205739498718513  0.08921191626401993  1.0000
  O   O13       1.0  0.43589942287906774  0.3256807198704763  0.0738104807285822  1.0000
  O   O14       1.0  0.5640950607729708  0.6743178615937493  0.9261771575969677  1.0000
  O   O15       1.0  0.6447543091679151  0.4150598684454676  0.34082101003828313  1.0000
  O   O16       1.0  0.3552353104270479  0.584940053243457  0.6591721936761274  1.0000
  O   O17       1.0  0.8553976410365821  0.5282564553722153  0.14013790913061547  1.0000
  O   O18       1.0  0.14459493033672288  0.47174442598460314  0.8598641246890895  1.0000
