data_image0
_chemical_formula_structural       Dy2H62C54N4O12
_chemical_formula_sum              "Dy2 H62 C54 N4 O12"
_cell_length_a       7.951597396692764
_cell_length_b       8.460175031
_cell_length_c       19.5976
_cell_angle_alpha    90.0
_cell_angle_beta     98.25560955249689
_cell_angle_gamma    90.0

_space_group_name_H-M_alt    "P 1"
_space_group_IT_number       1

loop_
  _space_group_symop_operation_xyz
  'x, y, z'

loop_
  _atom_site_type_symbol
  _atom_site_label
  _atom_site_symmetry_multiplicity
  _atom_site_fract_x
  _atom_site_fract_y
  _atom_site_fract_z
  _atom_site_occupancy
  Dy  Dy1       1.0  0.49999633736483406  0.6636399340944052  0.7500014704926984  1.0000
  Dy  Dy2       1.0  0.49999633736483406  0.3363571072197615  0.24999789862675206  1.0000
  H   H1        1.0  0.479719810173826  0.8798789590905327  0.5947783284066901  1.0000
  H   H2        1.0  0.5202703230006733  0.8798848691337469  0.9052310979717503  1.0000
  H   H3        1.0  0.5202512613368524  0.12011571820634968  0.4052335592956027  1.0000
  H   H4        1.0  0.4797248932841781  0.12011571820634968  0.0947714808193609  1.0000
  H   H5        1.0  0.0911566887059863  0.7624475825103048  0.6375892766378044  1.0000
  H   H6        1.0  0.908829632135749  0.7624558565708027  0.8624097223009528  1.0000
  H   H7        1.0  0.9088220074702205  0.237555368847076  0.362415401282874  1.0000
  H   H8        1.0  0.09116050103875037  0.2375612788902828  0.1375854166137174  1.0000
  H   H9        1.0  0.5000039620303625  0.2324880977985515  0.7500039557757887  1.0000
  H   H10       1.0  0.5000103159183027  0.767520763602036  0.2500007540905429  1.0000
  H   H11       1.0  0.5260536318027675  0.3364398478247068  0.5508725635266031  1.0000
  H   H12       1.0  0.4739644584786618  0.3364516679111276  0.9491349197809598  1.0000
  H   H13       1.0  0.4739682708114258  0.663565467549958  0.44912595709124037  1.0000
  H   H14       1.0  0.5260536318027675  0.6635512834462531  0.0508684813940974  1.0000
  H   H15       1.0  0.9177898849073569  0.339935047379285  0.6719394867601736  1.0000
  H   H16       1.0  0.0822282053740722  0.3399421394311304  0.8280736094795885  1.0000
  H   H17       1.0  0.0822205807085439  0.6600619939348886  0.32806755233055185  1.0000
  H   H18       1.0  0.9177898849073569  0.6600489918398225  0.1719282608957826  1.0000
  H   H19       1.0  0.8172955224861838  0.27365982281885687  0.5889772339228756  1.0000
  H   H20       1.0  0.1827327340159499  0.2736740069225618  0.9110349238063051  1.0000
  H   H21       1.0  0.18272510935042155  0.7263289444348118  0.411026315324456  1.0000
  H   H22       1.0  0.8172815439327152  0.7263218523829591  0.08896825526033329  1.0000
  H   H23       1.0  0.782857449856678  0.1717895900113788  0.6651390996393971  1.0000
  H   H24       1.0  0.21714793264887786  0.1717895900113788  0.834873766505531  1.0000
  H   H25       1.0  0.2171568280919871  0.8281979952336511  0.3348666307600539  1.0000
  H   H26       1.0  0.782861262189442  0.8281968132250128  0.1651306472162375  1.0000
  H   H27       1.0  0.8866342307871518  0.6629910113499164  0.7124468720225394  1.0000
  H   H28       1.0  0.1133686101632279  0.6630111054968282  0.7875566612519691  1.0000
  H   H29       1.0  0.11335717316493538  0.3369882998346228  0.2875626283920383  1.0000
  H   H30       1.0  0.8866304184543878  0.3369965738951137  0.21244256778161488  1.0000
  H   H31       1.0  0.9054125112021365  0.082187424899864  0.8179945106168702  1.0000
  H   H32       1.0  0.094590329748236  0.0821767868220817  0.6820034097254393  1.0000
  H   H33       1.0  0.09459541285858818  0.9178190724834394  0.1819991134709298  1.0000
  H   H34       1.0  0.9054150527573128  0.9178178904748009  0.3180007818879105  1.0000
  H   H35       1.0  0.7721943551174064  0.13500666307904644  0.8792502786088576  1.0000
  H   H36       1.0  0.22779323650191685  0.1350090270963307  0.6207457327666573  1.0000
  H   H37       1.0  0.22782500594161084  0.8650057443474635  0.1207460528704516  1.0000
  H   H38       1.0  0.772179105786357  0.8650092903733935  0.3792534723076955  1.0000
  H   H39       1.0  0.771511947552753  0.2545242849125131  0.804423812625501  1.0000
  H   H40       1.0  0.22846674862345395  0.254530194955727  0.6955706599639129  1.0000
  H   H41       1.0  0.2284883518424436  0.7454739384102922  0.1955688569789018  1.0000
  H   H42       1.0  0.7715144891079289  0.745477484436222  0.30443008389654125  1.0000
  H   H43       1.0  0.14441751896605126  0.8965500089781742  0.5374296349022245  1.0000
  H   H44       1.0  0.8555662603205005  0.8965523729954583  0.9625732980967642  1.0000
  H   H45       1.0  0.8555510109894511  0.10345648840512918  0.4625810841946674  1.0000
  H   H46       1.0  0.1444302267419317  0.1034647624656202  0.0374232315317329  1.0000
  H   H47       1.0  0.1421148699769503  0.5776405313238937  0.5352069603744383  1.0000
  H   H48       1.0  0.857903220304479  0.5776653535053811  0.9647984818668718  1.0000
  H   H49       1.0  0.8578981371941268  0.422344689903852  0.4647930830566764  1.0000
  H   H50       1.0  0.14210724531142194  0.4223576919989114  0.0352049853579146  1.0000
  H   H51       1.0  0.1416065589418309  0.3709556821815595  0.5490943561648791  1.0000
  H   H52       1.0  0.8583911988981967  0.3709887784235376  0.9509017372331883  1.0000
  H   H53       1.0  0.8584000943413059  0.6290248110116181  0.45090276575272986  1.0000
  H   H54       1.0  0.1416103712745951  0.6290354490894003  0.0490945782732908  1.0000
  H   H55       1.0  0.27129576566522917  0.4501490791910782  0.4907201025217632  1.0000
  H   H56       1.0  0.7287312200593161  0.4501739013725583  0.009285857972521686  1.0000
  H   H57       1.0  0.7287223246161998  0.5498325960107451  0.5092792165207882  1.0000
  H   H58       1.0  0.2712779747789965  0.5498432340885202  0.9907170249495606  1.0000
  H   H59       1.0  0.6627842171401923  0.984896880911826  0.5117884069716325  1.0000
  H   H60       1.0  0.3371995621463668  0.9849110650155309  0.9882135054942225  1.0000
  H   H61       1.0  0.3371855835928983  0.015094250359133799  0.4882167732291975  1.0000
  H   H62       1.0  0.6627931125833086  0.015101342410986299  0.011782802025848594  1.0000
  C   C1        1.0  0.6415317327617485  0.0290348602836161  0.7875958852302531  1.0000
  C   C2        1.0  0.3584660250782719  0.029040770326823  0.7123976568349946  1.0000
  C   C3        1.0  0.3584698374110359  0.9709680910737645  0.21240298160904558  1.0000
  C   C4        1.0  0.6415368158721009  0.9709728191083328  0.2875966916413759  1.0000
  C   C5        1.0  0.6162191139902689  0.8570106378925573  0.6018220615230518  1.0000
  C   C6        1.0  0.3837684776290543  0.8570260040049078  0.8981816038509081  1.0000
  C   C7        1.0  0.3837532282979979  0.1429674912833363  0.3981796948841136  1.0000
  C   C8        1.0  0.6162280094333852  0.1429710373092661  0.1018210489763405  1.0000
  C   C9        1.0  0.6512315780894653  0.3920911787102739  0.6521979259699577  1.0000
  C   C10       1.0  0.3487826998591999  0.392093542727558  0.8478057633632403  1.0000
  C   C11       1.0  0.3487750751936787  0.607891678500188  0.3478017472804638  1.0000
  C   C12       1.0  0.6512277657567009  0.6078904964915492  0.1521987243946654  1.0000
  C   C13       1.0  0.3639634089231194  0.4885761801445199  0.5995423442438081  1.0000
  C   C14       1.0  0.6360419735824365  0.4886057303605682  0.9004618473695416  1.0000
  C   C15       1.0  0.6360445151376124  0.5114031310400193  0.400458423575877  1.0000
  C   C16       1.0  0.3639570550351791  0.5114102230918718  0.0995368713974827  1.0000
  C   C17       1.0  0.9562741133764305  0.7909659050173374  0.625449609612062  1.0000
  C   C18       1.0  0.043726186018766086  0.7909800891210423  0.8745496934576664  1.0000
  C   C19       1.0  0.0437096659101286  0.2090193162104086  0.374550772054107  1.0000
  C   C20       1.0  0.9562741133764305  0.20902759027090664  0.1254506301451883  1.0000
  C   C21       1.0  0.4999988789200102  0.1041101391841863  0.7499990672321601  1.0000
  C   C22       1.0  0.5000052328079505  0.8958939941818329  0.2499999476794201  1.0000
  C   C23       1.0  0.5158670786589283  0.4034431897086392  0.5975894747791627  1.0000
  C   C24       1.0  0.4841497408449129  0.4034561918036984  0.9024194652919492  1.0000
  C   C25       1.0  0.484151011622501  0.5965491235709663  0.4024123955962011  1.0000
  C   C26       1.0  0.5158594539934  0.5965420315191138  0.0975808662973137  1.0000
  C   C27       1.0  0.8015861699457429  0.2893356214298848  0.6432835569107596  1.0000
  C   C28       1.0  0.1984357326684503  0.2893403494644531  0.8567272101046015  1.0000
  C   C29       1.0  0.198425566447753  0.7106578738583522  0.3567210048832905  1.0000
  C   C30       1.0  0.8015823576129788  0.7106519638151454  0.1432751705373292  1.0000
  C   C31       1.0  0.8430770581875604  0.7372625243738895  0.6679652978129269  1.0000
  C   C32       1.0  0.156919428874879  0.7372696164257417  0.8320383755474552  1.0000
  C   C33       1.0  0.1569118042093507  0.2627309709143546  0.3320420134631235  1.0000
  C   C34       1.0  0.8430757874099726  0.26274751903534366  0.1679585903114642  1.0000
  C   C35       1.0  0.7810885274544503  0.13266983199369514  0.8236876109134599  1.0000
  C   C36       1.0  0.218904147275218  0.1326733780196179  0.6763086966066183  1.0000
  C   C37       1.0  0.2189168550510985  0.8673295733377628  0.1763073959017589  1.0000
  C   C38       1.0  0.7810847151216862  0.8673378473982538  0.3236904504044205  1.0000
  C   C39       1.0  0.0161668324720523  0.945246401013854  0.5251928164491703  1.0000
  C   C40       1.0  0.9838207591472707  0.9452487650311381  0.9748082975919771  1.0000
  C   C41       1.0  0.9838067805938024  0.05475064030031969  0.4748151371928913  1.0000
  C   C42       1.0  0.0161782694703376  0.0547589143608107  0.0251858287759745  1.0000
  C   C43       1.0  0.8951751269547827  0.8848835836810238  0.5679869230927607  1.0000
  C   C44       1.0  0.1048213601076498  0.8848906757328763  0.9320167502676214  1.0000
  C   C45       1.0  0.1048111938869454  0.1151170036590727  0.4320212606441345  1.0000
  C   C46       1.0  0.8951789392875469  0.1151264597282093  0.06797949120272759  1.0000
  C   C47       1.0  0.2226427749385422  0.4718519398679816  0.5395245310941377  1.0000
  C   C48       1.0  0.7773676906773586  0.4718838541013142  0.9604794463972084  1.0000
  C   C49       1.0  0.7773626075670066  0.528128553325196  0.460472516787327  1.0000
  C   C50       1.0  0.2226427749385422  0.5281391914029783  0.0395235105610112  1.0000
  C   C51       1.0  0.7193579645716639  0.9158096577919395  0.5561833319272296  1.0000
  C   C52       1.0  0.2806283562700642  0.9158179318524304  0.9438228107434129  1.0000
  C   C53       1.0  0.2806181900493669  0.0841814734790205  0.4438263005867995  1.0000
  C   C54       1.0  0.7193643184596041  0.084196839591371  0.0561750275763515  1.0000
  N   N1        1.0  0.6757690225323785  0.7693694251182206  0.6573248813008092  1.0000
  N   N2        1.0  0.3242249229748779  0.7693788811873574  0.8426781337207246  1.0000
  N   N3        1.0  0.3242071320886524  0.23061697811817075  0.3426806690807211  1.0000
  N   N4        1.0  0.6757741056427307  0.23062288816137763  0.1573205850462926  1.0000
  O   O1        1.0  0.6562104846784818  0.460423098307885  0.7108165704091007  1.0000
  O   O2        1.0  0.3438050640477711  0.4604160062560325  0.7891907648261807  1.0000
  O   O3        1.0  0.3437885439391337  0.5395621229198682  0.2891857202238626  1.0000
  O   O4        1.0  0.6562066723457178  0.5395763070235731  0.21081175590161652  1.0000
  O   O5        1.0  0.6606073751322865  0.8791614798448035  0.7949932155098196  1.0000
  O   O6        1.0  0.3393992781508572  0.8791650258707262  0.7050013550749696  1.0000
  O   O7        1.0  0.3393980073732692  0.1208379254866472  0.2050023015719518  1.0000
  O   O8        1.0  0.6606048335771104  0.1208426535212155  0.2949956187703577  1.0000
  O   O9        1.0  0.3345601570964973  0.5774525919498075  0.6491927283099699  1.0000
  O   O10       1.0  0.6654363299659423  0.5774821421658629  0.8508170682491709  1.0000
  O   O11       1.0  0.6654439546314705  0.4225267192347317  0.3508103687341162  1.0000
  O   O12       1.0  0.3345626986516662  0.4225361753038683  0.1491816505178534  1.0000
