data_image0
_chemical_formula_structural       K4H40Au4C56S8N8O28
_chemical_formula_sum              "K4 H40 Au4 C56 S8 N8 O28"
_cell_length_a       8.667808826650491
_cell_length_b       13.550867455266348
_cell_length_c       16.000510272993175
_cell_angle_alpha    85.02628040368018
_cell_angle_beta     74.27141142964975
_cell_angle_gamma    71.34765908840909

_space_group_name_H-M_alt    "P 1"
_space_group_IT_number       1

loop_
  _space_group_symop_operation_xyz
  'x, y, z'

loop_
  _atom_site_type_symbol
  _atom_site_label
  _atom_site_symmetry_multiplicity
  _atom_site_fract_x
  _atom_site_fract_y
  _atom_site_fract_z
  _atom_site_occupancy
  K   K1        1.0  0.4041652137235375  0.018994277139256603  0.8243646012608608  1.0000
  K   K2        1.0  0.24742191682040016  0.9811077278225115  0.1756874539836915  1.0000
  K   K3        1.0  0.9784722598539369  0.5189237760635876  0.6756713861589533  1.0000
  K   K4        1.0  0.1732574212847241  0.48105672534162386  0.324348434007419  1.0000
  H   H1        1.0  0.35644315939496335  0.8787487701138375  0.9878972613827274  1.0000
  H   H2        1.0  0.22304693532922934  0.1212512030151842  0.012109443733244499  1.0000
  H   H3        1.0  0.094355046252268  0.3787398265563766  0.5121064921287299  1.0000
  H   H4        1.0  0.9851967832194289  0.6212328861593194  0.48788489413573904  1.0000
  H   H5        1.0  0.5296691001350521  0.8905455192650751  0.9881814551849503  1.0000
  H   H6        1.0  0.40833270707504  0.10948794522889223  0.011838179653153683  1.0000
  H   H7        1.0  0.26785565046649384  0.3905264504112297  0.511833461993497  1.0000
  H   H8        1.0  0.17020547594431423  0.6094571664697881  0.48818490541931675  1.0000
  H   H9        1.0  0.9020247711753698  0.8128330906823609  0.5313456393220619  1.0000
  H   H10       1.0  0.24617011662573415  0.1871162559647672  0.46865442965538057  1.0000
  H   H11       1.0  0.18332940223963592  0.3128786679515585  0.9686406863490832  1.0000
  H   H12       1.0  0.46487240936252044  0.6871213051774634  0.03135188451165758  1.0000
  H   H13       1.0  0.10640314460865606  0.8602568634487966  0.4027193732272353  1.0000
  H   H14       1.0  0.36937632900644246  0.13972208021851173  0.5972723975406353  1.0000
  H   H15       1.0  0.25910577638451565  0.360254929711907  0.09729519289678018  1.0000
  H   H16       1.0  0.7166641048633196  0.639721677348547  0.9027077666216953  1.0000
  H   H17       1.0  0.3116361943565378  0.9412008193145243  0.42383988349578783  1.0000
  H   H18       1.0  0.6766403524606942  0.0587672201874483  0.5761734981740645  1.0000
  H   H19       1.0  0.48543990189259034  0.4412378290252477  0.07615605513382208  1.0000
  H   H20       1.0  0.002856915560883598  0.5587800580896741  0.9238212914334909  1.0000
  H   H21       1.0  0.3319466403691038  0.9658925228397167  0.5734455511890673  1.0000
  H   H22       1.0  0.8713353132521534  0.0341191333235926  0.4265592672052562  1.0000
  H   H23       1.0  0.655393293808281  0.4658882524959652  0.9265534830855344  1.0000
  H   H24       1.0  0.04787520812788417  0.5341171727157176  0.073430323073822  1.0000
  H   H25       1.0  0.5086863477816689  0.9064048488714038  0.2691270487489064  1.0000
  H   H26       1.0  0.6842065252458627  0.0936013552092305  0.7308791912478229  1.0000
  H   H27       1.0  0.5277487752169208  0.4064130404308912  0.2308754303208076  1.0000
  H   H28       1.0  0.1650411940271965  0.5936173085872697  0.7691505055536895  1.0000
  H   H29       1.0  0.5955767857725502  0.8591025796615173  0.40830252965843533  1.0000
  H   H30       1.0  0.8629716988262784  0.1408997300743593  0.5916963582293775  1.0000
  H   H31       1.0  0.7538105525731424  0.35914036824119233  0.09167915420702846  1.0000
  H   H32       1.0  0.2046588182371423  0.6408845286943006  0.9083367917371774  1.0000
  H   H33       1.0  0.8949283361788432  0.7742284510625836  0.4052442355034315  1.0000
  H   H34       1.0  0.0744080279834948  0.2257613967700536  0.5947500535083137  1.0000
  H   H35       1.0  0.050122887598711  0.2742592298216877  0.0947139260672358  1.0000
  H   H36       1.0  0.4191639351357281  0.7257555418174209  0.9052726724842157  1.0000
  H   H37       1.0  0.11656175998246716  0.74452394696052  0.2661111749579845  1.0000
  H   H38       1.0  0.12721608737622586  0.25546823747897923  0.7338811938587995  1.0000
  H   H39       1.0  0.1326234336543237  0.24453291738895905  0.23383801852992292  1.0000
  H   H40       1.0  0.6111027812087785  0.7554569304436782  0.7661260859498428  1.0000
  Au  Au1       1.0  0.9373776324096497  0.8619384415167701  0.9099634690860228  1.0000
  Au  Au2       1.0  0.7092232901356539  0.1381121580941453  0.09004517833088944  1.0000
  Au  Au3       1.0  0.5974089411866713  0.36188354469112494  0.5900257140561537  1.0000
  Au  Au4       1.0  0.5493616643643051  0.6379964826192436  0.4099580299699568  1.0000
  C   C1        1.0  0.11645077197650973  0.9133040700507069  0.7284921286507499  1.0000
  C   C2        1.0  0.758202831505173  0.08675042390497371  0.271507815059131  1.0000
  C   C3        1.0  0.5950037068228011  0.413221133942777  0.7715042529873557  1.0000
  C   C4        1.0  0.7797614267516054  0.5867282127043438  0.22848150429789627  1.0000
  C   C5        1.0  0.12923057065125934  0.9033882894192261  0.6345187118645015  1.0000
  C   C6        1.0  0.6671387018324282  0.09661869353036683  0.36548991741352665  1.0000
  C   C7        1.0  0.5137780170117026  0.4033474122347158  0.8654829653576144  1.0000
  C   C8        1.0  0.7826504867588399  0.5966533397632574  0.1345095243690153  1.0000
  C   C9        1.0  0.011044890753232934  0.8607210693443579  0.6211327754155249  1.0000
  C   C10       1.0  0.4928644838257343  0.13920802671000843  0.3788727730072381  1.0000
  C   C11       1.0  0.38210965182035034  0.3607728775651751  0.8788706950011687  1.0000
  C   C12       1.0  0.62179500003284  0.6392535771082208  0.12112248405271935  1.0000
  C   C13       1.0  0.9969033692397674  0.8452355968351242  0.5394004692504524  1.0000
  C   C14       1.0  0.38150239767056604  0.15466390219905432  0.46061040778914025  1.0000
  C   C15       1.0  0.28618391043395536  0.3453504934410745  0.9606159196447877  1.0000
  C   C16       1.0  0.5921663332291516  0.6546899808734636  0.03939035073890549  1.0000
  C   C17       1.0  0.11003011121653124  0.8735139918855594  0.4682848860742155  1.0000
  C   C18       1.0  0.4518236594199577  0.1263979690518511  0.5317049386679784  1.0000
  C   C19       1.0  0.3281842629751494  0.37360941676770665  0.03172850682933156  1.0000
  C   C20       1.0  0.7335704219636202  0.6264170379056966  0.9682664334614443  1.0000
  C   C21       1.0  0.2277681686569935  0.9178433183045912  0.4803669972424416  1.0000
  C   C22       1.0  0.6259732134466204  0.082063969419103  0.5196354663349751  1.0000
  C   C23       1.0  0.4579969884938677  0.4179496473520672  0.01964073955945619  1.0000
  C   C24       1.0  0.895616941114689  0.5821079620794195  0.9803533237721638  1.0000
  C   C25       1.0  0.2389124390603502  0.9330982456039578  0.5636091844966771  1.0000
  C   C26       1.0  0.7356536424181854  0.0668923810976381  0.436387341600458  1.0000
  C   C27       1.0  0.5524703369202085  0.4331321398388682  0.9363827535993822  1.0000
  C   C28       1.0  0.922045506552216  0.5669285850684319  0.06359343656548332  1.0000
  C   C29       1.0  0.7403488138881614  0.8721237108057381  0.10086934207548376  1.0000
  C   C30       1.0  0.7133260826524008  0.1279261099362259  0.8991377225788639  1.0000
  C   C31       1.0  0.5912479748603375  0.37210464195189996  0.3991404296212692  1.0000
  C   C32       1.0  0.3624491478313842  0.6278641764190314  0.6008760930099656  1.0000
  C   C33       1.0  0.7640575482368063  0.8531239815838134  0.19041332738169095  1.0000
  C   C34       1.0  0.8075712906951509  0.1469157138617732  0.8095823190389808  1.0000
  C   C35       1.0  0.7044421622847852  0.3531095859436918  0.30957685785291744  1.0000
  C   C36       1.0  0.367140203345983  0.6468911660542815  0.6904339714825483  1.0000
  C   C37       1.0  0.6403656956624322  0.8720808730133671  0.2686702427414076  1.0000
  C   C38       1.0  0.7810877948221985  0.1279486971358423  0.7313353895019433  1.0000
  C   C39       1.0  0.6589867278798919  0.37209451665552257  0.2313210857609818  1.0000
  C   C40       1.0  0.2623984647285269  0.627943621052161  0.7687073858892147  1.0000
  C   C41       1.0  0.6893100085920096  0.8452581840347408  0.345992205323256  1.0000
  C   C42       1.0  0.8805584787489948  0.1547659340318006  0.6539955086474832  1.0000
  C   C43       1.0  0.7852561500820626  0.345274164283751  0.15397851039242033  1.0000
  C   C44       1.0  0.28454122334028387  0.6547608579481263  0.8460324922936877  1.0000
  C   C45       1.0  0.8589102774909492  0.7986592334887632  0.34486799739633506  1.0000
  C   C46       1.0  0.0024291327298443313  0.2013461917229264  0.655134548858534  1.0000
  C   C47       1.0  0.9537187886756514  0.2986837812962477  0.1550949979818341  1.0000
  C   C48       1.0  0.4075634144766059  0.7013348846876255  0.8448950462585215  1.0000
  C   C49       1.0  0.9848327642675939  0.780655677656803  0.2668111700149395  1.0000
  C   C50       1.0  0.03234603717208289  0.2193248237484084  0.733178277414801  1.0000
  C   C51       1.0  0.0015958637256048578  0.2806802254642875  0.2331388459007542  1.0000
  C   C52       1.0  0.5155264549774474  0.7193135167131148  0.7668341221651289  1.0000
  C   C53       1.0  0.9332019238023508  0.8099201208008326  0.19105312823889883  1.0000
  C   C54       1.0  0.9341934869040925  0.19006816929390885  0.8089453235304377  1.0000
  C   C55       1.0  0.8742368166846218  0.3099251968845067  0.3089178810053709  1.0000
  C   C56       1.0  0.49312643811872925  0.6900506313069883  0.6910777829361052  1.0000
  S   S1        1.0  0.8870633078123545  0.8364335988053995  0.7229215522892501  1.0000
  S   S2        1.0  0.4463841159874136  0.1635671531925738  0.2770834934830617  1.0000
  S   S3        1.0  0.3599880895227373  0.3364316650685097  0.7770799875187963  1.0000
  S   S4        1.0  0.47351257484683634  0.6635620771088924  0.22292642699225954  1.0000
  S   S5        1.0  0.05728653140238276  0.8027436222745197  0.0831022762934595  1.0000
  S   S6        1.0  0.9431452807020049  0.19729139995735787  0.9168852111818994  1.0000
  S   S7        1.0  0.890448628270946  0.3027152069932484  0.41686230352251386  1.0000
  S   S8        1.0  0.6099959492007442  0.6972504959018695  0.5831139503278067  1.0000
  N   N1        1.0  0.9893456583038613  0.8769238801586426  0.7797761944672388  1.0000
  N   N2        1.0  0.646025540695071  0.12313372927284412  0.22022818736648017  1.0000
  N   N3        1.0  0.5191724037741068  0.37688689731890435  0.7202158629483009  1.0000
  N   N4        1.0  0.6162884049750089  0.6230679014108917  0.27976666445904635  1.0000
  N   N5        1.0  0.8930738362598944  0.8463275711062224  0.03969893181567839  1.0000
  N   N6        1.0  0.779079429360685  0.1537206918978455  0.9603006718847454  1.0000
  N   N7        1.0  0.6828178293255788  0.3463147332039966  0.46028632565514027  1.0000
  N   N8        1.0  0.4893757579998165  0.6536603161185539  0.5397067382691958  1.0000
  O   O1        1.0  0.7143833220720595  0.9042894407970152  0.7355220943268962  1.0000
  O   O2        1.0  0.3541914498947492  0.09572221536629402  0.26444087313575443  1.0000
  O   O3        1.0  0.19991751228189963  0.4042750451568865  0.7644710705622018  1.0000
  O   O4        1.0  0.3686698291213376  0.5957202547584259  0.23553381627105102  1.0000
  O   O5        1.0  0.9047713213556534  0.7264230325095298  0.737848973678652  1.0000
  O   O6        1.0  0.3690112150449354  0.2735823927021599  0.2621775730996987  1.0000
  O   O7        1.0  0.39268290409415835  0.2264195410347298  0.7621548669855258  1.0000
  O   O8        1.0  0.38124980851245016  0.7735742011426724  0.2378827128831276  1.0000
  O   O9        1.0  0.15076904938259628  0.8779660068167986  0.0685234645040467  1.0000
  O   O10       1.0  0.09726021971296427  0.1220783618425045  0.9314817685814489  1.0000
  O   O11       1.0  0.9694154862508879  0.3778908593983915  0.43146133594999003  1.0000
  O   O12       1.0  0.7786992960534251  0.6220312268354037  0.5685088251242264  1.0000
  O   O13       1.0  0.15785301315505515  0.6974062696923299  0.05545197759288101  1.0000
  O   O14       1.0  0.9107496722877999  0.3026388778359248  0.9445010851589473  1.0000
  O   O15       1.0  0.963317250381749  0.19736695024572276  0.44448878585563273  1.0000
  O   O16       1.0  0.6051586693237213  0.8025995315183465  0.5554809999172292  1.0000
  O   O17       1.0  0.2064574142907886  0.9490596070430328  0.7571376040216081  1.0000
  O   O18       1.0  0.9126226760675709  0.0509793095336022  0.2428549788901009  1.0000
  O   O19       1.0  0.7136617447613391  0.44898601736253607  0.7428619768338365  1.0000
  O   O20       1.0  0.9055009923426383  0.5509461941676365  0.2571508755884436  1.0000
  O   O21       1.0  0.6007807796317195  0.9047505312167631  0.08404071144980209  1.0000
  O   O22       1.0  0.5895443423577404  0.0952961740493947  0.9159855408533417  1.0000
  O   O23       1.0  0.4348347446584811  0.4047540495625341  0.4159896300137548  1.0000
  O   O24       1.0  0.2555186709306482  0.5952319039253454  0.584046665529165  1.0000
  O   O25       1.0  0.4646022867435132  0.8807060677909179  0.9493146330664075  1.0000
  O   O26       1.0  0.294508143339705  0.1193453106889564  0.05070262229405389  1.0000
  O   O27       1.0  0.16390571977670015  0.3806472766205076  0.5506975404607033  1.0000
  O   O28       1.0  0.0953045078181987  0.6193137530608938  0.44931020406729527  1.0000
