data_image0
_chemical_formula_structural       Cu6H60C60N56O4
_chemical_formula_sum              "Cu6 H60 C60 N56 O4"
_cell_length_a       13.259121336330985
_cell_length_b       15.105519583281945
_cell_length_c       15.54347314320616
_cell_angle_alpha    89.99183643618511
_cell_angle_beta     93.06241529569526
_cell_angle_gamma    90.00570411339486

_space_group_name_H-M_alt    "P 1"
_space_group_IT_number       1

loop_
  _space_group_symop_operation_xyz
  'x, y, z'

loop_
  _atom_site_type_symbol
  _atom_site_label
  _atom_site_symmetry_multiplicity
  _atom_site_fract_x
  _atom_site_fract_y
  _atom_site_fract_z
  _atom_site_occupancy
  Cu  Cu1       1.0  0.9999914941119528  2.9125304408000022e-06  0.9999955657014185  1.0000
  Cu  Cu2       1.0  0.5000406378209661  0.4999971694395172  0.5000157668371656  1.0000
  Cu  Cu3       1.0  0.9510994174148311  0.18857185711619456  0.10207732172393243  1.0000
  Cu  Cu4       1.0  0.5500736449246162  0.6864705336915976  0.3970905236096841  1.0000
  Cu  Cu5       1.0  0.0489087040728506  0.8114277768783893  0.8979236465215337  1.0000
  Cu  Cu6       1.0  0.44994659842257084  0.31351586130447384  0.6029013823847083  1.0000
  H   H1        1.0  0.5434874819219573  0.38918710584542293  0.7640145494522133  1.0000
  H   H2        1.0  0.954207823022614  0.8877333237438877  0.7386803967706329  1.0000
  H   H3        1.0  0.45650174953362216  0.6108012730834248  0.23598743453674595  1.0000
  H   H4        1.0  0.045800252833082304  0.11227028145805922  0.2613321494779086  1.0000
  H   H5        1.0  0.6696958841745088  0.3389435044102811  0.8806614809991303  1.0000
  H   H6        1.0  0.8285327367626182  0.8378533365640096  0.6212890695147595  1.0000
  H   H7        1.0  0.33028123236756823  0.6610448734653716  0.1193476364145738  1.0000
  H   H8        1.0  0.17147836321391446  0.16215953694216273  0.3787229792323076  1.0000
  H   H9        1.0  0.7023213907330828  0.09706901077505851  0.7374756556433725  1.0000
  H   H10       1.0  0.7960978479912414  0.5949442243612141  0.7629859268425891  1.0000
  H   H11       1.0  0.2976708209945969  0.9029180434997883  0.2625367665836579  1.0000
  H   H12       1.0  0.2038974013540908  0.40506666266701075  0.2370227807236205  1.0000
  H   H13       1.0  0.5753554860161432  0.15801031267758964  0.6255032573286599  1.0000
  H   H14       1.0  0.9226439270576209  0.6555273132461751  0.8755581175815268  1.0000
  H   H15       1.0  0.4246541327964978  0.8419800530060046  0.3745010008997341  1.0000
  H   H16       1.0  0.07734979377799789  0.3444809253517677  0.12445501964408832  1.0000
  H   H17       1.0  0.3170353894578497  0.33139365562286116  0.7462716744570772  1.0000
  H   H18       1.0  0.1816625000900132  0.830865489356917  0.754353991349241  1.0000
  H   H19       1.0  0.6829524442013976  0.6686079655181985  0.2537019330347762  1.0000
  H   H20       1.0  0.8183313523053002  0.16912620145670598  0.24562569865123865  1.0000
  H   H21       1.0  0.20501126110695372  0.2333118842596988  0.8293972297578025  1.0000
  H   H22       1.0  0.2944672142158211  0.7336206909493157  0.6710752161710191  1.0000
  H   H23       1.0  0.7949735263094908  0.7666956943743062  0.1705826633519507  1.0000
  H   H24       1.0  0.7055266381100863  0.2663696758449561  0.328904473917973  1.0000
  H   H25       1.0  0.2580744813821809  0.025571772160986904  0.6464248723026458  1.0000
  H   H26       1.0  0.2414241837163189  0.5246516258364055  0.8528081167195867  1.0000
  H   H27       1.0  0.7419268295763289  0.9744212412271338  0.3535789832718025  1.0000
  H   H28       1.0  0.7585749430237172  0.4753433750019412  0.14717504536702114  1.0000
  H   H29       1.0  0.3705559493770281  0.13150640904344613  0.5711467649997815  1.0000
  H   H30       1.0  0.1285788274658657  0.6299542965954787  0.9285229477531731  1.0000
  H   H31       1.0  0.6294506863045302  0.8684793231598177  0.4288476986259796  1.0000
  H   H32       1.0  0.8714240577731546  0.37004004205427077  0.07146489998176261  1.0000
  H   H33       1.0  0.031069607547173896  0.2474868701442574  0.9147079918699463  1.0000
  H   H34       1.0  0.4686267916521203  0.7494058817565517  0.5822511769018919  1.0000
  H   H35       1.0  0.9689166265382883  0.7525167353109411  0.08528805561157782  1.0000
  H   H36       1.0  0.5313685886842165  0.25062619199155733  0.4177247241537572  1.0000
  H   H37       1.0  0.0132589381616555  0.33480691906905247  0.7191923094935861  1.0000
  H   H38       1.0  0.4857717943221616  0.8345398994871472  0.7789302325139432  1.0000
  H   H39       1.0  0.98671667208329  0.6652138972671723  0.28081608933683105  1.0000
  H   H40       1.0  0.514212220620074  0.16547959495980546  0.22105412587040976  1.0000
  H   H41       1.0  0.8878344103656984  0.30281028385545034  0.7409509578774589  1.0000
  H   H42       1.0  0.6111032766610763  0.8024686612853957  0.7568821533416499  1.0000
  H   H43       1.0  0.1121389471086971  0.6972164907130181  0.25905411460249894  1.0000
  H   H44       1.0  0.38887923248333317  0.19754421309857415  0.24310084583334662  1.0000
  H   H45       1.0  0.9923366741605834  0.2365481161547436  0.7802995855785826  1.0000
  H   H46       1.0  0.506391190497247  0.7369909561258509  0.7167057840137832  1.0000
  H   H47       1.0  0.007632931969034499  0.7634700526086535  0.21969887216119593  1.0000
  H   H48       1.0  0.4935822737293947  0.2630318483695078  0.28327227277162603  1.0000
  H   H49       1.0  0.9798034764786651  0.48422196989795924  0.797891344093344  1.0000
  H   H50       1.0  0.5190102708869944  0.9847814764591194  0.7020747889793526  1.0000
  H   H51       1.0  0.020175866416778397  0.5157909016706342  0.2021281732436506  1.0000
  H   H52       1.0  0.4809782172182794  0.015240003112140202  0.29792458325943744  1.0000
  H   H53       1.0  0.9490948503421351  0.47508537822952945  0.9086707223186893  1.0000
  H   H54       1.0  0.5499568616890115  0.9772837637937145  0.5912649879384375  1.0000
  H   H55       1.0  0.05090109800547541  0.5249208737216196  0.09135217336330471  1.0000
  H   H56       1.0  0.4500263426482576  0.022748969776614607  0.4087334841891774  1.0000
  H   H57       1.0  0.8571346785327308  0.4475387141085676  0.8236534879152516  1.0000
  H   H58       1.0  0.641831978660285  0.9488383261004573  0.6760394402572276  1.0000
  H   H59       1.0  0.14284613168276647  0.5524754807367033  0.1763770375423235  1.0000
  H   H60       1.0  0.3581572955201082  0.0511877881360334  0.3239522494148518  1.0000
  C   C1        1.0  0.5803044561802579  0.3247985250129802  0.7615847274512008  1.0000
  C   C2        1.0  0.9174686141425424  0.8232637514443655  0.74056835073889  1.0000
  C   C3        1.0  0.419687030835469  0.6751885297986107  0.23841993934128425  1.0000
  C   C4        1.0  0.082537951238379  0.17674117771616696  0.2594441222435151  1.0000
  C   C5        1.0  0.650108411808759  0.2968508257230554  0.8254139381027559  1.0000
  C   C6        1.0  0.8479955176016816  0.7955080111099947  0.6763903880733508  1.0000
  C   C7        1.0  0.34987323378445007  0.7031368902779394  0.17459604212521643  1.0000
  C   C8        1.0  0.15201332395571404  0.20450022837909645  0.3236196215056353  1.0000
  C   C9        1.0  0.6944474836153561  0.21292103089085404  0.818616030002751  1.0000
  C   C10       1.0  0.8039144676080526  0.7113860447290962  0.6825845371139394  1.0000
  C   C11       1.0  0.30553489684182006  0.7870660227527609  0.1813991327554447  1.0000
  C   C12       1.0  0.19609287624266614  0.28862418096456827  0.317422182968933  1.0000
  C   C13       1.0  0.6679352521984825  0.16178630913778855  0.7454673322399615  1.0000
  C   C14       1.0  0.8302651366380188  0.6598351324906063  0.7555009235950794  1.0000
  C   C15       1.0  0.3320569569825195  0.8382007450897931  0.25454573322421237  1.0000
  C   C16       1.0  0.16973313372625404  0.3401744306397845  0.24450793041489055  1.0000
  C   C17       1.0  0.5977572004646277  0.19428776731069772  0.6842201458864849  1.0000
  C   C18       1.0  0.9001869141480724  0.6921278354756879  0.8170766834119761  1.0000
  C   C19       1.0  0.4022410738131584  0.80569928758527  0.31578742315387853  1.0000
  C   C20       1.0  0.09981210367475059  0.3078784174949263  0.18293413711950993  1.0000
  C   C21       1.0  0.7654071708378468  0.17897208746875753  0.8848608489769633  1.0000
  C   C22       1.0  0.7333480584250012  0.6776564647036242  0.6159041070979329  1.0000
  C   C23       1.0  0.2345759649955212  0.8210169522342599  0.11515435023728321  1.0000
  C   C24       1.0  0.2666713874670279  0.3223511137682281  0.38409869592293694  1.0000
  C   C25       1.0  0.30207402137558864  0.26305187678438813  0.726566694563374  1.0000
  C   C26       1.0  0.1967518946880347  0.7624347788004473  0.7736925078790124  1.0000
  C   C27       1.0  0.6979190710013015  0.7369464340010837  0.27341424488002997  1.0000
  C   C28       1.0  0.8032419348565867  0.2375582356071817  0.2262929711672612  1.0000
  C   C29       1.0  0.23922420644608883  0.20895630937337023  0.7718073505840979  1.0000
  C   C30       1.0  0.2599508331699951  0.7087598296685729  0.7283372772777099  1.0000
  C   C31       1.0  0.7607696209335729  0.7910439870934244  0.22817877121251234  1.0000
  C   C32       1.0  0.7400445222335607  0.2912338470930536  0.2716444154790594  1.0000
  C   C33       1.0  0.2220561342417682  0.12163455798801692  0.7438717849903613  1.0000
  C   C34       1.0  0.2772897570716069  0.6213348992082433  0.755846753118462  1.0000
  C   C35       1.0  0.7779444573757458  0.8783637521087685  0.2561230283211984  1.0000
  C   C36       1.0  0.722710887887331  0.37866076384232633  0.2441345523900864  1.0000
  C   C37       1.0  0.269319723017162  0.0928777082369905  0.6701812801132618  1.0000
  C   C38       1.0  0.23000570995176867  0.5920520492017829  0.8293607966712528  1.0000
  C   C39       1.0  0.7306868926379834  0.9071146436849347  0.3298183289671074  1.0000
  C   C40       1.0  0.7699911635318911  0.4079396417333572  0.1706190396844747  1.0000
  C   C41       1.0  0.33135919663352104  0.1509596248946892  0.6281809427645443  1.0000
  C   C42       1.0  0.16771099325570302  0.6497099217753901  0.8715279556510184  1.0000
  C   C43       1.0  0.6686474443148925  0.849029417451469  0.37181223416565257  1.0000
  C   C44       1.0  0.832289643820296  0.3502811070656692  0.12845527987874314  1.0000
  C   C45       1.0  0.15918154311263782  0.062938453803028  0.7922569495224681  1.0000
  C   C46       1.0  0.3404066138042837  0.5629731511068031  0.7073116004611679  1.0000
  C   C47       1.0  0.8408228020493099  0.9370618420493387  0.20774383573468921  1.0000
  C   C48       1.0  0.6596007877177782  0.43701986342230736  0.2926803263180204  1.0000
  C   C49       1.0  0.007300874239341199  0.3173299355322429  0.9223805163088556  1.0000
  C   C50       1.0  0.4923288783701807  0.8193937517546673  0.5755095308539426  1.0000
  C   C51       1.0  0.9926883452809818  0.6826736693828225  0.07762468284794721  1.0000
  C   C52       1.0  0.5076687475130939  0.18064030773552286  0.42447162573253655  1.0000
  C   C53       1.0  0.9663981186189049  0.3044893021744528  0.7675980529364781  1.0000
  C   C54       1.0  0.5325693730368357  0.8047272803438262  0.7302002007343091  1.0000
  C   C55       1.0  0.033576746436565906  0.6955295282914093  0.2324077364893071  1.0000
  C   C56       1.0  0.4674123733689656  0.19528890391634954  0.26978469134203215  1.0000
  C   C57       1.0  0.9378602033877641  0.4457301315778679  0.8443869155934252  1.0000
  C   C58       1.0  0.5611460919114607  0.9470475738642322  0.6551685733541461  1.0000
  C   C59       1.0  0.0621236608493803  0.5542807539549274  0.15563539435778756  1.0000
  C   C60       1.0  0.43884090124201686  0.052979864016904805  0.34482686588584954  1.0000
  N   N1        1.0  0.5536468791842354  0.27400175618280537  0.6929061108550059  1.0000
  N   N2        1.0  0.9440978549800293  0.7720137358810889  0.8089541563146554  1.0000
  N   N3        1.0  0.4463521631337244  0.725985960989519  0.3070982785441957  1.0000
  N   N4        1.0  0.055903433544202095  0.2279885452171371  0.1910554877745128  1.0000
  N   N5        1.0  0.7976609815701182  0.2240656996099801  0.9561090520761584  1.0000
  N   N6        1.0  0.7022563555135263  0.7226690696316495  0.5442465899395401  1.0000
  N   N7        1.0  0.2023350247264446  0.7759286372540117  0.04389904994810931  1.0000
  N   N8        1.0  0.29775401458829265  0.27734248029739933  0.4557589899357809  1.0000
  N   N9        1.0  0.8603083678233502  0.16774695896900482  0.9969864895195146  1.0000
  N   N10       1.0  0.6395518982911027  0.6665388621970793  0.503137433842703  1.0000
  N   N11       1.0  0.1396891515640633  0.832247378003004  0.003021042445226402  1.0000
  N   N12       1.0  0.3604842090105933  0.3334607736777073  0.4968545963944778  1.0000
  N   N13       1.0  0.8657861453116026  0.0916080294922494  0.9533715904709723  1.0000
  N   N14       1.0  0.6329859634716186  0.590787555562585  0.5469404802767175  1.0000
  N   N15       1.0  0.13419850110064152  0.9083816722811947  0.04664368187664541  1.0000
  N   N16       1.0  0.3670751157099589  0.40920281407722575  0.4530405365050855  1.0000
  N   N17       1.0  0.8069729778679644  0.09702855026287692  0.882319389005126  1.0000
  N   N18       1.0  0.6910401294002  0.5960206884940717  0.6184660012531467  1.0000
  N   N19       1.0  0.19300182684415296  0.9029565166225737  0.11770119713202122  1.0000
  N   N20       1.0  0.30901035326028387  0.40397365235313754  0.38152029215405764  1.0000
  N   N21       1.0  0.34757485432081836  0.23444233331126446  0.656214748213735  1.0000
  N   N22       1.0  0.1511779975643748  0.7332647948232919  0.8438023770549068  1.0000
  N   N23       1.0  0.6524242595817212  0.7655506812617503  0.3437716301913625  1.0000
  N   N24       1.0  0.8488226167997297  0.2667302056504682  0.15618664734363114  1.0000
  N   N25       1.0  0.1091289360521159  0.08930766418774283  0.8611507170652006  1.0000
  N   N26       1.0  0.39029596236634495  0.5895249898097745  0.6383740837357907  1.0000
  N   N27       1.0  0.8908520495024208  0.9106992518120834  0.13883542551619146  1.0000
  N   N28       1.0  0.609755911248577  0.41047133490595666  0.36164251486207644  1.0000
  N   N29       1.0  0.06664309812493488  0.015877670829866002  0.8883409139959756  1.0000
  N   N30       1.0  0.4330473999813833  0.516218561529776  0.611236530233832  1.0000
  N   N31       1.0  0.9333446593421898  0.984127920951423  0.11165199034469  1.0000
  N   N32       1.0  0.5670074767910335  0.4837757769476241  0.3887847175120599  1.0000
  N   N33       1.0  0.08888881141132289  0.9471571156912048  0.8385484398996825  1.0000
  N   N34       1.0  0.4110912327492501  0.4474688768971262  0.6610777546163791  1.0000
  N   N35       1.0  0.9111268245623522  0.05284185588859461  0.1614625428353307  1.0000
  N   N36       1.0  0.5889236907600335  0.5525208273202722  0.33892225711794316  1.0000
  N   N37       1.0  0.1470460194074761  0.9752625027458921  0.7771179083154679  1.0000
  N   N38       1.0  0.3528569405545242  0.47533441935858184  0.7224903743201951  1.0000
  N   N39       1.0  0.8529809199724951  0.024732496758936396  0.22290005588870096  1.0000
  N   N40       1.0  0.6471293538183645  0.524653298998679  0.27749023653198895  1.0000
  N   N41       1.0  0.058326055585730806  0.11771581605707133  0.045165330184822515  1.0000
  N   N42       1.0  0.4409991500105903  0.618780229165992  0.4558802129524366  1.0000
  N   N43       1.0  0.9416722599941211  0.8822818317498645  0.9548319463531317  1.0000
  N   N44       1.0  0.5590504367553208  0.38120351689669724  0.5441414226170026  1.0000
  N   N45       1.0  0.14796836667659363  0.13496724789585102  0.051878884454907806  1.0000
  N   N46       1.0  0.351174915830228  0.6312694449494175  0.44189288496382784  1.0000
  N   N47       1.0  0.8520330075671297  0.865018484567365  0.9481088906777304  1.0000
  N   N48       1.0  0.648867095967539  0.3686785519089497  0.5581335330044581  1.0000
  N   N49       1.0  0.23332569698045091  0.15231060458286555  0.05732266018573281  1.0000
  N   N50       1.0  0.2652767619814256  0.6447708798756152  0.43016344461199213  1.0000
  N   N51       1.0  0.7666802589965088  0.8476592407756416  0.9426524707990114  1.0000
  N   N52       1.0  0.7347568939705197  0.3551387192367486  0.5698741517147923  1.0000
  N   N53       1.0  0.9735174274363771  0.3548540956509072  0.8473790326705741  1.0000
  N   N54       1.0  0.5257354745560647  0.8560914945105367  0.6510307475178083  1.0000
  N   N55       1.0  0.026464216755300606  0.6451554666221  0.1526315893341135  1.0000
  N   N56       1.0  0.4742507963974348  0.143935281944934  0.3489562930947515  1.0000
  O   O1        1.0  0.012128178753862101  0.3552752913421102  0.9936200831763957  1.0000
  O   O2        1.0  0.4877484562119676  0.8582467897900586  0.5047443181704665  1.0000
  O   O3        1.0  0.9878708462231742  0.6447216936348356  0.0063888082632387955  1.0000
  O   O4        1.0  0.512259730781821  0.14178793189881134  0.4952405668008454  1.0000
