data_image0
_chemical_formula_structural       Nd4H16C24O32
_chemical_formula_sum              "Nd4 H16 C24 O32"
_cell_length_a       6.970676697005776
_cell_length_b       7.083294754284029
_cell_length_c       16.82335993402459
_cell_angle_alpha    90.0001653956246
_cell_angle_beta     89.99986224836469
_cell_angle_gamma    100.8531377732319

_space_group_name_H-M_alt    "P 1"
_space_group_IT_number       1

loop_
  _space_group_symop_operation_xyz
  'x, y, z'

loop_
  _atom_site_type_symbol
  _atom_site_label
  _atom_site_symmetry_multiplicity
  _atom_site_fract_x
  _atom_site_fract_y
  _atom_site_fract_z
  _atom_site_occupancy
  Nd  Nd1       1.0  0.5098529722041933  0.2579311007134208  0.4196663667820815  1.0000
  Nd  Nd2       1.0  0.9901468416493132  0.7420676433007358  0.9196670180699655  1.0000
  Nd  Nd3       1.0  0.4901451866077836  0.7420724739252904  0.5803325577521576  1.0000
  Nd  Nd4       1.0  0.009854470082395  0.2579301483530542  0.0803336896938873  1.0000
  H   H1        1.0  0.8467490166224824  0.5941733939498874  0.381642488732389  1.0000
  H   H2        1.0  0.653254695282165  0.40582941423501495  0.8816406894421362  1.0000
  H   H3        1.0  0.15325429969473706  0.40582726151546217  0.6183588134437983  1.0000
  H   H4        1.0  0.3467471886223735  0.5941712522956307  0.1183576406768623  1.0000
  H   H5        1.0  0.949532021316358  0.4198948345617737  0.4124257171670962  1.0000
  H   H6        1.0  0.5504678258563588  0.5801038664121165  0.9124248294792352  1.0000
  H   H7        1.0  0.05046929041535012  0.5801029570920165  0.5875749905967638  1.0000
  H   H8        1.0  0.44953062103905256  0.4198939473863916  0.0875746894629117  1.0000
  H   H9        1.0  0.7738698788541641  0.012724971454183304  0.321124531377869  1.0000
  H   H10       1.0  0.7261338254232186  0.9872760395912009  0.8211221827367509  1.0000
  H   H11       1.0  0.2261317189598628  0.9872742576433353  0.6788767707983041  1.0000
  H   H12       1.0  0.273869776984519  0.012726053307268602  0.1788761473822618  1.0000
  H   H13       1.0  0.8113924076106687  0.22395013294662652  0.2840939892049761  1.0000
  H   H14       1.0  0.6886114670480057  0.7760506580078187  0.7840932026208948  1.0000
  H   H15       1.0  0.18861205504239115  0.7760490740026356  0.7159073129697404  1.0000
  H   H16       1.0  0.31139156319100186  0.2239485600085018  0.2159057219082214  1.0000
  C   C1        1.0  0.3527106354332263  0.8314642009140982  0.3296669398077298  1.0000
  C   C2        1.0  0.14728730185581904  0.16853702842563226  0.8296666388320945  1.0000
  C   C3        1.0  0.6472820797829757  0.16854085546484038  0.6703325791417427  1.0000
  C   C4        1.0  0.8527122893702032  0.8314665351460205  0.1703346633477452  1.0000
  C   C5        1.0  0.35475336128092755  0.7266241181851997  0.2532505102975051  1.0000
  C   C6        1.0  0.14524406936123316  0.27337234464211946  0.7532515287371739  1.0000
  C   C7        1.0  0.6452416466124262  0.2733780411545013  0.7467466310027149  1.0000
  C   C8        1.0  0.8547529451078193  0.7266254802393421  0.24675096226361154  1.0000
  C   C9        1.0  0.40258718689016604  0.561383862529425  0.29760953807534923  1.0000
  C   C10       1.0  0.09741118598255133  0.43861141543589344  0.7976108072807263  1.0000
  C   C11       1.0  0.5974072488331006  0.4386154219298888  0.7023887920465555  1.0000
  C   C12       1.0  0.9025866887413942  0.5613835234839968  0.2023904948946935  1.0000
  C   C13       1.0  0.4070968338793719  0.6675380725487443  0.3714539461743485  1.0000
  C   C14       1.0  0.09290119922494001  0.33245764431422486  0.871453306538804  1.0000
  C   C15       1.0  0.5928976018384234  0.3324612119176394  0.6285467615938813  1.0000
  C   C16       1.0  0.9070972476704642  0.6675401694842833  0.12854621240334302  1.0000
  C   C17       1.0  0.8602737463567252  0.019802814685427002  0.49044084822273254  1.0000
  C   C18       1.0  0.6397263140192991  0.9801992248660981  0.990440361164616  1.0000
  C   C19       1.0  0.13972355219761576  0.9802036459183939  0.5095604539600416  1.0000
  C   C20       1.0  0.36027614205259795  0.019804316548466292  0.0095579689558605  1.0000
  C   C21       1.0  0.9457087324988367  0.8760257532259246  0.5328603238341216  1.0000
  C   C22       1.0  0.5542931452135776  0.12397932747857252  0.0328588691436167  1.0000
  C   C23       1.0  0.0542897123913448  0.1239792588618087  0.4671409783471888  1.0000
  C   C24       1.0  0.44571074327783594  0.8760242028618637  0.9671394609761279  1.0000
  O   O1        1.0  0.32387698614155624  0.99608553890085  0.3463474330694538  1.0000
  O   O2        1.0  0.17612087639478352  0.003908591302128202  0.846348684452586  1.0000
  O   O3        1.0  0.6761203144193788  0.003913723411976401  0.6536514914625826  1.0000
  O   O4        1.0  0.8238804353300894  0.9960892003604939  0.1536549953691804  1.0000
  O   O5        1.0  0.33577818826796607  0.7734153856338465  0.1820228030270741  1.0000
  O   O6        1.0  0.16422214886394226  0.22657919425063966  0.6820231505736488  1.0000
  O   O7        1.0  0.6642208307961683  0.22658530304681793  0.8179761215049625  1.0000
  O   O8        1.0  0.8357788767840905  0.7734171599611911  0.3179775571894723  1.0000
  O   O9        1.0  0.44227387988627254  0.3960135129999713  0.2856795762557454  1.0000
  O   O10       1.0  0.05772512004674006  0.6039845689410226  0.7856804937717854  1.0000
  O   O11       1.0  0.5577242789270616  0.6039900616369708  0.7143187538669126  1.0000
  O   O12       1.0  0.942275045350499  0.39601467122708567  0.2143196195819499  1.0000
  O   O13       1.0  0.4552138733404406  0.6169065302965605  0.4403919629997191  1.0000
  O   O14       1.0  0.04478412864430232  0.38309103375734577  0.9403938115496969  1.0000
  O   O15       1.0  0.5447819948037065  0.3830927430868627  0.5596057727098724  1.0000
  O   O16       1.0  0.9552148904129895  0.6169096549321508  0.059608085040260106  1.0000
  O   O17       1.0  0.6809220566309693  0.0269782206079725  0.48337220040213685  1.0000
  O   O18       1.0  0.8190766058458723  0.9730165897268819  0.9833739015515164  1.0000
  O   O19       1.0  0.3190749578435472  0.973019604266433  0.5166279129523231  1.0000
  O   O20       1.0  0.1809244198021531  0.026979764484949008  0.016626806211597497  1.0000
  O   O21       1.0  0.864225856107851  0.7289012768666936  0.5707611459962579  1.0000
  O   O22       1.0  0.6357767074631796  0.2711011431535439  0.07076157285084861  1.0000
  O   O23       1.0  0.1357754536254703  0.27110371306748254  0.4292383729488449  1.0000
  O   O24       1.0  0.3642254625181992  0.7289009608278931  0.9292397293268023  1.0000
  O   O25       1.0  0.7354001327516358  0.1401596506198075  0.3245121804784716  1.0000
  O   O26       1.0  0.7646035559362119  0.8598413805634378  0.8245108256757588  1.0000
  O   O27       1.0  0.2646014650637555  0.8598395784759416  0.6754885272861202  1.0000
  O   O28       1.0  0.23539832796696206  0.14015928596897004  0.1754880988548209  1.0000
  O   O29       1.0  0.8304691417747919  0.4770395638653397  0.41627343832911384  1.0000
  O   O30       1.0  0.6695312598588573  0.5229620348648396  0.9162735494878973  1.0000
  O   O31       1.0  0.16953102362381867  0.5229596763010065  0.5837260806130402  1.0000
  O   O32       1.0  0.33046747311885843  0.4770372163773899  0.0837265638665698  1.0000
