data_image0
_chemical_formula_structural       Cd4H80C120S4N16O24
_chemical_formula_sum              "Cd4 H80 C120 S4 N16 O24"
_cell_length_a       10.758032157189641
_cell_length_b       16.427210629392196
_cell_length_c       19.52831248512894
_cell_angle_alpha    90.00011075582357
_cell_angle_beta     90.00039686396387
_cell_angle_gamma    92.39605985756585

_space_group_name_H-M_alt    "P 1"
_space_group_IT_number       1

loop_
  _space_group_symop_operation_xyz
  'x, y, z'

loop_
  _atom_site_type_symbol
  _atom_site_label
  _atom_site_symmetry_multiplicity
  _atom_site_fract_x
  _atom_site_fract_y
  _atom_site_fract_z
  _atom_site_occupancy
  Cd  Cd1       1.0  0.311745420208247  0.06777041775941232  0.11702100247610758  1.0000
  Cd  Cd2       1.0  0.1882551752231407  0.4322316685838318  0.6170207435050656  1.0000
  Cd  Cd3       1.0  0.6882488808344078  0.9322288408116962  0.8829800575118298  1.0000
  Cd  Cd4       1.0  0.8117466472010904  0.5677694786890085  0.3829792923447356  1.0000
  H   H1        1.0  0.1352805371798809  0.20682031862286726  0.291168954611848  1.0000
  H   H2        1.0  0.36472520119107094  0.2931852973400453  0.7911676071898057  1.0000
  H   H3        1.0  0.8647261803130915  0.7931863498591555  0.7088300570977637  1.0000
  H   H4        1.0  0.6352720804919941  0.7068182487236501  0.20883089242222747  1.0000
  H   H5        1.0  0.029223223233373098  0.3122821549772183  0.3597431194915898  1.0000
  H   H6        1.0  0.4707730768211533  0.18772173077277904  0.8597445659249557  1.0000
  H   H7        1.0  0.9707798017020792  0.6877250922294849  0.6402548680574042  1.0000
  H   H8        1.0  0.5292213059899068  0.8122793554907446  0.14025598198760744  1.0000
  H   H9        1.0  0.07745252354983731  0.2850886343451721  0.05650859075971229  1.0000
  H   H10       1.0  0.4225463444067401  0.21491267510209874  0.5565119455346519  1.0000
  H   H11       1.0  0.9225483143818208  0.7149112868339316  0.9434873484710806  1.0000
  H   H12       1.0  0.5774480384140901  0.7850884111634642  0.4434901386089648  1.0000
  H   H13       1.0  0.9759059045943417  0.39915771101100017  0.9991566221910301  1.0000
  H   H14       1.0  0.524086502006689  0.10084324657965743  0.4991553241538824  1.0000
  H   H15       1.0  0.024086618302831708  0.6008433599980024  0.0008423894869196  1.0000
  H   H16       1.0  0.4759033127962056  0.8991596292416661  0.5008421512893121  1.0000
  H   H17       1.0  0.8662490526785049  0.5019742897981061  0.0681661707593335  1.0000
  H   H18       1.0  0.6337490321304386  0.9980244689265517  0.5681647865086744  1.0000
  H   H19       1.0  0.13375006166122458  0.4980286622890874  0.931833865086766  1.0000
  H   H20       1.0  0.3662416308398093  0.001976586825208  0.4318306406265933  1.0000
  H   H21       1.0  0.8593805771064639  0.49024710430150975  0.1945769683843821  1.0000
  H   H22       1.0  0.6406133140214579  0.009748219644429  0.6945753278795692  1.0000
  H   H23       1.0  0.1406220117362764  0.5097503952134091  0.8054246036949663  1.0000
  H   H24       1.0  0.35938164436520037  0.990244954235145  0.305420099257482  1.0000
  H   H25       1.0  0.271618301666102  0.0862388134910645  0.9500683438354258  1.0000
  H   H26       1.0  0.22838445530793192  0.41375926459668483  0.45006833533612667  1.0000
  H   H27       1.0  0.7283825362916332  0.9137611076934535  0.0499316920114978  1.0000
  H   H28       1.0  0.771615370916308  0.5862388212664554  0.5499301642763257  1.0000
  H   H29       1.0  0.11683189634958069  0.8936535712777529  0.0693090382317294  1.0000
  H   H30       1.0  0.3831718438427032  0.6063478781160612  0.5693079693177836  1.0000
  H   H31       1.0  0.8831745758544758  0.10634761413039233  0.930694070089089  1.0000
  H   H32       1.0  0.6168250562588327  0.3936471387172347  0.4306936027486827  1.0000
  H   H33       1.0  0.027274040385108805  0.8769490136663906  0.9356223158088994  1.0000
  H   H34       1.0  0.47272574788621563  0.6230478528393704  0.4356217434005671  1.0000
  H   H35       1.0  0.9727257858619468  0.1230490722014892  0.06437976834267539  1.0000
  H   H36       1.0  0.527274817515618  0.37694597603820784  0.5643808528259626  1.0000
  H   H37       1.0  0.32244373956478267  0.03661453980326001  0.8330362708055644  1.0000
  H   H38       1.0  0.1775595783550443  0.46338750862582156  0.33303512477187514  1.0000
  H   H39       1.0  0.6775589310496244  0.9633847874047561  0.1669653012754324  1.0000
  H   H40       1.0  0.8224402751394564  0.5366111864710633  0.6669654231491932  1.0000
  H   H41       1.0  0.2826433714990841  0.0827997272382106  0.7131482491264549  1.0000
  H   H42       1.0  0.2173564513755082  0.41719955193266867  0.2131461557985119  1.0000
  H   H43       1.0  0.717362116235222  0.917200232080937  0.2868543471144704  1.0000
  H   H44       1.0  0.7826479973648262  0.5827979628333895  0.7868543921303655  1.0000
  H   H45       1.0  0.8898153024442267  0.022962928700891904  0.7388274620498761  1.0000
  H   H46       1.0  0.6101906112392969  0.4770393053390052  0.23882864128321302  1.0000
  H   H47       1.0  0.11019114248306043  0.9770376474721518  0.2611725738082881  1.0000
  H   H48       1.0  0.3898158064307681  0.5229606616030084  0.7611713945744041  1.0000
  H   H49       1.0  0.9305144365196656  0.9764404792342917  0.8573275459407554  1.0000
  H   H50       1.0  0.5694891618161507  0.5235584502912332  0.35732936800596343  1.0000
  H   H51       1.0  0.0694901212462824  0.023559472455225702  0.1426724899133021  1.0000
  H   H52       1.0  0.43051443874704626  0.4764408845423561  0.6426716919997943  1.0000
  H   H53       1.0  0.24297347805768515  0.9859386836317371  0.5683345520020565  1.0000
  H   H54       1.0  0.25702182566987375  0.514061476091193  0.0683370749435639  1.0000
  H   H55       1.0  0.7570273326330509  0.014060628319718703  0.43166394761327337  1.0000
  H   H56       1.0  0.7429762496889154  0.48593903144561784  0.9316629608985634  1.0000
  H   H57       1.0  0.22551575910529917  0.848259629524108  0.5133419437308362  1.0000
  H   H58       1.0  0.274479774525517  0.6517403923753663  0.0133406607816653  1.0000
  H   H59       1.0  0.7744814408126218  0.15174208884783982  0.4866575800335937  1.0000
  H   H60       1.0  0.725519203524847  0.3482595135559805  0.9866588629846831  1.0000
  H   H61       1.0  0.8326081339657918  0.8338285843226816  0.5580622652380356  1.0000
  H   H62       1.0  0.6673841879617655  0.6661688834517392  0.05805496385767838  1.0000
  H   H63       1.0  0.16738898419024648  0.16617130635820135  0.4419387947557921  1.0000
  H   H64       1.0  0.332612027492921  0.3338316088325684  0.9419450719808894  1.0000
  H   H65       1.0  0.8489429652130412  0.9741074118321792  0.6080979679575974  1.0000
  H   H66       1.0  0.6510585267765379  0.5258939123043406  0.10809447254741396  1.0000
  H   H67       1.0  0.1510579000116934  0.025893118585408107  0.3919036041209266  1.0000
  H   H68       1.0  0.3489387004083823  0.4741084153006768  0.8919065874486094  1.0000
  H   H69       1.0  0.19793385498149974  0.7058582245475692  0.532042827843064  1.0000
  H   H70       1.0  0.30206651194889383  0.7941406664817022  0.0320418819831119  1.0000
  H   H71       1.0  0.8020641931233354  0.2941416737588868  0.46795772007553177  1.0000
  H   H72       1.0  0.6979343260186184  0.20585925470485483  0.9679596900948653  1.0000
  H   H73       1.0  0.10042553266264778  0.5719434636223397  0.45962152848458965  1.0000
  H   H74       1.0  0.3995655886944647  0.9280607008714059  0.9596246302669016  1.0000
  H   H75       1.0  0.8995716127506058  0.42805703628957303  0.5403795315097922  1.0000
  H   H76       1.0  0.6004279732064576  0.0719428146927115  0.040377965954135696  1.0000
  H   H77       1.0  0.838087885155943  0.7551293322960646  0.45700381240984456  1.0000
  H   H78       1.0  0.661909596851558  0.7448710182956689  0.9569980271562598  1.0000
  H   H79       1.0  0.1619138827538507  0.2448705965147014  0.5429962234388697  1.0000
  H   H80       1.0  0.3380876848282526  0.2551325277673513  0.04299996037875788  1.0000
  C   C1        1.0  0.09010026347760199  0.2574223965420614  0.19446316487821488  1.0000
  C   C2        1.0  0.4099021659485089  0.24257807455776967  0.6944660042925506  1.0000
  C   C3        1.0  0.9099053332529934  0.7425799996944493  0.8055343105947299  1.0000
  C   C4        1.0  0.5900939132363732  0.7574193715747627  0.3055365919283588  1.0000
  C   C5        1.0  0.0871238366018261  0.2552348833928093  0.2655240850319487  1.0000
  C   C6        1.0  0.4128719487343133  0.24476327771309056  0.7655254031293665  1.0000
  C   C7        1.0  0.9128752504741655  0.74476745946199  0.7344749266595656  1.0000
  C   C8        1.0  0.587121313343701  0.7552335363110176  0.23447821723967618  1.0000
  C   C9        1.0  0.027251013669378203  0.31421108056687796  0.3039231379266667  1.0000
  C   C10       1.0  0.47274517869075794  0.18578535440339292  0.8039240766710662  1.0000
  C   C11       1.0  0.9727470071586737  0.6857882085044765  0.6960743375292822  1.0000
  C   C12       1.0  0.5272480561170027  0.8142108503869778  0.1960774953893676  1.0000
  C   C13       1.0  0.9668225085354865  0.3762968901104814  0.2717219955216024  1.0000
  C   C14       1.0  0.5331752089868899  0.1236998792121611  0.7717221783677316  1.0000
  C   C15       1.0  0.03317925938408451  0.6237030387023169  0.728279576558158  1.0000
  C   C16       1.0  0.4668198857249736  0.8762963408307061  0.228279393696269  1.0000
  C   C17       1.0  0.965073460816839  0.38086828036167475  0.1986122481384456  1.0000
  C   C18       1.0  0.5349251587167673  0.1191277016235048  0.6986139664585947  1.0000
  C   C19       1.0  0.03492639266788441  0.6191304147331778  0.8013867635515692  1.0000
  C   C20       1.0  0.4650690878212274  0.8808703384875683  0.3013886297592947  1.0000
  C   C21       1.0  0.028245637004218303  0.32089986539931925  0.1589894751331968  1.0000
  C   C22       1.0  0.47176011517575484  0.17910176084475898  0.6589909112934365  1.0000
  C   C23       1.0  0.9717590570413179  0.6791031324440128  0.8410095365695653  1.0000
  C   C24       1.0  0.5282322714450985  0.8208962640111109  0.3410096366128244  1.0000
  C   C25       1.0  0.029641334885113203  0.3299147859064179  0.08645531193830178  1.0000
  C   C26       1.0  0.4703606223450692  0.1700847979264637  0.5864562160116974  1.0000
  C   C27       1.0  0.9703594757958456  0.6700845260430128  0.9135416514459821  1.0000
  C   C28       1.0  0.5296346359003438  0.8299150775005659  0.4135438198245324  1.0000
  C   C29       1.0  0.97254938288458  0.3935005383926864  0.054851258927499195  1.0000
  C   C30       1.0  0.5274523017219508  0.1065005845819726  0.5548519039917891  1.0000
  C   C31       1.0  0.0274505251015498  0.6064993751615262  0.9451457044555479  1.0000
  C   C32       1.0  0.47254588264617337  0.8935023598749083  0.4451450593904339  1.0000
  C   C33       1.0  0.9108739368519423  0.45191323784680293  0.09387606603550577  1.0000
  C   C34       1.0  0.5891241975915946  0.048080647056842514  0.5938717308440005  1.0000
  C   C35       1.0  0.08912495942676908  0.5480848403914464  0.9061234577292012  1.0000
  C   C36       1.0  0.41087207235472073  0.9519210636847932  0.4061247204565389  1.0000
  C   C37       1.0  0.9073090105664577  0.4456521184825775  0.16417142661077117  1.0000
  C   C38       1.0  0.5926929993733836  0.05434623983859411  0.6641701876978913  1.0000
  C   C39       1.0  0.09269746162456022  0.5543490669228534  0.8358296334019784  1.0000
  C   C40       1.0  0.4073003989516266  0.945653620332557  0.3358272877496944  1.0000
  C   C41       1.0  0.1619545226604799  0.1924129726024333  0.1598074129499238  1.0000
  C   C42       1.0  0.33805044627002456  0.3075916943347964  0.6598095716233061  1.0000
  C   C43       1.0  0.8380501168673576  0.8075888067781493  0.8401910866747215  1.0000
  C   C44       1.0  0.6619476836032164  0.6924100316640818  0.34019046421992266  1.0000
  C   C45       1.0  0.9105651594061187  0.4407210824657639  0.3148680136995168  1.0000
  C   C46       1.0  0.589433216366814  0.05927823789323842  0.8148677945212197  1.0000
  C   C47       1.0  0.08943685379583852  0.559284329419562  0.685128437615006  1.0000
  C   C48       1.0  0.4105628900589907  0.9407198174669421  0.18513224131515216  1.0000
  C   C49       1.0  0.21998512135234455  0.0311588086973416  0.9653854481347608  1.0000
  C   C50       1.0  0.28002051142229323  0.46883689585479277  0.465384702337964  1.0000
  C   C51       1.0  0.7800147866566006  0.9688411048616103  0.034615099787401994  1.0000
  C   C52       1.0  0.7199745014983564  0.5311574964909129  0.5346137972622884  1.0000
  C   C53       1.0  0.1362606473661856  0.9309951876933626  0.024467033438071394  1.0000
  C   C54       1.0  0.36373784499131284  0.5690054957389988  0.5244653174595584  1.0000
  C   C55       1.0  0.8637392334018301  0.06900411663794165  0.9755360748686214  1.0000
  C   C56       1.0  0.6362573042284724  0.4309919427645709  0.4755352304514984  1.0000
  C   C57       1.0  0.09243278884938633  0.92142084515595  0.9587284155868544  1.0000
  C   C58       1.0  0.4075692624836336  0.5785785346377922  0.4587280340079829  1.0000
  C   C59       1.0  0.9075662164744996  0.078579670009816  0.04127366856511829  1.0000
  C   C60       1.0  0.5924285948239217  0.42141709905210695  0.5412730259837985  1.0000
  C   C61       1.0  0.127284145612613  0.005530848882955299  0.851686229818597  1.0000
  C   C62       1.0  0.3727173590142385  0.494466969003618  0.35168639188498924  1.0000
  C   C63       1.0  0.8727194821980219  0.9944690951796321  0.14831329395665446  1.0000
  C   C64       1.0  0.6272814555025832  0.5055292815435664  0.6483146681091156  1.0000
  C   C65       1.0  0.22798246069095277  0.03483500337626571  0.812247298301422  1.0000
  C   C66       1.0  0.27201777546973455  0.4651663579573722  0.3122439555843286  1.0000
  C   C67       1.0  0.7720202371839308  0.9651649330634555  0.18775478585713756  1.0000
  C   C68       1.0  0.7279830079735632  0.5348323447650856  0.6877560802615006  1.0000
  C   C69       1.0  0.20634120969769043  0.0595098232958051  0.745200009085849  1.0000
  C   C70       1.0  0.2936609083442292  0.4404901651303419  0.24519875718925727  1.0000
  C   C71       1.0  0.7936661106737263  0.9404895420427766  0.2548010509270355  1.0000
  C   C72       1.0  0.7063417077492176  0.5595079436142572  0.7548017907366074  1.0000
  C   C73       1.0  0.08528686589176708  0.0546005340248854  0.719303015004314  1.0000
  C   C74       1.0  0.41471120268442974  0.44539935540306175  0.21930120932410085  1.0000
  C   C75       1.0  0.9147158319831163  0.9453994024148429  0.2806990691542452  1.0000
  C   C76       1.0  0.585289580758868  0.554599347319396  0.7806988265217356  1.0000
  C   C77       1.0  0.9846221089347935  0.024549196820970606  0.7584709187701434  1.0000
  C   C78       1.0  0.5153792414765235  0.47544939565070626  0.25846917289329235  1.0000
  C   C79       1.0  0.0153805889368286  0.9754507396180757  0.24153065331140058  1.0000
  C   C80       1.0  0.48462342912483797  0.5245499315546028  0.7415303508796355  1.0000
  C   C81       1.0  0.006590843819360311  0.9993816027510719  0.8251479044778519  1.0000
  C   C82       1.0  0.49340852265114427  0.5006161976617064  0.3251487480719248  1.0000
  C   C83       1.0  0.9934108968397267  0.000617716830021196  0.17485315552434597  1.0000
  C   C84       1.0  0.5065893891773641  0.4993806544916097  0.6748533360749889  1.0000
  C   C85       1.0  0.04698014703939892  0.9863563828558745  0.5917652860821716  1.0000
  C   C86       1.0  0.4530191747251919  0.51364386933529  0.09176292413729929  1.0000
  C   C87       1.0  0.9530244379837783  0.013644178064673402  0.4082347497724327  1.0000
  C   C88       1.0  0.5469817177502421  0.48635727031197734  0.9082376237877409  1.0000
  C   C89       1.0  0.15397555793071402  0.9517645803725474  0.5661442008239064  1.0000
  C   C90       1.0  0.346025324864172  0.54823622854164  0.0661435347922747  1.0000
  C   C91       1.0  0.8460271671916076  0.04823596529617901  0.4338563471041538  1.0000
  C   C92       1.0  0.6539755676047392  0.4517649111042701  0.9338559889787347  1.0000
  C   C93       1.0  0.14459352305203774  0.8746737327591562  0.5367176144124954  1.0000
  C   C94       1.0  0.3554041135128188  0.6253251477517808  0.03671403719567929  1.0000
  C   C95       1.0  0.8554083266326699  0.12532802374538934  0.46328293351487554  1.0000
  C   C96       1.0  0.6445939345887554  0.37467475055399296  0.9632859986459008  1.0000
  C   C97       1.0  0.028956976021092404  0.8324237596487979  0.5346004328013265  1.0000
  C   C98       1.0  0.4710461860483406  0.6675745517890663  0.03459685396521189  1.0000
  C   C99       1.0  0.9710458308663733  0.16757861371167596  0.4653990909743441  1.0000
  C   C100      1.0  0.5289537219540819  0.3324253617685289  0.9654026698029128  1.0000
  C   C101      1.0  0.9219918524147134  0.867441910384642  0.5602055056111863  1.0000
  C   C102      1.0  0.5780052555979935  0.6325580381164714  0.060200368511189595  1.0000
  C   C103      1.0  0.07800904006072071  0.13255922926261832  0.4397950423138539  1.0000
  C   C104      1.0  0.4219938314975523  0.36744430474239925  0.9398017156424314  1.0000
  C   C105      1.0  0.9309307108513563  0.9451825871426466  0.5884072034807915  1.0000
  C   C106      1.0  0.5690723631344597  0.5548180909374452  0.0884039540515147  1.0000
  C   C107      1.0  0.06907302600119891  0.05481979384678232  0.4115943686047245  1.0000
  C   C108      1.0  0.4309267239578247  0.44518425192074323  0.911597618025091  1.0000
  C   C109      1.0  0.11024499459627889  0.6958559804535511  0.5056225506293685  1.0000
  C   C110      1.0  0.3897542150915854  0.8041452699962549  0.005620931835338199  1.0000
  C   C111      1.0  0.8897587967316056  0.3041476189898163  0.49437287653304207  1.0000
  C   C112      1.0  0.6102420276105462  0.19585583151705782  0.9943775677727231  1.0000
  C   C113      1.0  0.06108303422720239  0.6301726499555331  0.4701656785766061  1.0000
  C   C114      1.0  0.4389136920021457  0.8698291512520767  0.9701637151183888  1.0000
  C   C115      1.0  0.9389188427049504  0.3698297157780105  0.5298333331202584  1.0000
  C   C116      1.0  0.5610797881043013  0.1301725366142037  0.029835296561891794  1.0000
  C   C117      1.0  0.9198579645706034  0.7217088969141797  0.46935575110730093  1.0000
  C   C118      1.0  0.5801349976606859  0.7782908389854273  0.9693512441240555  1.0000
  C   C119      1.0  0.0801411497789033  0.27829405517503863  0.5306458209698519  1.0000
  C   C120      1.0  0.4198593578801209  0.2217096380443593  0.030647255479898695  1.0000
  S   S1        1.0  0.059204404825379704  0.0830701746143987  0.6329212284719076  1.0000
  S   S2        1.0  0.440810042465003  0.41692536663559576  0.1329220365032739  1.0000
  S   S3        1.0  0.940798184010845  0.916927324899163  0.3670793194534099  1.0000
  S   S4        1.0  0.5592018731489787  0.583072818371484  0.867078511440418  1.0000
  N   N1        1.0  0.21491019080959717  0.9996200262484011  0.027856677256210095  1.0000
  N   N2        1.0  0.2850938426439598  0.5003788842147829  0.5278560854297039  1.0000
  N   N3        1.0  0.7850916316178952  0.00038112102510719817  0.9721438706706136  1.0000
  N   N4        1.0  0.7149022092608917  0.4996179526819805  0.4721429262515428  1.0000
  N   N5        1.0  0.1473371355015729  0.9853107542876102  0.9215876264020364  1.0000
  N   N6        1.0  0.3526652639715309  0.5146860979777302  0.4215869311377958  1.0000
  N   N7        1.0  0.8526627452534045  0.014688550040979504  0.07841343359659447  1.0000
  N   N8        1.0  0.647334480494095  0.48531016019502726  0.5784136167810772  1.0000
  N   N9        1.0  0.01951242737323611  0.7536655458112808  0.5051528497562002  1.0000
  N   N10       1.0  0.48048576460697495  0.7463338680758939  0.005150459302264199  1.0000
  N   N11       1.0  0.9804912821992817  0.2463362259423718  0.494845137789646  1.0000
  N   N12       1.0  0.5195123652630046  0.2536678579223094  0.9948490644639421  1.0000
  N   N13       1.0  0.9432466146468174  0.6473605899811832  0.4477829547204805  1.0000
  N   N14       1.0  0.5567450885250622  0.8526378627777191  0.9477810397669799  1.0000
  N   N15       1.0  0.056751433461272385  0.3526393083259479  0.5522181052751305  1.0000
  N   N16       1.0  0.44324844609256786  0.1473650435499465  0.0522174598373795  1.0000
  O   O1        1.0  0.1457412790643886  0.17534465196873583  0.0967056535514033  1.0000
  O   O2        1.0  0.3542645829877955  0.3246562079451608  0.5967094381588254  1.0000
  O   O3        1.0  0.8542624577686125  0.8246577290166358  0.9032928460720129  1.0000
  O   O4        1.0  0.6457372939769499  0.675346157795161  0.4032946943082081  1.0000
  O   O5        1.0  0.23849637413658803  0.15404170254608127  0.19726084091947624  1.0000
  O   O6        1.0  0.2615128186317293  0.34596370318656255  0.6972648179845748  1.0000
  O   O7        1.0  0.7615073354424524  0.8459600692089283  0.8027381707804082  1.0000
  O   O8        1.0  0.7384851477177392  0.6540343674301781  0.30273829031746397  1.0000
  O   O9        1.0  0.9814070645658931  0.4788005083843673  0.35763685242049087  1.0000
  O   O10       1.0  0.5185936610175473  0.021197721879822502  0.8576363006862096  1.0000
  O   O11       1.0  0.018586442823845997  0.5212017887183649  0.6423662558764675  1.0000
  O   O12       1.0  0.48140611070855494  0.9787991455246399  0.14236475931022594  1.0000
  O   O13       1.0  0.796188267580611  0.4559443350602664  0.3068625076406448  1.0000
  O   O14       1.0  0.703807819295406  0.04404763810071441  0.8068621884861925  1.0000
  O   O15       1.0  0.20381842262254682  0.5440617241839476  0.6931313832982511  1.0000
  O   O16       1.0  0.2961816138901057  0.9559467084827633  0.19313272656425076  1.0000
  O   O17       1.0  0.1712364784133555  0.1254403694992732  0.6075598384996751  1.0000
  O   O18       1.0  0.32877097280729833  0.3745513958994735  0.10755656510016819  1.0000
  O   O19       1.0  0.8287708419645698  0.8745589958406584  0.39244224566724734  1.0000
  O   O20       1.0  0.6712379894104572  0.625443110843335  0.8924444949119062  1.0000
  O   O21       1.0  0.9394294393110274  0.11990465591227922  0.6281549904298058  1.0000
  O   O22       1.0  0.5605776918986437  0.3800936529154129  0.1281578707087974  1.0000
  O   O23       1.0  0.060574954905085604  0.8800916403896867  0.37184402126693067  1.0000
  O   O24       1.0  0.4394277958226239  0.6199063064010275  0.871842677224059  1.0000
