data_image0
_chemical_formula_structural       Zn8H40C48N24Cl16O8
_chemical_formula_sum              "Zn8 H40 C48 N24 Cl16 O8"
_cell_length_a       6.883936709000726
_cell_length_b       13.307707476000447
_cell_length_c       19.276819470002398
_cell_angle_alpha    89.99997133160018
_cell_angle_beta     89.99994911420131
_cell_angle_gamma    90.00000673289935

_space_group_name_H-M_alt    "P 1"
_space_group_IT_number       1

loop_
  _space_group_symop_operation_xyz
  'x, y, z'

loop_
  _atom_site_type_symbol
  _atom_site_label
  _atom_site_symmetry_multiplicity
  _atom_site_fract_x
  _atom_site_fract_y
  _atom_site_fract_z
  _atom_site_occupancy
  Zn  Zn1       1.0  0.5099781609204328  0.8409042820791583  0.40780926602982254  1.0000
  Zn  Zn2       1.0  0.9900167422676701  0.1590962193462744  0.9078093191824763  1.0000
  Zn  Zn3       1.0  0.4900218712022948  0.3409046769293839  0.0921903807024336  1.0000
  Zn  Zn4       1.0  0.009977674716949998  0.6590960284647028  0.5921904178017243  1.0000
  Zn  Zn5       1.0  0.4900197899618206  0.1590963213306225  0.5921904258282851  1.0000
  Zn  Zn6       1.0  0.009979755958042298  0.8409043840636556  0.09218985391809303  1.0000
  Zn  Zn7       1.0  0.5099775323358741  0.6590959264800559  0.9078103486709921  1.0000
  Zn  Zn8       1.0  0.9900202761650049  0.3409023206123862  0.407809274056774  1.0000
  H   H1        1.0  0.6252856105343981  0.6536488634637365  0.484997842854078  1.0000
  H   H2        1.0  0.874714916723761  0.34635308486608807  0.984997350211444  1.0000
  H   H3        1.0  0.3747187293977703  0.15364930854451586  0.015003424787885  1.0000
  H   H4        1.0  0.1252853610499969  0.8463522042775582  0.5150023221343362  1.0000
  H   H5        1.0  0.37471524566041126  0.34635249138977997  0.5150034052767581  1.0000
  H   H6        1.0  0.1252859394728247  0.6536475185437567  0.015002341646194902  1.0000
  H   H7        1.0  0.6252850321118969  0.8463512948650304  0.9849973045848301  1.0000
  H   H8        1.0  0.8747184004617737  0.15364539335582347  0.4849963322077997  1.0000
  H   H9        1.0  0.6063448281323147  0.6623529655174992  0.143045687329348  1.0000
  H   H10       1.0  0.8936579782580337  0.3376462250514863  0.6430446727571068  1.0000
  H   H11       1.0  0.3936566088183042  0.16235316352781837  0.3569545397930867  1.0000
  H   H12       1.0  0.10634229718358769  0.837646598390016  0.8569550025938996  1.0000
  H   H13       1.0  0.39365748071935514  0.3376461350033608  0.8569555608016444  1.0000
  H   H14       1.0  0.1063428779391842  0.6623543783585504  0.3569545003427521  1.0000
  H   H15       1.0  0.6063427947207103  0.8376444341050729  0.6430451520653051  1.0000
  H   H16       1.0  0.8936571063558317  0.16235400501979308  0.1430446892639807  1.0000
  H   H17       1.0  0.5071471227631577  0.7939766489343258  0.24483633162729032  1.0000
  H   H18       1.0  0.992853984947885  0.20602321925033354  0.7448363676573209  1.0000
  H   H19       1.0  0.49285434944441425  0.293977677166211  0.2551648875764982  1.0000
  H   H20       1.0  0.007144802577947499  0.7060229100238187  0.7551638718856353  1.0000
  H   H21       1.0  0.49285373343270317  0.20602320303110844  0.7551638789882561  1.0000
  H   H22       1.0  0.007146871248807001  0.7939781356037516  0.25516332420018983  1.0000
  H   H23       1.0  0.5071450540921987  0.70602067191016  0.7448368793128708  1.0000
  H   H24       1.0  0.9928546009607473  0.2939769419415796  0.2448363387301384  1.0000
  H   H25       1.0  0.7514881205430866  0.4959823514426845  0.45653464782588327  1.0000
  H   H26       1.0  0.7485110228526536  0.5040188660874423  0.9565331043980125  1.0000
  H   H27       1.0  0.24851485843304028  0.9959837106910568  0.043466501648985904  1.0000
  H   H28       1.0  0.2514877105627135  0.004017781486418  0.5434666861154653  1.0000
  H   H29       1.0  0.2485127356503654  0.5040182519662296  0.5434676378206333  1.0000
  H   H30       1.0  0.25148692802959965  0.4959817373223387  0.0434665874601023  1.0000
  H   H31       1.0  0.7514874504207113  0.004016892718830401  0.9565331902084112  1.0000
  H   H32       1.0  0.7485145982919902  0.995980567591154  0.45653196822676995  1.0000
  H   H33       1.0  0.7237020079001796  0.5028739396318117  0.1977507782482206  1.0000
  H   H34       1.0  0.7762963083016102  0.49712596270440196  0.6977487093809814  1.0000
  H   H35       1.0  0.27629502835934255  0.0028749229078571005  0.30224950392399563  1.0000
  H   H36       1.0  0.22370255720453264  0.9971256301316274  0.802249354647607  1.0000
  H   H37       1.0  0.2762973956360071  0.49712591233283393  0.8022515073986654  1.0000
  H   H38       1.0  0.2237045478963324  0.5028753921500524  0.30224994496097685  1.0000
  H   H39       1.0  0.7237014698655457  0.9971241776134221  0.6977501879346165  1.0000
  H   H40       1.0  0.7762968463366704  0.0028742218345243005  0.19774878093706863  1.0000
  C   C1        1.0  0.6360963486429441  0.6336416809549094  0.4302600802757511  1.0000
  C   C2        1.0  0.8639014055988097  0.36635955563177447  0.9302590654950863  1.0000
  C   C3        1.0  0.36390508061690946  0.1336428372398402  0.0697401567571276  1.0000
  C   C4        1.0  0.13609742487682297  0.8663578844371786  0.5697405999451988  1.0000
  C   C5        1.0  0.3639016022375259  0.3663596738985361  0.5697411678555611  1.0000
  C   C6        1.0  0.1360979979407091  0.6336417992222678  0.069740626362659  1.0000
  C   C7        1.0  0.6360957755790508  0.8663577661698199  0.9302600538582911  1.0000
  C   C8        1.0  0.8639034313192652  0.1336389617515152  0.43025909191308637  1.0000
  C   C9        1.0  0.6008201667353318  0.6674507009572751  0.3142316034261086  1.0000
  C   C10       1.0  0.8991778679385262  0.3325498683397541  0.8142311075702865  1.0000
  C   C11       1.0  0.3991783662659856  0.16745177484733634  0.18576914069478082  1.0000
  C   C12       1.0  0.10082240613827048  0.8325481112308494  0.6857680507824783  1.0000
  C   C13       1.0  0.39917778414493904  0.3325491510077044  0.6857696447054594  1.0000
  C   C14       1.0  0.10082298825825829  0.6674522379585569  0.1857685842870893  1.0000
  C   C15       1.0  0.6008210372727091  0.8325480771180622  0.8142310699210003  1.0000
  C   C16       1.0  0.8991784500592673  0.1674502378466869  0.3142306035599987  1.0000
  C   C17       1.0  0.6745105669749946  0.5708224953550527  0.2973543425982399  1.0000
  C   C18       1.0  0.8254875084906813  0.4291780861831426  0.7973533186601572  1.0000
  C   C19       1.0  0.325489392799753  0.0708243047715413  0.2026464348765487  1.0000
  C   C20       1.0  0.17451279147078944  0.9291778233983836  0.7026452875803033  1.0000
  C   C21       1.0  0.3254873839059016  0.4291773566101186  0.7026463867755481  1.0000
  C   C22       1.0  0.17451480036432798  0.5708225172271212  0.20264533568168736  1.0000
  C   C23       1.0  0.6745114633961081  0.9291755471938854  0.7973537757389907  1.0000
  C   C24       1.0  0.8254880647275796  0.07082202856779671  0.29735284800413814  1.0000
  C   C25       1.0  0.7393934277486809  0.5040574097600228  0.34920885209117364  1.0000
  C   C26       1.0  0.7606045223888458  0.4959431341685916  0.8492073075070009  1.0000
  C   C27       1.0  0.26060360882902234  0.0040577506609125  0.1507903921570914  1.0000
  C   C28       1.0  0.23939434279828478  0.9959406578975206  0.6507923132035742  1.0000
  C   C29       1.0  0.26060452313096494  0.4959424422047718  0.6507929147981741  1.0000
  C   C30       1.0  0.23939488115150453  0.5040597235741018  0.1507918655927085  1.0000
  C   C31       1.0  0.7393943420543819  0.9959421013050116  0.8492082621855986  1.0000
  C   C32       1.0  0.7606050607412624  0.004056188291329501  0.3492068598971727  1.0000
  C   C33       1.0  0.6122265681642388  0.652064922464369  0.1988692124402576  1.0000
  C   C34       1.0  0.8877731979896382  0.3479349790601205  0.698868714992905  1.0000
  C   C35       1.0  0.38777341337346627  0.15206591211386924  0.3011310182335194  1.0000
  C   C36       1.0  0.11222708020856231  0.8479346417370763  0.8011304380489577  1.0000
  C   C37       1.0  0.3877742880308972  0.3479341780566473  0.8011315169331896  1.0000
  C   C38       1.0  0.1122262055506056  0.6520671272383395  0.3011304581069326  1.0000
  C   C39       1.0  0.6122259901650225  0.8479324369630703  0.6988691923825173  1.0000
  C   C40       1.0  0.8877737759891743  0.15206521022891908  0.1988682162932562  1.0000
  C   C41       1.0  0.5621940952238232  0.7184054045290579  0.25155373013871707  1.0000
  C   C42       1.0  0.9378055435959282  0.2815952102280832  0.7515527205178502  1.0000
  C   C43       1.0  0.4378059040831843  0.21840568344214267  0.24844751515122712  1.0000
  C   C44       1.0  0.06219326417528489  0.7815949086201642  0.7484459366657321  1.0000
  C   C45       1.0  0.4378053083137203  0.2815951988801899  0.7484475179924817  1.0000
  C   C46       1.0  0.062196765258555296  0.718406144626222  0.24844645258164627  1.0000
  C   C47       1.0  0.5621949521112198  0.7815926656344561  0.7515537329801276  1.0000
  C   C48       1.0  0.937806139365918  0.21840494334598756  0.2515521989189438  1.0000
  N   N1        1.0  0.7082512880898904  0.5416220819427195  0.4156866221868256  1.0000
  N   N2        1.0  0.791746501375016  0.45837991665823796  0.9156855991716528  1.0000
  N   N3        1.0  0.2917501165213565  0.041623975501778404  0.0843131278516083  1.0000
  N   N4        1.0  0.20825525906583664  0.9583789899385238  0.5843129969887499  1.0000
  N   N5        1.0  0.2917452101327882  0.4583792729104985  0.5843151447024938  1.0000
  N   N6        1.0  0.2082543548227278  0.5416199353077574  0.0843130551705613  1.0000
  N   N7        1.0  0.7082521923330275  0.9583766279082937  0.9156860452480161  1.0000
  N   N8        1.0  0.7917485024467652  0.0416201105835015  0.41568513859534306  1.0000
  N   N9        1.0  0.5830816922116925  0.6981975194831449  0.3820622927933216  1.0000
  N   N10       1.0  0.9169161785202603  0.30180450350514587  0.8820618017661417  1.0000
  N   N11       1.0  0.41691830168358734  0.19819864345569738  0.11793792195631882  1.0000
  N   N12       1.0  0.08308408732149529  0.801803546152783  0.6179368484414383  1.0000
  N   N13       1.0  0.41691625866941  0.30180383537048533  0.617938436580218  1.0000
  N   N14       1.0  0.0830861303353743  0.6981960999053028  0.11793633381793  1.0000
  N   N15       1.0  0.5830825545129982  0.8018019599541475  0.8820617699013198  1.0000
  N   N16       1.0  0.9169167688760427  0.19819480292475328  0.3820618059010387  1.0000
  N   N17       1.0  0.679732954108168  0.5639227602334529  0.22656984437839617  1.0000
  N   N18       1.0  0.8202652924391816  0.4360763697560443  0.7265683010040718  1.0000
  N   N19       1.0  0.3202670038170794  0.0639245180494186  0.2734319729936203  1.0000
  N   N20       1.0  0.17973355671170307  0.9360760558914974  0.7734313403710261  1.0000
  N   N21       1.0  0.3202664494285372  0.43607634028715125  0.773431922510845  1.0000
  N   N22       1.0  0.17973556375750377  0.5639249850980336  0.2734313908534389  1.0000
  N   N23       1.0  0.679733852378682  0.9360745824717823  0.7265682376220541  1.0000
  N   N24       1.0  0.8202658468288745  0.0639237960744623  0.22656731397142243  1.0000
  Cl  Cl1       1.0  0.20782840960175258  0.8919032997629942  0.38517901726415005  1.0000
  Cl  Cl2       1.0  0.29216752287114645  0.10809869601690282  0.8851781150219581  1.0000
  Cl  Cl3       1.0  0.7921730888375863  0.3919051961636058  0.11482216813702453  1.0000
  Cl  Cl4       1.0  0.707825427795477  0.608097772096599  0.6148216395660102  1.0000
  Cl  Cl5       1.0  0.7921680886217785  0.1080950493136754  0.6148217121101425  1.0000
  Cl  Cl6       1.0  0.7078289753526902  0.8919019073924588  0.1148226143519437  1.0000
  Cl  Cl7       1.0  0.20782776735867967  0.6080976615787463  0.8851780424780032  1.0000
  Cl  Cl8       1.0  0.2921696177744195  0.3919035827579052  0.3851764960191133  1.0000
  Cl  Cl9       1.0  0.6374356290552043  0.8679374530267127  0.5137349096578916  1.0000
  Cl  Cl10      1.0  0.862561679242056  0.1320648371073645  0.013733948694230903  1.0000
  Cl  Cl11      1.0  0.36256174918544565  0.3679368042530839  0.9862652739955707  1.0000
  Cl  Cl12      1.0  0.13743829693854787  0.6320636153207033  0.4862657701258115  1.0000
  Cl  Cl13      1.0  0.36256377448306404  0.13206390182696032  0.48626581971540633  1.0000
  Cl  Cl14      1.0  0.13743772429891976  0.8679380206355134  0.9862647056476987  1.0000
  Cl  Cl15      1.0  0.6374347490382916  0.6320630477120519  0.013735455378459004  1.0000
  Cl  Cl16      1.0  0.8625640119151042  0.3679362366449511  0.5137339217317205  1.0000
  O   O1        1.0  0.8212739022977898  0.4199159505928093  0.3393425991178703  1.0000
  O   O2        1.0  0.678721166370835  0.5800846004914817  0.8393415709483705  1.0000
  O   O3        1.0  0.17872469833162094  0.919917972804768  0.16065805785653003  1.0000
  O   O4        1.0  0.321274682106143  0.0800849372627681  0.6606581933088479  1.0000
  O   O5        1.0  0.17872259592531486  0.5800839013721416  0.6606586490139393  1.0000
  O   O6        1.0  0.32127823716795934  0.41991600291814285  0.1606586396672824  1.0000
  O   O7        1.0  0.8212732525513572  0.08008338204942328  0.8393411152436698  1.0000
  O   O8        1.0  0.6787247214338022  0.9199149147029999  0.33934097979137334  1.0000
