data_image0
_chemical_formula_structural       Hg4H44C32S4N8Cl4O12
_chemical_formula_sum              "Hg4 H44 C32 S4 N8 Cl4 O12"
_cell_length_a       7.050287498476621
_cell_length_b       7.347496305785446
_cell_length_c       23.69871934407054
_cell_angle_alpha    89.99989514054344
_cell_angle_beta     90.00027932167502
_cell_angle_gamma    110.65244714111627

_space_group_name_H-M_alt    "P 1"
_space_group_IT_number       1

loop_
  _space_group_symop_operation_xyz
  'x, y, z'

loop_
  _atom_site_type_symbol
  _atom_site_label
  _atom_site_symmetry_multiplicity
  _atom_site_fract_x
  _atom_site_fract_y
  _atom_site_fract_z
  _atom_site_occupancy
  Hg  Hg1       1.0  0.0633967659493848  0.1977066938023029  0.13653817102670726  1.0000
  Hg  Hg2       1.0  0.4366072757302106  0.30229858671631854  0.6365380045504025  1.0000
  Hg  Hg3       1.0  0.9366027606815095  0.8022967648706613  0.8634639931817674  1.0000
  Hg  Hg4       1.0  0.563394859775407  0.6977004771106862  0.3634624718062581  1.0000
  H   H1        1.0  0.1464099871540441  0.4822766154224709  0.21715558902120344  1.0000
  H   H2        1.0  0.3535990573926  0.017727132093064302  0.7171546154766945  1.0000
  H   H3        1.0  0.8535923684368498  0.517726822230557  0.7828461532255985  1.0000
  H   H4        1.0  0.6464030781096141  0.9822719317340612  0.2828454389162403  1.0000
  H   H5        1.0  0.1693976685455141  0.24910938209129796  0.9943229816499937  1.0000
  H   H6        1.0  0.3306075933776071  0.25089864060370104  0.49432181828387906  1.0000
  H   H7        1.0  0.8306088151347241  0.7508823569906369  0.0056808704216778005  1.0000
  H   H8        1.0  0.669398136015296  0.7491062304685341  0.5056782361100575  1.0000
  H   H9        1.0  0.28291583951026666  0.5230857504349444  0.9243242690933754  1.0000
  H   H10       1.0  0.21707973610037354  0.9769210017408909  0.42432323824425566  1.0000
  H   H11       1.0  0.717080197938941  0.47690460777867116  0.0756787390436457  1.0000
  H   H12       1.0  0.7829197905134535  0.023082456932684202  0.5756768161455668  1.0000
  H   H13       1.0  0.3671660265588343  0.8623470542572065  0.9589657707970289  1.0000
  H   H14       1.0  0.13282869503006367  0.6376596882175819  0.458965649150052  1.0000
  H   H15       1.0  0.6328245730078593  0.137647719824038  0.0410334396612697  1.0000
  H   H16       1.0  0.8671694171020549  0.36234378096602887  0.5410344052387472  1.0000
  H   H17       1.0  0.34000320951594887  0.9191427685960675  0.0638549198477989  1.0000
  H   H18       1.0  0.15999807011858277  0.5808684836337008  0.5638540527138147  1.0000
  H   H19       1.0  0.659990659167633  0.08086073211776319  0.9361447125741833  1.0000
  H   H20       1.0  0.8400028709735354  0.4191349645299667  0.43614557971330464  1.0000
  H   H21       1.0  0.30437023582462075  0.7809591541129138  0.15906387437648556  1.0000
  H   H22       1.0  0.19563355849336259  0.7190432844065029  0.6590629825693882  1.0000
  H   H23       1.0  0.6956292908028558  0.21904430456017113  0.8409378678682556  1.0000
  H   H24       1.0  0.8043728204539705  0.2809557478905234  0.34093707182662303  1.0000
  H   H25       1.0  0.0457705852665171  0.633040030938176  0.1497720864529128  1.0000
  H   H26       1.0  0.4542336035707065  0.866963867441271  0.6497706439159217  1.0000
  H   H27       1.0  0.9542283965087112  0.366961973296121  0.8502296557918427  1.0000
  H   H28       1.0  0.5457710361142887  0.1330380947535161  0.3502289885142957  1.0000
  H   H29       1.0  0.49121693051824183  0.6620619562824571  0.2201719860478093  1.0000
  H   H30       1.0  0.008795249660025066  0.8379374746460186  0.7201745553510647  1.0000
  H   H31       1.0  0.5087871643110944  0.3379385514736696  0.779827224418689  1.0000
  H   H32       1.0  0.9912083003204799  0.16206157867119939  0.27982507707916676  1.0000
  H   H33       1.0  0.533111609443978  0.5559666037230785  0.1569639888540522  1.0000
  H   H34       1.0  0.9668881079917001  0.9440263428689664  0.6569646319102134  1.0000
  H   H35       1.0  0.46688595783248127  0.44403541102186483  0.8430356435710209  1.0000
  H   H36       1.0  0.033114677054697894  0.05596688218332701  0.34303415659361747  1.0000
  H   H37       1.0  0.3428295520298335  0.2779824169582881  0.2539923774961252  1.0000
  H   H38       1.0  0.15717530018901024  0.22201988615694296  0.7539914282877191  1.0000
  H   H39       1.0  0.6571812904308274  0.7220209576352802  0.7460068329744659  1.0000
  H   H40       1.0  0.842819762884183  0.7779792302210852  0.2460060943176927  1.0000
  H   H41       1.0  0.6026532410671381  0.4226035573944813  0.25945358048108597  1.0000
  H   H42       1.0  0.8973521201156061  0.07739359167839409  0.7594539032992244  1.0000
  H   H43       1.0  0.39735368271537647  0.5773969293419512  0.7405443640962801  1.0000
  H   H44       1.0  0.10264381259045764  0.9226040597506896  0.240544041270951  1.0000
  C   C1        1.0  0.20918672686572395  0.4000955509750952  0.0076371626654606  1.0000
  C   C2        1.0  0.2908109859241179  0.09990983627808699  0.5076368966274104  1.0000
  C   C3        1.0  0.7908118147628613  0.599897705606303  0.9923650015451173  1.0000
  C   C4        1.0  0.7091908248042884  0.9000921469365223  0.492363579728206  1.0000
  C   C5        1.0  0.27291610815083084  0.5519068239369176  0.9690334208484543  1.0000
  C   C6        1.0  0.22708051557082598  0.9480969827667494  0.4690324204201133  1.0000
  C   C7        1.0  0.7270785148132575  0.4480835447868614  0.0309691653238104  1.0000
  C   C8        1.0  0.772920970380362  0.05190791983545749  0.5309680559344585  1.0000
  C   C9        1.0  0.31991122639784925  0.7417997851779887  0.9887648484206438  1.0000
  C   C10       1.0  0.1800845221520433  0.7582083943499711  0.48876472868870013  1.0000
  C   C11       1.0  0.6800790483916259  0.25819790829086037  0.0112343620366104  1.0000
  C   C12       1.0  0.8199135899766576  0.24179507483376028  0.5112349037363657  1.0000
  C   C13       1.0  0.30424123593908803  0.7739608586638127  0.046224023514156394  1.0000
  C   C14       1.0  0.19575812390809938  0.726046040535472  0.5462248158784462  1.0000
  C   C15       1.0  0.6957529575182948  0.2260397226625344  0.9537751869451441  1.0000
  C   C16       1.0  0.8042436868134858  0.2739559426793789  0.4537748165497106  1.0000
  C   C17       1.0  0.23826459056147095  0.6138570509022473  0.0824550916222364  1.0000
  C   C18       1.0  0.2617350306611285  0.8861527465470401  0.582453781372152  1.0000
  C   C19       1.0  0.761732327174215  0.38615080261741513  0.9175462286556736  1.0000
  C   C20       1.0  0.7382656903559593  0.11384632779024169  0.417545851056019  1.0000
  C   C21       1.0  0.20253989393108895  0.6377806029177079  0.1444242304758774  1.0000
  C   C22       1.0  0.2974652981048109  0.8622262074588534  0.6444246730948393  1.0000
  C   C23       1.0  0.7974590878339073  0.3622214013169653  0.8555762458776854  1.0000
  C   C24       1.0  0.7025407560687212  0.1377757442256566  0.3555758032638607  1.0000
  C   C25       1.0  0.44213584355819796  0.5257284777519544  0.19573944425851408  1.0000
  C   C26       1.0  0.05786832406697319  0.9742695655427696  0.6957411654704372  1.0000
  C   C27       1.0  0.557867381645096  0.4742734949528682  0.804260188170673  1.0000
  C   C28       1.0  0.9421309824684131  0.025729519304547907  0.3042584669567105  1.0000
  C   C29       1.0  0.4768836736958733  0.36354903352251716  0.22950378599127672  1.0000
  C   C30       1.0  0.0231191477796102  0.13644892056348112  0.7295035336306556  1.0000
  C   C31       1.0  0.523115957609896  0.6364471319374373  0.7704950025094562  1.0000
  C   C32       1.0  0.9768840774134375  0.863553052141711  0.270494832907346  1.0000
  S   S1        1.0  0.5535962190811645  0.20078651798093014  0.1856069997720979  1.0000
  S   S2        1.0  0.9463989156141324  0.29920928279776854  0.6856064272382981  1.0000
  S   S3        1.0  0.44640308744398294  0.7992125668667569  0.8143913667638571  1.0000
  S   S4        1.0  0.05359647223968267  0.700786914192534  0.3143915173318845  1.0000
  N   N1        1.0  0.19165194852014622  0.4321185666458972  0.0628633320693694  1.0000
  N   N2        1.0  0.3083502516385721  0.067892595632145  0.5628622652177739  1.0000
  N   N3        1.0  0.8083498622253275  0.5678834165680868  0.9371392541048991  1.0000
  N   N4        1.0  0.6916524287192943  0.9321079226336481  0.4371382111388868  1.0000
  N   N5        1.0  0.2268494838641004  0.482768423797701  0.18038741565702307  1.0000
  N   N6        1.0  0.27315472238403526  0.0172353766992899  0.6803871696883307  1.0000
  N   N7        1.0  0.7731514572416744  0.5172350243654762  0.8196139046250224  1.0000
  N   N8        1.0  0.7268479579704207  0.9827651415666239  0.3196128847045969  1.0000
  Cl  Cl1       1.0  0.8476746990926431  0.8789973896670276  0.11561421393770388  1.0000
  Cl  Cl2       1.0  0.652324464730249  0.6210072480900805  0.6156145793954977  1.0000
  Cl  Cl3       1.0  0.1523214537123465  0.12100463558758179  0.8843866843775317  1.0000
  Cl  Cl4       1.0  0.34767767076854733  0.37899181573716584  0.38438505303370357  1.0000
  O   O1        1.0  0.4128581964492072  0.14718128177023704  0.137133829126725  1.0000
  O   O2        1.0  0.0871430259166601  0.35282401942046704  0.6371352379117852  1.0000
  O   O3        1.0  0.5871377362705064  0.8528163696583564  0.8628658032983693  1.0000
  O   O4        1.0  0.9128593296571667  0.6471794182331722  0.3628643945163716  1.0000
  O   O5        1.0  0.5372949526837304  0.0313934993998473  0.2210119014728207  1.0000
  O   O6        1.0  0.9626863899222756  0.4685980119965977  0.7210112589848876  1.0000
  O   O7        1.0  0.46270827251614577  0.9686084733050963  0.7789873089926402  1.0000
  O   O8        1.0  0.03730225030022178  0.5313953181562638  0.2789866855812022  1.0000
  O   O9        1.0  0.7614881380358514  0.3177964122257819  0.1684842519695167  1.0000
  O   O10       1.0  0.7385119373909391  0.18219060885070346  0.6684809109015291  1.0000
  O   O11       1.0  0.2385097540007592  0.6822026831321751  0.8315132706379487  1.0000
  O   O12       1.0  0.2614883434419538  0.8177997178350366  0.3315145018914479  1.0000
