data_image0
_chemical_formula_structural       Zn2H48C58O12
_chemical_formula_sum              "Zn2 H48 C58 O12"
_cell_length_a       5.387544801720025
_cell_length_b       8.198767970873279
_cell_length_c       26.261226359677757
_cell_angle_alpha    93.85964584146419
_cell_angle_beta     97.59989903123383
_cell_angle_gamma    90.2024671672744

_space_group_name_H-M_alt    "P 1"
_space_group_IT_number       1

loop_
  _space_group_symop_operation_xyz
  'x, y, z'

loop_
  _atom_site_type_symbol
  _atom_site_label
  _atom_site_symmetry_multiplicity
  _atom_site_fract_x
  _atom_site_fract_y
  _atom_site_fract_z
  _atom_site_occupancy
  Zn  Zn1       1.0  0.004268790545360398  0.6473076814015425  0.08506154097003818  1.0000
  Zn  Zn2       1.0  0.092217163984003  0.14767403206904103  0.08653691035581801  1.0000
  H   H1        1.0  0.577891924298271  0.6416054332990624  0.1105788045311371  1.0000
  H   H2        1.0  0.5524975934076508  0.14687132668840516  0.10896475507660604  1.0000
  H   H3        1.0  0.6642102685671886  0.8308703303395645  0.11200570814347802  1.0000
  H   H4        1.0  0.4663492455894556  0.3349654713856438  0.11328624087237671  1.0000
  H   H5        1.0  0.5468108819644328  0.9501865246855061  0.017839296130986792  1.0000
  H   H6        1.0  0.45665948404850104  0.43456640316226464  0.015404709402488897  1.0000
  H   H7        1.0  0.2758478512955236  0.04715669054437649  0.9901452523335551  1.0000
  H   H8        1.0  0.6904641196376674  0.5429473964815158  0.9903629917282828  1.0000
  H   H9        1.0  0.5527902688340802  0.888133659535917  0.9279886132351933  1.0000
  H   H10       1.0  0.35754778053367176  0.379908722657241  0.9242804403209421  1.0000
  H   H11       1.0  0.43149359244645075  0.7087045010993048  0.9486171825140846  1.0000
  H   H12       1.0  0.5042513597589321  0.2013264694718941  0.9455454016815353  1.0000
  H   H13       1.0  0.516290079014567  0.6439841972442861  0.8661354436560346  1.0000
  H   H14       1.0  0.3416944707311984  0.13363601659357016  0.8613074579127372  1.0000
  H   H15       1.0  0.48837969385358093  0.5080937527927388  0.7804358462018044  1.0000
  H   H16       1.0  0.29184855740012944  0.9977436178786477  0.77547681649029  1.0000
  H   H17       1.0  0.7661015597436177  0.7270092086702105  0.7397241261391087  1.0000
  H   H18       1.0  0.9668799505612568  0.23829949366062658  0.7443094863695379  1.0000
  H   H19       1.0  0.7980539749027784  0.862284153695036  0.8265447919839701  1.0000
  H   H20       1.0  0.013798707820555511  0.3732401993759423  0.831257766199805  1.0000
  H   H21       1.0  0.4510158380804512  0.38817586791314795  0.7123900009065736  1.0000
  H   H22       1.0  0.26661603588899396  0.879653976677744  0.7072292312045647  1.0000
  H   H23       1.0  0.41536681710270795  0.25564415163145066  0.6256242136184016  1.0000
  H   H24       1.0  0.2256750865253281  0.7454793675242825  0.6206723020246586  1.0000
  H   H25       1.0  0.050153068227054114  0.3112560284351744  0.5599755311957608  1.0000
  H   H26       1.0  0.5285357770840946  0.8084536879520313  0.5599580661673684  1.0000
  H   H27       1.0  0.7229960509312647  0.5062104903388017  0.5842505395436248  1.0000
  H   H28       1.0  0.8755145463404476  0.010800972765956401  0.5893087182240251  1.0000
  H   H29       1.0  0.7548215923383806  0.6376367393406852  0.6707576559543327  1.0000
  H   H30       1.0  0.920643058909313  0.14332174588901836  0.675700037755064  1.0000
  H   H31       1.0  0.03426364801903501  0.663706588411621  0.24706253213253154  1.0000
  H   H32       1.0  0.24037156467117168  0.16080102623076437  0.2522513726581579  1.0000
  H   H33       1.0  0.080663768665417  0.6026967882743861  0.33794984328219607  1.0000
  H   H34       1.0  0.266906025680548  0.10104241366475009  0.3430253291062684  1.0000
  H   H35       1.0  0.7468429791924792  0.3256586280770221  0.3164295981443743  1.0000
  H   H36       1.0  0.5691954098360911  0.8270404634815803  0.3084835259002503  1.0000
  H   H37       1.0  0.6963455922158134  0.3908568608488208  0.2259272655754572  1.0000
  H   H38       1.0  0.5461004105052468  0.8917453574230334  0.2182099088699943  1.0000
  H   H39       1.0  0.1226416166565443  0.5580990023327247  0.4095809054783714  1.0000
  H   H40       1.0  0.2831355015952468  0.057448578730493687  0.4143080113675666  1.0000
  H   H41       1.0  0.16026670266604273  0.48642674099376365  0.4986109478679595  1.0000
  H   H42       1.0  0.31781565280127205  0.9878209257371682  0.5035228045636302  1.0000
  H   H43       1.0  0.4995269207447988  0.3006551190583408  0.5336556288634284  1.0000
  H   H44       1.0  0.9990973941530968  0.805246038420968  0.5327034440102878  1.0000
  H   H45       1.0  0.804938179150689  0.19230624570555924  0.47606298609441217  1.0000
  H   H46       1.0  0.6369998734789561  0.6999538685646343  0.46912701443532256  1.0000
  H   H47       1.0  0.7708960134638759  0.265073854259839  0.387006651420144  1.0000
  H   H48       1.0  0.598867431151632  0.7705504165137994  0.3797460555244428  1.0000
  C   C1        1.0  0.21099190600366313  0.8357467413666908  0.0287385692735853  1.0000
  C   C2        1.0  0.8130547760326152  0.33198230849475147  0.028456286513090803  1.0000
  C   C3        1.0  0.361390078241584  0.9269714831353751  0.9953544095688971  1.0000
  C   C4        1.0  0.618980893685027  0.419521420298743  0.9942000427409496  1.0000
  C   C5        1.0  0.39028736859098967  0.8384387681968305  0.9437811372533319  1.0000
  C   C6        1.0  0.5382583660182404  0.33198144586035727  0.9416957951828877  1.0000
  C   C7        1.0  0.1593084622708432  0.8489315263459501  0.9046849209883733  1.0000
  C   C8        1.0  0.7303786883936497  0.3482322304403667  0.9052023755689619  1.0000
  C   C9        1.0  0.15607895600618352  0.7622812152528482  0.852751094710122  1.0000
  C   C10       1.0  0.6853133955313453  0.26212762991635696  0.8528590213644023  1.0000
  C   C11       1.0  0.3498641319922983  0.6619688379955234  0.8387410476244811  1.0000
  C   C12       1.0  0.48126169731549595  0.15639909522790418  0.8360321589199486  1.0000
  C   C13       1.0  0.3337324790686509  0.585000251573227  0.7894629309458878  1.0000
  C   C14       1.0  0.45252943233200676  0.07933879387742589  0.7866515260193765  1.0000
  C   C15       1.0  0.12457321065457451  0.6051460458621348  0.75220804154592  1.0000
  C   C16       1.0  0.6254325951167345  0.10505109061089259  0.7520328768620885  1.0000
  C   C17       1.0  0.9320231844849971  0.7068670636668273  0.766849254671726  1.0000
  C   C18       1.0  0.8281157775587503  0.21295186584454476  0.7693711826593344  1.0000
  C   C19       1.0  0.9477059325183889  0.7834971860131289  0.8158509618732168  1.0000
  C   C20       1.0  0.8571401438530729  0.28945772768197026  0.8185104883766527  1.0000
  C   C21       1.0  0.1054282629069618  0.5240825460883939  0.6995351521760185  1.0000
  C   C22       1.0  0.5976700032892238  0.0232599622094298  0.6994001712710514  1.0000
  C   C23       1.0  0.2896506763264597  0.415568923209193  0.6848858590394897  1.0000
  C   C24       1.0  0.40218790707943697  0.9102046340211133  0.6819769545765696  1.0000
  C   C25       1.0  0.2700947059605383  0.3399478295574595  0.6352973512780196  1.0000
  C   C26       1.0  0.3775067422457142  0.833902027837716  0.6324416743734531  1.0000
  C   C27       1.0  0.0664176956224622  0.37113066276708645  0.5986678968001016  1.0000
  C   C28       1.0  0.5466451275377864  0.8691151588821526  0.5985552239482388  1.0000
  C   C29       1.0  0.8828540813540756  0.47930401123688426  0.6123203722224915  1.0000
  C   C30       1.0  0.7411431250795103  0.9812514069257928  0.615027745603193  1.0000
  C   C31       1.0  0.901771746169331  0.5539032079509809  0.6619413553741326  1.0000
  C   C32       1.0  0.7666887649629716  0.056398947143307517  0.6646477504183536  1.0000
  C   C33       1.0  0.3280658456281742  0.5654368822567194  0.1750755285546575  1.0000
  C   C34       1.0  0.8793312003338869  0.0648515357071489  0.1740095709165175  1.0000
  C   C35       1.0  0.36103427845308994  0.5304297632364195  0.23045936930432023  1.0000
  C   C36       1.0  0.8927079236336367  0.0293205428546202  0.22914710360077356  1.0000
  C   C37       1.0  0.19010847763698988  0.5900207402054676  0.2628170919912449  1.0000
  C   C38       1.0  0.09381359050734521  0.08813605859830177  0.2650816028298166  1.0000
  C   C39       1.0  0.2184760709116276  0.5546547807321643  0.3142565729442595  1.0000
  C   C40       1.0  0.10690653971492742  0.053435232742785395  0.3164432775392996  1.0000
  C   C41       1.0  0.4174502186777218  0.45806093783990315  0.3353546567963407  1.0000
  C   C42       1.0  0.9206616873496217  0.958275343943157  0.3339683084708512  1.0000
  C   C43       1.0  0.5891401439060927  0.4004964851665918  0.3023354518612464  1.0000
  C   C44       1.0  0.7187598691841969  0.9009417901249465  0.29730873252616874  1.0000
  C   C45       1.0  0.561809135151499  0.436113021661626  0.2508734064931346  1.0000
  C   C46       1.0  0.7043553562136252  0.9361200495717694  0.24593625094176735  1.0000
  C   C47       1.0  0.44266520349003  0.41705586869199607  0.39005387258661983  1.0000
  C   C48       1.0  0.9389455486779144  0.9188257423717017  0.3887513871613919  1.0000
  C   C49       1.0  0.27370533228617683  0.47751331683500087  0.423219980838816  1.0000
  C   C50       1.0  0.13920422806315  0.9785995148978657  0.4253245735462414  1.0000
  C   C51       1.0  0.2949985042648109  0.4370707527589771  0.47429482715053695  1.0000
  C   C52       1.0  0.1597868483206639  0.9391315267426134  0.4764672065331865  1.0000
  C   C53       1.0  0.48527002872649655  0.334361106344545  0.4939215116225243  1.0000
  C   C54       1.0  0.981080216704271  0.8380142036941153  0.4928246408453845  1.0000
  C   C55       1.0  0.6557284766288306  0.2737874220971648  0.4618325715747248  1.0000
  C   C56       1.0  0.7794104203166655  0.7789276758443646  0.45737550840500063  1.0000
  C   C57       1.0  0.6348459824446523  0.3149596924749644  0.4108133739622417  1.0000
  C   C58       1.0  0.7585030722698961  0.8191262649892221  0.4062451715590783  1.0000
  O   O1        1.0  0.15964852313150146  0.6844660835044534  0.0195146965055812  1.0000
  O   O2        1.0  0.8531853778276998  0.1805292084744821  0.020259028840278907  1.0000
  O   O3        1.0  0.14108199821529874  0.9083117272547127  0.0695619105331389  1.0000
  O   O4        1.0  0.9344311662815912  0.40725645957898843  0.0690188952927713  1.0000
  O   O5        1.0  0.9769417469060925  0.9301097647313624  0.914696369738607  1.0000
  O   O6        1.0  0.9207834391344746  0.43374790472084596  0.9178264200665966  1.0000
  O   O7        1.0  0.1422048394719653  0.6536688763486465  0.1590391245457852  1.0000
  O   O8        1.0  0.0548714265316974  0.15218657043621414  0.16094874296305053  1.0000
  O   O9        1.0  0.48625930726704064  0.5087225525735376  0.1465499405766764  1.0000
  O   O10       1.0  0.6931753697498239  0.009544080473013099  0.1422864890929532  1.0000
  O   O11       1.0  0.6575891230603688  0.7243482369176988  0.0907797472611591  1.0000
  O   O12       1.0  0.44352507673656316  0.23076315017831917  0.090851496099404  1.0000
