data_image0
_chemical_formula_structural       K4H20C16O24
_chemical_formula_sum              "K4 H20 C16 O24"
_cell_length_a       7.6138339969063535
_cell_length_b       7.7251800990539055
_cell_length_c       11.172619782363308
_cell_angle_alpha    89.99971429075724
_cell_angle_beta     102.36373575167465
_cell_angle_gamma    90.00037220448205

_space_group_name_H-M_alt    "P 1"
_space_group_IT_number       1

loop_
  _space_group_symop_operation_xyz
  'x, y, z'

loop_
  _atom_site_type_symbol
  _atom_site_label
  _atom_site_symmetry_multiplicity
  _atom_site_fract_x
  _atom_site_fract_y
  _atom_site_fract_z
  _atom_site_occupancy
  K   K1        1.0  0.7736876406044146  0.07433281577086598  0.5276391094270779  1.0000
  K   K2        1.0  0.22630554659105678  0.5743398100665899  0.9723589608415538  1.0000
  K   K3        1.0  0.2263158796882081  0.9256667577208969  0.47235873466273404  1.0000
  K   K4        1.0  0.773697979358161  0.4256597634187286  0.0276406741601249  1.0000
  H   H1        1.0  0.7189778745780515  0.42124297990714865  0.3538360420949047  1.0000
  H   H2        1.0  0.28102251311504733  0.921246206775045  0.1461614351011917  1.0000
  H   H3        1.0  0.2810189454405858  0.5787552990726466  0.6461679940865395  1.0000
  H   H4        1.0  0.7189783208509652  0.0787546611745071  0.8538369158198549  1.0000
  H   H5        1.0  0.30395283927525435  0.43639434534856036  0.45156342039870623  1.0000
  H   H6        1.0  0.696047641712994  0.9363957530215924  0.04843580831876444  1.0000
  H   H7        1.0  0.6960480060002112  0.56360522811989  0.5484385123477722  1.0000
  H   H8        1.0  0.30395185050573303  0.06360640938933669  0.9515632437450209  1.0000
  H   H9        1.0  0.30004779398731063  0.2027847707334729  0.3059928872966395  1.0000
  H   H10       1.0  0.6999459573584801  0.7027864467941995  0.1940061715487786  1.0000
  H   H11       1.0  0.6999490175426856  0.7972122137877874  0.6940084625186742  1.0000
  H   H12       1.0  0.30005219027717794  0.29721442114493607  0.8059926862051867  1.0000
  H   H13       1.0  0.11812549924475489  0.21518450284250423  0.1390484325206742  1.0000
  H   H14       1.0  0.8818710129826783  0.7151848420560752  0.3609509827107544  1.0000
  H   H15       1.0  0.8818766821251385  0.7848150706392116  0.8609510081695008  1.0000
  H   H16       1.0  0.1181257928944603  0.28481343693983513  0.6390485761910015  1.0000
  H   H17       1.0  0.13460968388137928  0.646196766858871  0.24814995804400303  1.0000
  H   H18       1.0  0.8653904601910938  0.14619650677056475  0.2518493240317881  1.0000
  H   H19       1.0  0.8653925003093265  0.3538002176832221  0.7518503781054733  1.0000
  H   H20       1.0  0.13461037660322012  0.8538043611757614  0.7481499223451921  1.0000
  C   C1        1.0  0.026926035557792702  0.38411536243045674  0.3697393041734998  1.0000
  C   C2        1.0  0.9730701121026397  0.88411406683322  0.1302603729918843  1.0000
  C   C3        1.0  0.9730721177232268  0.6158816220976177  0.6302613444973844  1.0000
  C   C4        1.0  0.0269293829406436  0.11588680110628498  0.8697395745295254  1.0000
  C   C5        1.0  0.21397840952742087  0.45108012672057624  0.36092795083557405  1.0000
  C   C6        1.0  0.7860221507508669  0.9510801607125287  0.1390694487894422  1.0000
  C   C7        1.0  0.7860210883366746  0.5489181522792987  0.639072892145137  1.0000
  C   C8        1.0  0.21397868039058923  0.04892200170844769  0.8609280066739872  1.0000
  C   C9        1.0  0.2841838723971081  0.33503808117730216  0.26893108607160343  1.0000
  C   C10       1.0  0.715813330307995  0.8350408855449059  0.2310671220867988  1.0000
  C   C11       1.0  0.7158156282952887  0.6649601978193473  0.7310706523650482  1.0000
  C   C12       1.0  0.28418749800516  0.1649612768792892  0.7689294379206828  1.0000
  C   C13       1.0  0.47073791983797253  0.3945273004052011  0.2572381768751768  1.0000
  C   C14       1.0  0.5292623133307829  0.8945353001370505  0.24275936977427653  1.0000
  C   C15       1.0  0.5292615893393204  0.6054709785817846  0.7427662479292891  1.0000
  C   C16       1.0  0.4707385206427119  0.1054681567489055  0.7572389811434023  1.0000
  O   O1        1.0  0.8972889242116224  0.4934308618762486  0.3543265669364716  1.0000
  O   O2        1.0  0.10271054493185969  0.9934238911255375  0.1456732146439563  1.0000
  O   O3        1.0  0.10270923190893202  0.5065700060532092  0.6456749771853012  1.0000
  O   O4        1.0  0.8972889529284913  0.006573093406132098  0.8543276283384388  1.0000
  O   O5        1.0  0.009491948258705902  0.22434938577352168  0.38813018916982145  1.0000
  O   O6        1.0  0.9905019391264674  0.7243457454539948  0.11187239543922799  1.0000
  O   O7        1.0  0.9905088913564201  0.7756488932331747  0.611869952666467  1.0000
  O   O8        1.0  0.009494866750671302  0.2756525335419155  0.8881271634625278  1.0000
  O   O9        1.0  0.2159211716798808  0.6285220642034729  0.3295094118759252  1.0000
  O   O10       1.0  0.7840802119073871  0.12852316621510335  0.17048921500709474  1.0000
  O   O11       1.0  0.784079667927756  0.37147362586681243  0.6704907299637243  1.0000
  O   O12       1.0  0.21591793855282757  0.8714764072526078  0.8295105382044881  1.0000
  O   O13       1.0  0.1614234279896394  0.33654874940570056  0.15363651162486036  1.0000
  O   O14       1.0  0.838573791935019  0.8365502116242991  0.34636437897543004  1.0000
  O   O15       1.0  0.8385774172858264  0.6634508240627495  0.8463654211216181  1.0000
  O   O16       1.0  0.16142704485555018  0.16344936185382142  0.653634867403234  1.0000
  O   O17       1.0  0.503887657030269  0.4534830110664102  0.16170643953576302  1.0000
  O   O18       1.0  0.4961142561095002  0.9534965814962816  0.3382893572238999  1.0000
  O   O19       1.0  0.49611319672634835  0.5465152679241639  0.8382981795802067  1.0000
  O   O20       1.0  0.5038892670376285  0.046512053269672976  0.6617093823100647  1.0000
  O   O21       1.0  0.590708964506291  0.37592838916302884  0.361272748733974  1.0000
  O   O22       1.0  0.40928981931760683  0.8759337841563165  0.13872554741961812  1.0000
  O   O23       1.0  0.40928920009542225  0.62407118428856  0.6387314817572972  1.0000
  O   O24       1.0  0.5907096757331658  0.12406967271959247  0.8612744000984236  1.0000
