data_image0
_chemical_formula_structural       Er2H28C48N4O12
_chemical_formula_sum              "Er2 H28 C48 N4 O12"
_cell_length_a       9.938477346710206
_cell_length_b       11.06067897462066
_cell_length_c       12.834438332629825
_cell_angle_alpha    98.16784951284315
_cell_angle_beta     107.83344115302582
_cell_angle_gamma    111.13639211684281

_space_group_name_H-M_alt    "P 1"
_space_group_IT_number       1

loop_
  _space_group_symop_operation_xyz
  'x, y, z'

loop_
  _atom_site_type_symbol
  _atom_site_label
  _atom_site_symmetry_multiplicity
  _atom_site_fract_x
  _atom_site_fract_y
  _atom_site_fract_z
  _atom_site_occupancy
  Er  Er1       1.0  0.15700386223743834  0.7040894108592326  0.19816975521523966  1.0000
  Er  Er2       1.0  0.84298601065278  0.2959088035719475  0.8018282911816784  1.0000
  H   H1        1.0  0.7400497377516191  0.6229530945627886  0.17777339086708824  1.0000
  H   H2        1.0  0.25992756042415976  0.3770381115343752  0.8222104528094292  1.0000
  H   H3        1.0  0.5086921158371781  0.3566227049081902  0.836033073413425  1.0000
  H   H4        1.0  0.49128252502929837  0.6433611835984223  0.16395927581964292  1.0000
  H   H5        1.0  0.8264711008975922  0.9075686540494844  0.2937910911823138  1.0000
  H   H6        1.0  0.17353539370046184  0.092440655502088  0.7062227084823505  1.0000
  H   H7        1.0  0.2329204183830386  0.9525813521482078  0.5712612785426074  1.0000
  H   H8        1.0  0.7670863410522059  0.047437127586633196  0.42874755711514473  1.0000
  H   H9        1.0  0.20958179417434764  0.40154906408226754  0.42713680259169007  1.0000
  H   H10       1.0  0.7904163349866095  0.5984601906248129  0.5728702183659493  1.0000
  H   H11       1.0  0.6420073970524244  0.6889343402640975  0.43342951773469457  1.0000
  H   H12       1.0  0.3579827471212482  0.3110716474666048  0.5665789714643452  1.0000
  H   H13       1.0  0.9556434291384334  0.6226237987216267  0.9111683063953819  1.0000
  H   H14       1.0  0.0443429431021443  0.3773755418537163  0.0888212169850036  1.0000
  H   H15       1.0  0.8892833174678143  0.7258550421949365  0.755794137207566  1.0000
  H   H16       1.0  0.1107218292561853  0.2741547744135957  0.24419834671137863  1.0000
  H   H17       1.0  0.019143528912600592  0.9814535377654678  0.7982391621373992  1.0000
  H   H18       1.0  0.9808735472388361  0.018557329125712792  0.20176424156043282  1.0000
  H   H19       1.0  0.21195793477241412  0.20289550968451664  0.9387298692825183  1.0000
  H   H20       1.0  0.7880572244511869  0.7971092340270688  0.061275367401485474  1.0000
  H   H21       1.0  0.412826855297027  0.3347654164741698  0.13357840237689092  1.0000
  H   H22       1.0  0.5871889125985204  0.6652341977459881  0.8664317686633467  1.0000
  H   H23       1.0  0.5663240064672762  0.3381266318966354  0.332215695459098  1.0000
  H   H24       1.0  0.43368554775424434  0.6618598443875783  0.6677911929149972  1.0000
  H   H25       1.0  0.6286300637202162  0.20475646195669836  0.46880668440301326  1.0000
  H   H26       1.0  0.37136814058952444  0.7952238141311625  0.5311949880021061  1.0000
  H   H27       1.0  0.4763827705176596  0.9530306925534903  0.4045974723676125  1.0000
  H   H28       1.0  0.5236159244207598  0.04694784997533929  0.5953939623621594  1.0000
  C   C1        1.0  0.7868060912235108  0.4793329731949925  0.014724573365249764  1.0000
  C   C2        1.0  0.21317527807381967  0.5206602593730594  0.9852628944422293  1.0000
  C   C3        1.0  0.6377863509250118  0.4880420005544366  0.008228117701136736  1.0000
  C   C4        1.0  0.36219526569446  0.5119451736008429  0.991760954135053  1.0000
  C   C5        1.0  0.6337719479701321  0.5689349802732622  0.10082073411073367  1.0000
  C   C6        1.0  0.366212308276765  0.43106017490430276  0.8991731653943235  1.0000
  C   C7        1.0  0.5032643201865881  0.41882746032028706  0.9072431919110855  1.0000
  C   C8        1.0  0.4967103916462037  0.5811537248613944  0.09273712822648152  1.0000
  C   C9        1.0  0.07327940798231242  0.8429090457099733  0.3440065447286713  1.0000
  C   C10       1.0  0.9267363724001426  0.1571037163684679  0.6559999013132298  1.0000
  C   C11       1.0  0.0340909491737448  0.922528146213551  0.42451274558782603  1.0000
  C   C12       1.0  0.9659146844020868  0.07749027050446237  0.5754973587291872  1.0000
  C   C13       1.0  0.9023941646394821  0.9489033327743073  0.3841368414786075  1.0000
  C   C14       1.0  0.09761087693378559  0.0511070859991278  0.6158712840268167  1.0000
  C   C15       1.0  0.13120359286981642  0.9738387658134325  0.5409454580946119  1.0000
  C   C16       1.0  0.8688079921403329  0.026176713012254993  0.45906808878191196  1.0000
  C   C17       1.0  0.32752986420198477  0.6019715587977358  0.3379896588692759  1.0000
  C   C18       1.0  0.6724667803472572  0.39802979832616353  0.6620104963065573  1.0000
  C   C19       1.0  0.41703997093125617  0.5490301560588262  0.4210289510253133  1.0000
  C   C20       1.0  0.5829541695488699  0.4509750527064469  0.5789749804776108  1.0000
  C   C21       1.0  0.3368233610514437  0.4430916849246387  0.4589760988333893  1.0000
  C   C22       1.0  0.6631654607944526  0.5569092719260453  0.5410313980498601  1.0000
  C   C23       1.0  0.5810032897423056  0.6059928499796996  0.46281626484429955  1.0000
  C   C24       1.0  0.4189953224217149  0.39401949607559317  0.5371881655888303  1.0000
  C   C25       1.0  0.011590511235006335  0.7319202865036941  0.9280006120094911  1.0000
  C   C26       1.0  0.9884106417800282  0.2680834034252584  0.07199162549202504  1.0000
  C   C27       1.0  0.9751472541003922  0.7913388988754801  0.8397053876558475  1.0000
  C   C28       1.0  0.024864433629858237  0.208666991402545  0.16029055655794622  1.0000
  C   C29       1.0  0.04727600052641647  0.9300264981585472  0.8625164697934978  1.0000
  C   C30       1.0  0.952738324400599  0.06997838675898997  0.1374823410129055  1.0000
  C   C31       1.0  0.15970121005977939  0.00868625013342239  0.9732913711735023  1.0000
  C   C32       1.0  0.8403126077360312  0.9913176037513831  0.026707956573815694  1.0000
  C   C33       1.0  0.24137380977301598  0.15274113249203217  0.00356761476734852  1.0000
  C   C34       1.0  0.7586398330850982  0.8472625988591104  0.9964363297020782  1.0000
  C   C35       1.0  0.35114694250410844  0.224948922614594  0.11099479188020923  1.0000
  C   C36       1.0  0.6488651789603851  0.7750517156383409  0.8890107034119269  1.0000
  C   C37       1.0  0.3885892496616564  0.1585280691420436  0.19613137476427775  1.0000
  C   C38       1.0  0.6114216369439092  0.8414675994977047  0.8038708198510137  1.0000
  C   C39       1.0  0.504122528671985  0.22805874833528608  0.3074372184863066  1.0000
  C   C40       1.0  0.49588967280257634  0.7719308840639556  0.692566850405811  1.0000
  C   C41       1.0  0.5376313840706644  0.1558720630196362  0.3833234636786145  1.0000
  C   C42       1.0  0.462372391223582  0.8441084873077997  0.6166734043375968  1.0000
  C   C43       1.0  0.4530471901595305  0.014383308881186  0.34817521957509007  1.0000
  C   C44       1.0  0.5469533875223077  0.9855992556671892  0.6518179946594885  1.0000
  C   C45       1.0  0.30813581314075833  0.0155823309548211  0.1689392281806334  1.0000
  C   C46       1.0  0.6918663657779334  0.9844082128658443  0.8310577740210122  1.0000
  C   C47       1.0  0.19031568383879027  0.9398750886853052  0.0565139019622053  1.0000
  C   C48       1.0  0.8096908792949404  0.060122531158569366  0.9434859075307004  1.0000
  N   N1        1.0  0.11397794291873721  0.8034248071102467  0.033898246916571416  1.0000
  N   N2        1.0  0.8860186800998447  0.19657170468413196  0.9660950305621087  1.0000
  N   N3        1.0  0.3403096710003837  0.9457827548348019  0.24494901417018164  1.0000
  N   N4        1.0  0.6596893635903243  0.05420776331361309  0.7550456383797554  1.0000
  O   O1        1.0  0.9095426013517451  0.550271957300687  0.10417395323901249  1.0000
  O   O2        1.0  0.09044158251069938  0.4497293788233135  0.8958137255152252  1.0000
  O   O3        1.0  0.7828006167964219  0.4032284317312644  0.9289946487877786  1.0000
  O   O4        1.0  0.21718596858188738  0.5967627492712636  0.07100009111230324  1.0000
  O   O5        1.0  0.012695367179446821  0.8279650743660767  0.23675163064294222  1.0000
  O   O6        1.0  0.987289562498212  0.17202359528087635  0.7632610711200131  1.0000
  O   O7        1.0  0.1688059243392459  0.7921940470767409  0.38263680516762116  1.0000
  O   O8        1.0  0.8312321853063764  0.20785438102956993  0.617372904979007  1.0000
  O   O9        1.0  0.17937442314588745  0.5339342216294369  0.2854090139861328  1.0000
  O   O10       1.0  0.8206129989596533  0.46606580454991325  0.7145941128678005  1.0000
  O   O11       1.0  0.39944108536845857  0.7150177151590783  0.3215987442414487  1.0000
  O   O12       1.0  0.6005510709943565  0.28497374008302506  0.678391191269725  1.0000
