data_image0
_chemical_formula_structural       Sn4H32C24S8N8
_chemical_formula_sum              "Sn4 H32 C24 S8 N8"
_cell_length_a       13.16912874206497
_cell_length_b       13.169221122138117
_cell_length_c       12.601745606878925
_cell_angle_alpha    118.2484712584271
_cell_angle_beta     118.24978483015134
_cell_angle_gamma    95.34302715359567

_space_group_name_H-M_alt    "P 1"
_space_group_IT_number       1

loop_
  _space_group_symop_operation_xyz
  'x, y, z'

loop_
  _atom_site_type_symbol
  _atom_site_label
  _atom_site_symmetry_multiplicity
  _atom_site_fract_x
  _atom_site_fract_y
  _atom_site_fract_z
  _atom_site_occupancy
  Sn  Sn1       1.0  0.6064357054479429  0.1700570809628275  0.7001862239051277  1.0000
  Sn  Sn2       1.0  0.8299517715975498  0.3935565292901727  0.2998058177407685  1.0000
  Sn  Sn3       1.0  0.15601828694342154  0.21967435991977882  0.7995999464539523  1.0000
  Sn  Sn4       1.0  0.7803273348159651  0.843989174271158  0.2004114697625355  1.0000
  H   H1        1.0  0.8551161255050842  0.07852375450594448  0.7001569476178344  1.0000
  H   H2        1.0  0.9214873312841121  0.14487536432798714  0.2998487569312757  1.0000
  H   H3        1.0  0.40489920771966587  0.12832647904329517  0.7999050486820921  1.0000
  H   H4        1.0  0.871670918959552  0.595102819413178  0.20005678503155622  1.0000
  H   H5        1.0  0.08196636791733168  0.4672928718343526  0.9608602289981646  1.0000
  H   H6        1.0  0.5327055634873902  0.9180433414772793  0.03914111288618469  1.0000
  H   H7        1.0  0.3709278609835777  0.25607371436934306  0.5385431818768395  1.0000
  H   H8        1.0  0.7439580230993315  0.6290687727022402  0.4614606812180853  1.0000
  H   H9        1.0  0.5493232536019049  0.19758985435652923  0.48325208485061927  1.0000
  H   H10       1.0  0.8024167866535805  0.4506871122512949  0.5167472961884982  1.0000
  H   H11       1.0  0.315662820819938  0.4638648269905232  0.016185264309648183  1.0000
  H   H12       1.0  0.5361272338464788  0.6843282816350608  0.9837893708259458  1.0000
  H   H13       1.0  0.43184040851816974  0.0526354977202885  0.4045127102958048  1.0000
  H   H14       1.0  0.9473768918528975  0.5681657796321034  0.5954805233487406  1.0000
  H   H15       1.0  0.27706232906552236  0.3977777676520944  0.0952992971221605  1.0000
  H   H16       1.0  0.6022356505441948  0.7229390799845276  0.9047022549583943  1.0000
  H   H17       1.0  0.5831217936719001  0.06018224110986381  0.4418339394513709  1.0000
  H   H18       1.0  0.9398269342387876  0.41688601092970134  0.5581695409394456  1.0000
  H   H19       1.0  0.39079118485305747  0.367770085109278  0.05753481431230509  1.0000
  H   H20       1.0  0.6322456876799338  0.6092130359494307  0.942479333118982  1.0000
  H   H21       1.0  0.638139352538424  0.1335945715052134  0.9050683893164263  1.0000
  H   H22       1.0  0.8664019462552233  0.3618553569496612  0.09492691213530693  1.0000
  H   H23       1.0  0.9831738850453603  0.9784986620669753  0.5949411355410417  1.0000
  H   H24       1.0  0.021502676153382097  0.016807658656205093  0.4050635293522403  1.0000
  H   H25       1.0  0.6935399757285835  0.0375382062348493  0.8058632374009846  1.0000
  H   H26       1.0  0.9624652858169044  0.3064582727393769  0.19413132312018178  1.0000
  H   H27       1.0  0.13767667585249657  0.9817171954617618  0.6944209374852618  1.0000
  H   H28       1.0  0.018277834960216125  0.8623069162101445  0.3055882909109116  1.0000
  H   H29       1.0  0.5276860363825265  0.9878403798049572  0.7227615158674823  1.0000
  H   H30       1.0  0.012154989083647618  0.47230694561853415  0.2772274875611771  1.0000
  H   H31       1.0  0.0546974123402961  0.015094661301766591  0.7773488527515012  1.0000
  H   H32       1.0  0.9849076595806352  0.9452934957327699  0.22267051248302047  1.0000
  C   C1        1.0  0.836358844737177  0.46014182290625866  0.9243114971487287  1.0000
  C   C2        1.0  0.5398565237186616  0.1636421189092943  0.07568149656097499  1.0000
  C   C3        1.0  0.1618780183174877  0.28544726089552336  0.5751085021754533  1.0000
  C   C4        1.0  0.7145651545941547  0.8381064661481402  0.4248997938970192  1.0000
  C   C5        1.0  0.8844032993314102  0.36704323785495047  0.8743351452395487  1.0000
  C   C6        1.0  0.6329439711503326  0.1155996708937153  0.12565582357336075  1.0000
  C   C7        1.0  0.259806190042454  0.24226325373636115  0.6250662803371654  1.0000
  C   C8        1.0  0.7577363876909046  0.7401951899318958  0.37495409886624725  1.0000
  C   C9        1.0  0.8859632487493269  0.18044443517657527  0.7649014095281145  1.0000
  C   C10       1.0  0.8195550763961849  0.11403146559587189  0.2351076471660748  1.0000
  C   C11       1.0  0.3709897478908176  0.1654343710982147  0.7349965656880286  1.0000
  C   C12       1.0  0.8345569115359838  0.6289894171445027  0.26499242253279937  1.0000
  C   C13       1.0  0.0014309077992891608  0.381220369680868  0.8992156502112678  1.0000
  C   C14       1.0  0.6187751111222327  0.998577672744851  0.10078225992760556  1.0000
  C   C15       1.0  0.3519861126133321  0.23163474178799248  0.6002152550289281  1.0000
  C   C16       1.0  0.7683889085687312  0.6480033915640177  0.3997823867823269  1.0000
  C   C17       1.0  0.5331522514112095  0.11224959677100087  0.4792760633673723  1.0000
  C   C18       1.0  0.8877564632276247  0.4668451710010473  0.5207161402675312  1.0000
  C   C19       1.0  0.3034940131960795  0.38254496420718453  0.020293961361268504  1.0000
  C   C20       1.0  0.6174520390763831  0.6965083655112991  0.9797056026899825  1.0000
  C   C21       1.0  0.6175779119109632  0.06942909587144189  0.7951131373021879  1.0000
  C   C22       1.0  0.9305705955856425  0.3824138640737544  0.20487715096723505  1.0000
  C   C23       1.0  0.07239623544569439  0.024269900177714  0.704984022038225  1.0000
  C   C24       1.0  0.9757321945080835  0.9276046223152289  0.29503358833110144  1.0000
  S   S1        1.0  0.6850116224787968  0.4048991692439188  0.8756554459783245  1.0000
  S   S2        1.0  0.5950966128441452  0.3149885084254365  0.12433897424474351  1.0000
  S   S3        1.0  0.0591646295381736  0.2789376329036912  0.6239004180952321  1.0000
  S   S4        1.0  0.7210588839947079  0.940818518361091  0.3761124119363402  1.0000
  S   S5        1.0  0.9209032391445647  0.6144746001578555  0.027510069230530423  1.0000
  S   S6        1.0  0.38552439057127685  0.0791076472648626  0.972490311070473  1.0000
  S   S7        1.0  0.14330350848381815  0.33676673264462653  0.47193973547659607  1.0000
  S   S8        1.0  0.6632651511165477  0.8566844784432914  0.528083300657478  1.0000
  N   N1        1.0  0.8132820860298294  0.2384089042359179  0.7887990855786668  1.0000
  N   N2        1.0  0.7615837986796734  0.1867168875892631  0.21119792899370557  1.0000
  N   N3        1.0  0.274277126966183  0.1993024712797578  0.710887949067157  1.0000
  N   N4        1.0  0.8006817887490599  0.7257215424535559  0.28911267713446176  1.0000
  N   N5        1.0  0.0014742063028095182  0.2639738608670044  0.8306557565348883  1.0000
  N   N6        1.0  0.7360148382317108  0.9985309497756986  0.16934256831303446  1.0000
  N   N7        1.0  0.42075385219784783  0.18316306041393193  0.669132130167263  1.0000
  N   N8        1.0  0.8168458824967217  0.5792565514969964  0.330867981828554  1.0000
