data_image0
_chemical_formula_structural       Sr2Ag2H8C12N6O16
_chemical_formula_sum              "Sr2 Ag2 H8 C12 N6 O16"
_cell_length_a       6.933233014114124
_cell_length_b       7.214963934188784
_cell_length_c       11.211499161451533
_cell_angle_alpha    79.25096358639853
_cell_angle_beta     89.23639267605435
_cell_angle_gamma    74.75425602855472

_space_group_name_H-M_alt    "P 1"
_space_group_IT_number       1

loop_
  _space_group_symop_operation_xyz
  'x, y, z'

loop_
  _atom_site_type_symbol
  _atom_site_label
  _atom_site_symmetry_multiplicity
  _atom_site_fract_x
  _atom_site_fract_y
  _atom_site_fract_z
  _atom_site_occupancy
  Sr  Sr1       1.0  0.7033379432672859  0.1565722489035295  0.06465998187772469  1.0000
  Sr  Sr2       1.0  0.2966652976699464  0.8434225534892263  0.9353413675288422  1.0000
  Ag  Ag1       1.0  0.24858822049763782  0.709300970704518  0.3749983749445179  1.0000
  Ag  Ag2       1.0  0.7514149038675556  0.29069966347773146  0.6249995874190473  1.0000
  H   H1        1.0  0.18529051521963424  0.34003490900956  0.5601706950155645  1.0000
  H   H2        1.0  0.8147211504354388  0.6599554799820593  0.43982847014301996  1.0000
  H   H3        1.0  0.2054486497664386  0.9900218187931882  0.5596521263193566  1.0000
  H   H4        1.0  0.7945418943378613  0.00997735325668  0.4403451928293904  1.0000
  H   H5        1.0  0.9686393923523159  0.7662788281936839  0.18939179385103697  1.0000
  H   H6        1.0  0.03135585161059143  0.23371889804053572  0.8106083513922185  1.0000
  H   H7        1.0  0.7584289698360465  0.7305575093655605  0.207674072226844  1.0000
  H   H8        1.0  0.24156611762583677  0.26944608171218926  0.7923271419554679  1.0000
  C   C1        1.0  0.24381371837480975  0.06886679884316038  0.1495324504011961  1.0000
  C   C2        1.0  0.7561904209187561  0.9311353240548922  0.8504688924173107  1.0000
  C   C3        1.0  0.26030433904141864  0.47501592463705566  0.15168035032927207  1.0000
  C   C4        1.0  0.7397032698404831  0.5249788421700429  0.8483165192261594  1.0000
  C   C5        1.0  0.225744082985024  0.3431468076931026  0.2675161850279366  1.0000
  C   C6        1.0  0.7742586375940451  0.6568552962163992  0.7324824921576932  1.0000
  C   C7        1.0  0.22973800690611057  0.14719670763730613  0.2664996879767613  1.0000
  C   C8        1.0  0.7702560496558138  0.8528054079462561  0.7334999281434378  1.0000
  C   C9        1.0  0.19522955877027925  0.28687143484452093  0.47504375992657794  1.0000
  C   C10       1.0  0.8047762036535958  0.7131248025337055  0.5249538324072702  1.0000
  C   C11       1.0  0.20498249779041097  0.09207543329164027  0.4746882047618755  1.0000
  C   C12       1.0  0.7950193004749266  0.9079193699449916  0.5253131526010506  1.0000
  N   N1        1.0  0.20668400233126505  0.4122381587729292  0.3717546804949449  1.0000
  N   N2        1.0  0.7933304001523639  0.5877580867636565  0.6282446464935703  1.0000
  N   N3        1.0  0.22175850138727068  0.02146007849516  0.3707091395359186  1.0000
  N   N4        1.0  0.7782402789906584  0.9785405714403337  0.629290629089553  1.0000
  N   N5        1.0  0.6826226652088819  0.3914337102704336  0.29080773132775317  1.0000
  N   N6        1.0  0.3173734212097728  0.6085713827447349  0.7091986457023224  1.0000
  O   O1        1.0  0.1989339656728006  0.6591603577807847  0.14476633190685814  1.0000
  O   O2        1.0  0.801069726965352  0.34083293521987196  0.8552289554991716  1.0000
  O   O3        1.0  0.35506068809164054  0.39250680305789826  0.07120099023011763  1.0000
  O   O4        1.0  0.644951759347741  0.6074967382285051  0.9287947812974053  1.0000
  O   O5        1.0  0.4142991893217954  0.9709840152578264  0.1242212033310679  1.0000
  O   O6        1.0  0.5856915461670128  0.0290195981839716  0.8757827083095576  1.0000
  O   O7        1.0  0.0826837472411412  0.09968162994879748  0.0889955505240749  1.0000
  O   O8        1.0  0.9173051976902402  0.9003234077884766  0.9110028455200874  1.0000
  O   O9        1.0  0.6712808767912081  0.21714472972277576  0.2937496375277533  1.0000
  O   O10       1.0  0.3287156213993755  0.7828588869543296  0.7062551334838502  1.0000
  O   O11       1.0  0.7332078218411767  0.48432835434101645  0.19350681342647388  1.0000
  O   O12       1.0  0.26679401929344954  0.5156767485202706  0.8065013141709798  1.0000
  O   O13       1.0  0.6409684137559993  0.46960443568194404  0.38348738818626055  1.0000
  O   O14       1.0  0.35901901663130087  0.5304006623964809  0.6165190365819697  1.0000
  O   O15       1.0  0.831201563852787  0.829856995291507  0.21160384950434258  1.0000
  O   O16       1.0  0.1687968207248076  0.17014511776043403  0.788395742746779  1.0000
