data_image0
_chemical_formula_structural       Ca2H18C20N6O12
_chemical_formula_sum              "Ca2 H18 C20 N6 O12"
_cell_length_a       6.790569814604358
_cell_length_b       7.67196778599557
_cell_length_c       12.863071256175353
_cell_angle_alpha    70.73621053028403
_cell_angle_beta     73.56165119801939
_cell_angle_gamma    74.11303428040405

_space_group_name_H-M_alt    "P 1"
_space_group_IT_number       1

loop_
  _space_group_symop_operation_xyz
  'x, y, z'

loop_
  _atom_site_type_symbol
  _atom_site_label
  _atom_site_symmetry_multiplicity
  _atom_site_fract_x
  _atom_site_fract_y
  _atom_site_fract_z
  _atom_site_occupancy
  Ca  Ca1       1.0  0.2437447988743741  0.3906226655428639  0.563682445816049  1.0000
  Ca  Ca2       1.0  0.7562536814068606  0.6093788827567652  0.4363174254649421  1.0000
  H   H1        1.0  0.443264156027851  0.0758755773619768  0.7677093470226026  1.0000
  H   H2        1.0  0.5567352037985102  0.9241217431247365  0.2322904492548119  1.0000
  H   H3        1.0  0.7574035887260775  0.5910935085241605  0.050693960009113  1.0000
  H   H4        1.0  0.24259858419210173  0.40890517283636285  0.9493043896026094  1.0000
  H   H5        1.0  0.21967188313008987  0.9471248005094564  0.9176955835936128  1.0000
  H   H6        1.0  0.7803304989895847  0.052872477616638526  0.08230612093039723  1.0000
  H   H7        1.0  0.9967234278766383  0.7595436863059035  0.07832928811259886  1.0000
  H   H8        1.0  0.003278361419603501  0.240456410826475  0.921672726407138  1.0000
  H   H9        1.0  0.5100120734870115  0.42320605706161263  0.20953234235200577  1.0000
  H   H10       1.0  0.4899937726880733  0.5767897587528735  0.7904652655704822  1.0000
  H   H11       1.0  0.11060401205723018  0.6656656978370419  0.7016867728660401  1.0000
  H   H12       1.0  0.8893960084407336  0.3343358271926959  0.2983128825682044  1.0000
  H   H13       1.0  0.935817686832628  0.5288106336678735  0.7501543440478287  1.0000
  H   H14       1.0  0.06418233366533599  0.47119089136186443  0.24984531138641589  1.0000
  H   H15       1.0  0.20837966411288983  0.2647868575734904  0.38322012110538856  1.0000
  H   H16       1.0  0.7916167025082285  0.7352175316092586  0.6167794960380563  1.0000
  H   H17       1.0  0.4594051719980569  0.20075356232401023  0.3737220366045123  1.0000
  H   H18       1.0  0.5405917486863884  0.7992480106385429  0.6262788305032673  1.0000
  C   C1        1.0  0.5103442262123322  0.7833387198071406  0.9692231220103409  1.0000
  C   C2        1.0  0.4896569605524517  0.21665716860307063  0.03077669341247713  1.0000
  C   C3        1.0  0.9325341997968262  0.9738804697121352  0.7654737758912091  1.0000
  C   C4        1.0  0.06746120005094265  0.026121125127247104  0.2345265270832897  1.0000
  C   C5        1.0  0.6518673351272781  0.8818493768971152  0.8740493613495558  1.0000
  C   C6        1.0  0.34813175735743573  0.11814935100316859  0.12594941995567407  1.0000
  C   C7        1.0  0.16223779220774753  0.9677287083490284  0.7227494964505965  1.0000
  C   C8        1.0  0.8377625150119099  0.0322714078740916  0.27725039397579115  1.0000
  C   C9        1.0  0.5893715749621646  0.6345157245623197  0.05481771048850701  1.0000
  C   C10       1.0  0.4106324248944446  0.36548152472170864  0.9451806582686119  1.0000
  C   C11       1.0  0.29210550160394877  0.8313382361741969  0.9796354469752586  1.0000
  C   C12       1.0  0.707895665780782  0.16865765362906868  0.020365148427593707  1.0000
  C   C13       1.0  0.1660903830963534  0.7271635210647247  0.07028292368489988  1.0000
  C   C14       1.0  0.8339099047432581  0.2728365965514429  0.9297177467215222  1.0000
  C   C15       1.0  0.4506538865595287  0.5399433349885925  0.14312569766030955  1.0000
  C   C16       1.0  0.5493500939170346  0.4600539156884835  0.8568734510768437  1.0000
  C   C17       1.0  0.7516965005472114  0.26668214531779466  0.6246906145958634  1.0000
  C   C18       1.0  0.24830013341554036  0.7333208364513765  0.375310017519766  1.0000
  C   C19       1.0  0.7640899192634546  0.09714283772874668  0.7202927096559862  1.0000
  C   C20       1.0  0.235905232622727  0.9028601631311658  0.2797057983662939  1.0000
  N   N1        1.0  0.5890399865580846  0.03278032229663101  0.7899157325643388  1.0000
  N   N2        1.0  0.4109588192049427  0.9672198144102779  0.2100828137487412  1.0000
  N   N3        1.0  0.8617231909022036  0.841468783225686  0.8599424094059742  1.0000
  N   N4        1.0  0.13827711631745385  0.15853133299743402  0.1400574810204205  1.0000
  N   N5        1.0  0.24187896095103395  0.5829584688429608  0.15105023888332877  1.0000
  N   N6        1.0  0.7581262148804125  0.4170401715499991  0.8489507989550233  1.0000
  O   O1        1.0  0.27409548666575023  0.8164547838935619  0.7023749429446936  1.0000
  O   O2        1.0  0.7259019687019759  0.18354397424184296  0.29762795410745474  1.0000
  O   O3        1.0  0.23074664554669502  0.1131477057858206  0.7134433643947915  1.0000
  O   O4        1.0  0.7692536616729623  0.8868524104372996  0.28655652603160325  1.0000
  O   O5        1.0  0.916602025132377  0.3325933973036966  0.5726812888821656  1.0000
  O   O6        1.0  0.08339333595529294  0.6674082003217806  0.42732057405240204  1.0000
  O   O7        1.0  0.5756675797037472  0.3481990655609549  0.5964766175198051  1.0000
  O   O8        1.0  0.42433088119743445  0.6518024841317142  0.40352403374122053  1.0000
  O   O9        1.0  0.03949855606053628  0.5883854366329473  0.6811435993988653  1.0000
  O   O10       1.0  0.9605011777157413  0.4116174972034159  0.3188558210432221  1.0000
  O   O11       1.0  0.3217275084361189  0.22854248913704822  0.42466925540892936  1.0000
  O   O12       1.0  0.67826789141165  0.7714591057023339  0.5753310475655695  1.0000
