data_image0
_chemical_formula_structural       Rb2H10C12N16O18
_chemical_formula_sum              "Rb2 H10 C12 N16 O18"
_cell_length_a       7.254982957116168
_cell_length_b       7.238144203556995
_cell_length_c       13.115810063501044
_cell_angle_alpha    95.8533644549435
_cell_angle_beta     97.90637121448145
_cell_angle_gamma    94.60658611635175

_space_group_name_H-M_alt    "P 1"
_space_group_IT_number       1

loop_
  _space_group_symop_operation_xyz
  'x, y, z'

loop_
  _atom_site_type_symbol
  _atom_site_label
  _atom_site_symmetry_multiplicity
  _atom_site_fract_x
  _atom_site_fract_y
  _atom_site_fract_z
  _atom_site_occupancy
  Rb  Rb1       1.0  0.7058347879020346  0.8634801272175423  0.9314483705829205  1.0000
  Rb  Rb2       1.0  0.29416884920904357  0.13652024785579903  0.06855026006660131  1.0000
  H   H1        1.0  0.7034509111373524  0.29708134160369337  0.023397134871508685  1.0000
  H   H2        1.0  0.296545304022345  0.7029133237714971  0.9766028780513238  1.0000
  H   H3        1.0  0.7975436675195056  0.2554090918968797  0.13141730417702752  1.0000
  H   H4        1.0  0.2024571693763875  0.7445912297454029  0.8685818590827168  1.0000
  H   H5        1.0  0.25996215648162047  0.5015831053162857  0.5150392047436656  1.0000
  H   H6        1.0  0.7400474441089457  0.498424439309055  0.48496867767448043  1.0000
  H   H7        1.0  0.21445074858929303  0.7895607432378355  0.3649021814938679  1.0000
  H   H8        1.0  0.7855444080568289  0.2104380630794793  0.6350964407080967  1.0000
  H   H9        1.0  0.2676960967818331  0.2197988266798632  0.6248156922772453  1.0000
  H   H10       1.0  0.732304624246723  0.7802001068751848  0.3751841503021539  1.0000
  C   C1        1.0  0.04561066541059231  0.36496177821916137  0.33240685905371953  1.0000
  C   C2        1.0  0.9543869798966255  0.6350328968918786  0.6675909828990926  1.0000
  C   C3        1.0  0.03723174794974683  0.5846052507062612  0.24126265234883704  1.0000
  C   C4        1.0  0.9627635365796793  0.4153949369064236  0.7587345286675031  1.0000
  C   C5        1.0  0.14615176319662032  0.6512921590411127  0.3373758121819038  1.0000
  C   C6        1.0  0.8538447875491003  0.3487066773876749  0.662622924647927  1.0000
  C   C7        1.0  0.4449628547853877  0.6477747649017616  0.6514249687458789  1.0000
  C   C8        1.0  0.5550404106917313  0.352221459493613  0.3485772235945391  1.0000
  C   C9        1.0  0.3412405228274126  0.356548059209736  0.6508276741312784  1.0000
  C   C10       1.0  0.6587626748462724  0.6434467499309092  0.3491721500649376  1.0000
  C   C11       1.0  0.45656377222151434  0.4283573680692641  0.7431984934436786  1.0000
  C   C12       1.0  0.5434422496993039  0.5716374809186959  0.2567992744103833  1.0000
  N   N1        1.0  0.9720002513937088  0.40260722464628884  0.23872818934246004  1.0000
  N   N2        1.0  0.02799922745050762  0.5973930465089128  0.7612685736915168  1.0000
  N   N3        1.0  0.1507999270521196  0.5076168223054296  0.3954733978213625  1.0000
  N   N4        1.0  0.8491983413632553  0.49238622208027044  0.604524939409295  1.0000
  N   N5        1.0  0.0175990304028204  0.1826314775019569  0.36590238404083664  1.0000
  N   N6        1.0  0.9824019223604027  0.8173702322275672  0.6340960998992459  1.0000
  N   N7        1.0  0.995956302444135  0.6866469736293156  0.154992541050305  1.0000
  N   N8        1.0  0.004043360070852503  0.313356100867857  0.8450059108082187  1.0000
  N   N9        1.0  0.5210322100866733  0.6090658363207169  0.7426889492582874  1.0000
  N   N10       1.0  0.4789769673748979  0.3909346795741016  0.25731242550060074  1.0000
  N   N11       1.0  0.3355186735156863  0.5010971755846257  0.5927016725726943  1.0000
  N   N12       1.0  0.6644844881100768  0.4988976539316354  0.40730043722141573  1.0000
  N   N13       1.0  0.46707309874232555  0.830696387264652  0.6179543825585797  1.0000
  N   N14       1.0  0.532921122981108  0.16930939729611086  0.3820483470768751  1.0000
  N   N15       1.0  0.5050898985015948  0.3363913145267006  0.8330476657643474  1.0000
  N   N16       1.0  0.4949120089238477  0.6636048593815929  0.16695212635031  1.0000
  O   O1        1.0  0.1137732156767086  0.15409952966582813  0.44787637733392677  1.0000
  O   O2        1.0  0.8862304454663176  0.8459008318237694  0.5521207295836561  1.0000
  O   O3        1.0  0.9001945835257247  0.06624335303992981  0.3110039850972868  1.0000
  O   O4        1.0  0.0998034651709645  0.9337569083794293  0.6889949489067178  1.0000
  O   O5        1.0  0.878105057839136  0.6143156813169952  0.08021731293313651  1.0000
  O   O6        1.0  0.12189332644357619  0.38568875115594653  0.9197803449778661  1.0000
  O   O7        1.0  0.0805464737388846  0.8449328364291874  0.15903121973613574  1.0000
  O   O8        1.0  0.919455849091996  0.15506891699554606  0.840968902563745  1.0000
  O   O9        1.0  0.5772872726914998  0.9500550069620817  0.6747347655140388  1.0000
  O   O10       1.0  0.42271058804200123  0.04994390712127479  0.3252694190054158  1.0000
  O   O11       1.0  0.3710405307392009  0.8543102166457787  0.5353218241286584  1.0000
  O   O12       1.0  0.6289444953152952  0.14570376036876104  0.464684407719389  1.0000
  O   O13       1.0  0.43257010139078744  0.17569019567965685  0.8346310246804906  1.0000
  O   O14       1.0  0.5674317262152471  0.824304569765779  0.16536716115592753  1.0000
  O   O15       1.0  0.6182077343147796  0.425394954802492  0.9054948059140601  1.0000
  O   O16       1.0  0.3817941370627409  0.5746012394814172  0.0945072717984914  1.0000
  O   O17       1.0  0.7096011638441413  0.19903855024737996  0.0696954553074747  1.0000
  O   O18       1.0  0.2903967449532558  0.8009603366684814  0.9303056817481234  1.0000
