data_image0
_chemical_formula_structural       K4H28C24N16O20
_chemical_formula_sum              "K4 H28 C24 N16 O20"
_cell_length_a       4.589957855002363
_cell_length_b       9.873029553002924
_cell_length_c       22.38829672500494
_cell_angle_alpha    90.0000021768583
_cell_angle_beta     89.99992423709388
_cell_angle_gamma    90.00008832749928

_space_group_name_H-M_alt    "P 1"
_space_group_IT_number       1

loop_
  _space_group_symop_operation_xyz
  'x, y, z'

loop_
  _atom_site_type_symbol
  _atom_site_label
  _atom_site_symmetry_multiplicity
  _atom_site_fract_x
  _atom_site_fract_y
  _atom_site_fract_z
  _atom_site_occupancy
  K   K1        1.0  0.09983579596203641  0.7754145445300651  0.9279727757619655  1.0000
  K   K2        1.0  0.40016388000894665  0.2245837078407645  0.4279722104013644  1.0000
  K   K3        1.0  0.9001571952697276  0.2754132759763977  0.5720264249315861  1.0000
  K   K4        1.0  0.599836538718094  0.7245853074746976  0.072027736406973  1.0000
  H   H1        1.0  0.42499459019754243  0.2120465526843134  0.9656138215634584  1.0000
  H   H2        1.0  0.07500484198323681  0.7879527155052699  0.4656133542502729  1.0000
  H   H3        1.0  0.5750069059982652  0.7120461058080565  0.5343867179599613  1.0000
  H   H4        1.0  0.9249936077833711  0.2879524746870247  0.0343870403750728  1.0000
  H   H5        1.0  0.10210958199698443  0.2503477472528317  0.8896281832934178  1.0000
  H   H6        1.0  0.39789252099313194  0.7496515149653858  0.38962762811505053  1.0000
  H   H7        1.0  0.8978920409545881  0.750347538218456  0.6103719102660392  1.0000
  H   H8        1.0  0.6021079806900789  0.24965206110908872  0.1103727658120306  1.0000
  H   H9        1.0  0.6857231024146487  0.2592358025381357  0.7957893447398446  1.0000
  H   H10       1.0  0.8142800756712631  0.7407648242242716  0.2957892586338176  1.0000
  H   H11       1.0  0.3142807286179163  0.7592341689163932  0.7042107489812821  1.0000
  H   H12       1.0  0.1857225752694376  0.24076406586853247  0.20421113513101832  1.0000
  H   H13       1.0  0.42093188347406857  0.05901043566414899  0.7294949205199969  1.0000
  H   H14       1.0  0.0790712566618623  0.9409908396889649  0.22949445489845738  1.0000
  H   H15       1.0  0.5790691062626012  0.5590089974033461  0.770505616214578  1.0000
  H   H16       1.0  0.92092769956723  0.4409896016488729  0.2705059425157472  1.0000
  H   H17       1.0  0.6631748741511673  0.8204617040678598  0.7742571208600849  1.0000
  H   H18       1.0  0.836828443395028  0.17953892100219093  0.2742565717772507  1.0000
  H   H19       1.0  0.3368226234945412  0.3204600430536644  0.7257429739776597  1.0000
  H   H20       1.0  0.1631718262586901  0.6795392062808077  0.2257433742102037  1.0000
  H   H21       1.0  0.8351996369322523  0.5189909811978239  0.8616594562264908  1.0000
  H   H22       1.0  0.6647987571911926  0.4810106636004719  0.3616598524023829  1.0000
  H   H23       1.0  0.16479904170196144  0.0189912155009679  0.6383397397932882  1.0000
  H   H24       1.0  0.33520033147881634  0.9810090398259065  0.1383405457411087  1.0000
  H   H25       1.0  0.07863297546491312  0.5430501919728314  0.8127737494578611  1.0000
  H   H26       1.0  0.42136526795567875  0.4569521027844345  0.3127740759319622  1.0000
  H   H27       1.0  0.9213679614578468  0.043049960562910904  0.6872258936620028  1.0000
  H   H28       1.0  0.5786337410969297  0.9569516705264576  0.1872263217731245  1.0000
  C   C1        1.0  0.09842964915187481  0.14042606518123793  0.8830224993899166  1.0000
  C   C2        1.0  0.40157249662471634  0.8595742093781239  0.3830214985593586  1.0000
  C   C3        1.0  0.9015737886926163  0.640424846448994  0.6169775921661014  1.0000
  C   C4        1.0  0.5984283688365012  0.35957475339853323  0.11697889737088468  1.0000
  C   C5        1.0  0.721479234169543  0.15085368269522093  0.7984148177964557  1.0000
  C   C6        1.0  0.7785239269132519  0.8491469442735137  0.2984142966564463  1.0000
  C   C7        1.0  0.27852423818648486  0.6508530360501937  0.7015848272876467  1.0000
  C   C8        1.0  0.22147908270855515  0.3491462113886997  0.20158565242153506  1.0000
  C   C9        1.0  0.9076397533449385  0.0883308956011319  0.8379640267221901  1.0000
  C   C10       1.0  0.592363151587442  0.9116697344759996  0.3379635569779679  1.0000
  C   C11       1.0  0.0923656907656039  0.5883290993027757  0.6620356172222372  1.0000
  C   C12       1.0  0.4076378862798507  0.41167014502771343  0.1620363932396955  1.0000
  C   C13       1.0  0.6185057917921314  0.022306483930528004  0.9857385939852463  1.0000
  C   C14       1.0  0.8814939773724219  0.9776931448999097  0.485737600727397  1.0000
  C   C15       1.0  0.38149725514863764  0.5223058965091737  0.5142614954182392  1.0000
  C   C16       1.0  0.1185072789906059  0.4776923233465881  0.0142623506934143  1.0000
  C   C17       1.0  0.5854801023616504  0.0463679734305558  0.7640866319694624  1.0000
  C   C18       1.0  0.9145232810562618  0.9536326508401416  0.26408607601888423  1.0000
  C   C19       1.0  0.41452084553587554  0.5463664142858633  0.7359139045347263  1.0000
  C   C20       1.0  0.08547571701343061  0.453632835848758  0.23591387496377078  1.0000
  C   C21       1.0  0.6972624743124031  0.9264352676347086  0.7848028055767883  1.0000
  C   C22       1.0  0.8027429536029447  0.07356637112530251  0.28480226376481  1.0000
  C   C23       1.0  0.3027419100497397  0.42643358131520154  0.7151972911912735  1.0000
  C   C24       1.0  0.19725696534396062  0.5735666800523376  0.2151981269534033  1.0000
  N   N1        1.0  0.43376795304447313  0.10963726005362424  0.9559587749978463  1.0000
  N   N2        1.0  0.06622936300034613  0.890362007376332  0.4559583119197157  1.0000
  N   N3        1.0  0.566231025568925  0.6096368076350275  0.5440417626596243  1.0000
  N   N4        1.0  0.9337694256777526  0.39036076075856835  0.0440420845718634  1.0000
  N   N5        1.0  0.256524544289654  0.0569309816186205  0.9139752562573165  1.0000
  N   N6        1.0  0.24347304367198322  0.9430682825116178  0.41397474629059167  1.0000
  N   N7        1.0  0.7434764385668944  0.5569296469218799  0.5860248337774294  1.0000
  N   N8        1.0  0.7565259194367827  0.44306893763251753  0.0860252044995491  1.0000
  N   N9        1.0  0.7827109626386743  0.09602653167544162  0.0267871049594959  1.0000
  N   N10       1.0  0.7172852430305883  0.9039730610810675  0.5267863009696896  1.0000
  N   N11       1.0  0.21729120930547913  0.5960258624077569  0.4732132861677201  1.0000
  N   N12       1.0  0.28271470965837153  0.4039723935211653  0.9732137953896326  1.0000
  N   N13       1.0  0.9777212522084542  0.0301137039632167  0.0596837297576798  1.0000
  N   N14       1.0  0.5222725617311426  0.9698858913780128  0.5596820862909553  1.0000
  N   N15       1.0  0.022278522932957404  0.5301128920686793  0.44031710683061215  1.0000
  N   N16       1.0  0.47772325175618147  0.46988738699383953  0.9403175646081863  1.0000
  O   O1        1.0  0.6174680518332566  0.8985998187830333  0.9748480907417445  1.0000
  O   O2        1.0  0.8825296091957002  0.1013998091906956  0.47484752789657136  1.0000
  O   O3        1.0  0.38253406174401766  0.39859817482730625  0.5251511121954735  1.0000
  O   O4        1.0  0.11747040186591565  0.6014000458843326  0.0251519700049911  1.0000
  O   O5        1.0  0.8939940215693412  0.9497321405520649  0.8296279846673045  1.0000
  O   O6        1.0  0.6060067586828525  0.05026848886913631  0.3296279422034658  1.0000
  O   O7        1.0  0.10600826122507812  0.44973132229248597  0.6703716658636623  1.0000
  O   O8        1.0  0.3939930831623074  0.5502689355527366  0.170372448090184  1.0000
  O   O9        1.0  0.9462662038127192  0.5898547805561876  0.8399378251814724  1.0000
  O   O10       1.0  0.553734509668523  0.41014787539598535  0.3399378033875209  1.0000
  O   O11       1.0  0.053732709333346014  0.08985392394749431  0.6600622654535542  1.0000
  O   O12       1.0  0.44626434449153163  0.910147345946186  0.1600621468026944  1.0000
  O   O13       1.0  0.09815978314091472  0.1006115075121485  0.1006775884549072  1.0000
  O   O14       1.0  0.40182894062873237  0.899388744850647  0.6006762878987288  1.0000
  O   O15       1.0  0.9018315106301318  0.6006123368817882  0.3993236960812183  1.0000
  O   O16       1.0  0.5981622822197538  0.39938931087510815  0.8993220217304838  1.0000
  O   O17       1.0  0.05071421657901001  0.9080515916632593  0.0524693792660145  1.0000
  O   O18       1.0  0.44928135542750874  0.0919466311922648  0.5524680511857412  1.0000
  O   O19       1.0  0.949288987982655  0.4080514007625098  0.4475305708854052  1.0000
  O   O20       1.0  0.5507197433143959  0.5919472122078203  0.947531592825186  1.0000
