data_image0
_chemical_formula_structural       Hg4H56C56N16Cl8O4
_chemical_formula_sum              "Hg4 H56 C56 N16 Cl8 O4"
_cell_length_a       8.00544028
_cell_length_b       13.66578537057752
_cell_length_c       14.611
_cell_angle_alpha    90.0
_cell_angle_beta     90.0
_cell_angle_gamma    93.77027956439427

_space_group_name_H-M_alt    "P 1"
_space_group_IT_number       1

loop_
  _space_group_symop_operation_xyz
  'x, y, z'

loop_
  _atom_site_type_symbol
  _atom_site_label
  _atom_site_symmetry_multiplicity
  _atom_site_fract_x
  _atom_site_fract_y
  _atom_site_fract_z
  _atom_site_occupancy
  Hg  Hg1       1.0  0.7144431792551984  0.2619621103231466  0.469028129491477  1.0000
  Hg  Hg2       1.0  0.7855589565169225  0.2380397717982419  0.9690288139073291  1.0000
  Hg  Hg3       1.0  0.2855532557498179  0.7380379872112925  0.5309670795975663  1.0000
  Hg  Hg4       1.0  0.2144408822837747  0.7619683924945377  0.030968448429263207  1.0000
  H   H1        1.0  0.5969361388059297  0.0417161407372362  0.9150749435356931  1.0000
  H   H2        1.0  0.9030804105487604  0.458280607992485  0.41507699678324883  1.0000
  H   H3        1.0  0.4030679701228265  0.9582744233555331  0.08492094996920233  1.0000
  H   H4        1.0  0.0969463477249946  0.5417114227836208  0.5849236876326033  1.0000
  H   H5        1.0  0.732908853264739  0.8849629902297451  0.9301779481212762  1.0000
  H   H6        1.0  0.7670994164221199  0.6150360560594166  0.4301854766956411  1.0000
  H   H7        1.0  0.2670896684528826  0.1150334405963562  0.06981999863116783  1.0000
  H   H8        1.0  0.23292126073434358  0.38495744140001875  0.569822736294576  1.0000
  H   H9        1.0  0.8461340129588493  0.804669411090785  0.7913585654643782  1.0000
  H   H10       1.0  0.6538541880017803  0.6953289018567048  0.2913613031277792  1.0000
  H   H11       1.0  0.1538612552133287  0.1953314197853189  0.2086407501197698  1.0000
  H   H12       1.0  0.3461557407060383  0.3046689956527331  0.7086489631099866  1.0000
  H   H13       1.0  0.8236106867010732  0.8797305974344525  0.6418575046198072  1.0000
  H   H14       1.0  0.676381687684767  0.6202603820963688  0.14186434877832005  1.0000
  H   H15       1.0  0.17639633211721423  0.1202636333666476  0.3581322291424271  1.0000
  H   H16       1.0  0.3236225714942194  0.3797426488047435  0.8581527616179586  1.0000
  H   H17       1.0  0.7261477774716241  0.8423023054251928  0.4172958729724173  1.0000
  H   H18       1.0  0.7738442532582965  0.6576967408639689  0.9172986106358254  1.0000
  H   H19       1.0  0.273837332860893  0.1576970587675817  0.582697967284922  1.0000
  H   H20       1.0  0.22616317714845022  0.342301156645469  0.0827000205324779  1.0000
  H   H21       1.0  0.9369216682103954  0.8872803498980204  0.4043200328519632  1.0000
  H   H22       1.0  0.5630703625195324  0.6127186963911413  0.9043207172678154  1.0000
  H   H23       1.0  0.0630813418180622  0.1127226810030919  0.595676545068784  1.0000
  H   H24       1.0  0.43692415040826654  0.3872865345349723  0.0956799671480368  1.0000
  H   H25       1.0  0.8139623907317102  0.8532576965911147  0.3065532817740078  1.0000
  H   H26       1.0  0.6860340603765067  0.6467362163063726  0.8065580726849646  1.0000
  H   H27       1.0  0.1860306260924744  0.1467453343099976  0.6934378208199307  1.0000
  H   H28       1.0  0.3139771174818407  0.3532616812030653  0.19343713640407867  1.0000
  H   H29       1.0  0.9125759384253556  0.943346520378526  0.20621586475942885  1.0000
  H   H30       1.0  0.5874221734218494  0.5566510592272991  0.7062192868386818  1.0000
  H   H31       1.0  0.087421402074277  0.0566616439142535  0.7937772910820584  1.0000
  H   H32       1.0  0.41257559305139324  0.4433497716488048  0.2937827664088672  1.0000
  H   H33       1.0  0.9077548349103708  0.034917330140857  0.061708301964273515  1.0000
  H   H34       1.0  0.5922396413231681  0.465083085297195  0.5617144617069345  1.0000
  H   H35       1.0  0.09222669260593358  0.9650835007352541  0.9382923824515788  1.0000
  H   H36       1.0  0.4077658670063542  0.5349199456039102  0.4382910136198745  1.0000
  H   H37       1.0  0.5989560145705041  0.2374068979394721  0.1701252481007458  1.0000
  H   H38       1.0  0.9010436229005521  0.2625949841819164  0.670127301348302  1.0000
  H   H39       1.0  0.40102301464472834  0.7625939329366389  0.8298631168297848  1.0000
  H   H40       1.0  0.0989617207935893  0.7374065800358593  0.3298713298200014  1.0000
  H   H41       1.0  0.5860351072230685  0.15292373785594288  0.3203873793717095  1.0000
  H   H42       1.0  0.913968030746517  0.3470759442404443  0.8203873793717096  1.0000
  H   H43       1.0  0.4139590764339616  0.8470785597035047  0.679611251796594  1.0000
  H   H44       1.0  0.08603823282739137  0.6529226866106583  0.17961535829169867  1.0000
  H   H45       1.0  0.5172646446343023  0.1715660163771915  0.8222715762097084  1.0000
  H   H46       1.0  0.982750490934471  0.3284292656691932  0.3222702073780042  1.0000
  H   H47       1.0  0.48274112503344924  0.8284282144239157  0.177724317295187  1.0000
  H   H48       1.0  0.0172611808300331  0.6715730318902473  0.6777284237902919  1.0000
  H   H49       1.0  0.5553244736505363  0.1729967659698488  0.7025713503524713  1.0000
  H   H50       1.0  0.9446894127677014  0.3269985160765359  0.20257682567928015  1.0000
  H   H51       1.0  0.44467579112377825  0.8270040649062622  0.2974279652316768  1.0000
  H   H52       1.0  0.055319431424969395  0.6730008481162386  0.797416330162207  1.0000
  H   H53       1.0  0.7559796648764845  0.9294115620188704  0.5290760386010547  1.0000
  H   H54       1.0  0.7440331075063682  0.5705830842202886  0.029078776264455507  1.0000
  H   H55       1.0  0.2440261871089646  0.0705834021239014  0.4709246458147973  1.0000
  H   H56       1.0  0.2559756399834541  0.4294265467558276  0.9709219081513896  1.0000
  C   C1        1.0  0.6313660598675099  0.0532413383785482  0.7687488878242448  1.0000
  C   C2        1.0  0.868646659717882  0.4467546770095012  0.2687536787352016  1.0000
  C   C3        1.0  0.36863778772301714  0.9467580258142263  0.2312490589282064  1.0000
  C   C4        1.0  0.1313598508090976  0.5532461538666098  0.7312545342550152  1.0000
  C   C5        1.0  0.6486291305138323  0.007090680579913999  0.8550051331188799  1.0000
  C   C6        1.0  0.851385414445943  0.4929104681998098  0.3550058175347317  1.0000
  C   C7        1.0  0.3513802075849881  0.9929130836628629  0.14499418246526835  1.0000
  C   C8        1.0  0.14861485032837146  0.5070903626763013  0.645002395455478  1.0000
  C   C9        1.0  0.7231857794196515  0.9191741123451109  0.8630600232701369  1.0000
  C   C10       1.0  0.7768296558996538  0.5808220005773777  0.3630654985969457  1.0000
  C   C11       1.0  0.2768262216156216  0.08083111858099562  0.13694134556156007  1.0000
  C   C12       1.0  0.22315471357364197  0.419170763540393  0.6369447676408202  1.0000
  C   C13       1.0  0.7852697586439845  0.8732361236299582  0.7851173773184572  1.0000
  C   C14       1.0  0.714737344210036  0.6267636560008754  0.2851214838135618  1.0000
  C   C15       1.0  0.21472184439428327  0.1267654405878176  0.214882622681543  1.0000
  C   C16       1.0  0.2852549317549204  0.37323277482523315  0.7148908356717529  1.0000
  C   C17       1.0  0.7708027838788425  0.9165868829433208  0.7002635001026647  1.0000
  C   C18       1.0  0.7291946694268319  0.5834048299291652  0.20027239750872647  1.0000
  C   C19       1.0  0.22919024733050006  0.083405147832778  0.2997296557388297  1.0000
  C   C20       1.0  0.2708067621803281  0.416595267605274  0.7997433440558481  1.0000
  C   C21       1.0  0.6938967881778311  0.0060530021208578  0.6888549722811563  1.0000
  C   C22       1.0  0.8061053619794478  0.4939378798755243  0.18886113202381696  1.0000
  C   C23       1.0  0.3060975744997307  0.9939397619969128  0.3111443433029919  1.0000
  C   C24       1.0  0.1939142162767169  0.5060680843922611  0.8111436588871401  1.0000
  C   C25       1.0  0.6757653956328369  0.0512451823605033  0.5988002190130715  1.0000
  C   C26       1.0  0.8242330070728414  0.4487456996358787  0.09880500992402833  1.0000
  C   C27       1.0  0.3242118905257101  0.9487512484656051  0.4011956744918237  1.0000
  C   C28       1.0  0.17577616639059812  0.5512565979235617  0.901191567996712  1.0000
  C   C29       1.0  0.8114445011193823  0.8883598288321011  0.3737266443090803  1.0000
  C   C30       1.0  0.6885519499888346  0.6116340840653933  0.8737307508041853  1.0000
  C   C31       1.0  0.1885532653538604  0.11164100204401  0.6262692491958148  1.0000
  C   C32       1.0  0.31144215135050496  0.3883674801523824  0.12626788036411093  1.0000
  C   C33       1.0  0.7564563522251787  0.9907907928780588  0.3677051536513575  1.0000
  C   C34       1.0  0.7435537572212141  0.5092023866777637  0.8677092601464622  1.0000
  C   C35       1.0  0.2435447501112051  0.0092063712897144  0.6322900554376858  1.0000
  C   C36       1.0  0.2564455053556429  0.4908006442233486  0.1322941619327906  1.0000
  C   C37       1.0  0.7526875880005407  0.0414367375620373  0.2787673670522182  1.0000
  C   C38       1.0  0.7473130660531311  0.4585519444093364  0.7787666826363733  1.0000
  C   C39       1.0  0.2472996090445889  0.9585589599223994  0.7212326329477818  1.0000
  C   C40       1.0  0.25269186605255095  0.5414459531001015  0.22123810827459076  1.0000
  C   C41       1.0  0.8397979933850976  0.0077037542136722  0.20293135309013627  1.0000
  C   C42       1.0  0.6602042247047207  0.4922988612493882  0.7029354595852413  1.0000
  C   C43       1.0  0.1601914406228673  0.9923007433707767  0.7970659092464558  1.0000
  C   C44       1.0  0.3397987853237368  0.5077041696517242  0.2970720689891167  1.0000
  C   C45       1.0  0.8381971335880678  0.0590545377742444  0.12088015878448033  1.0000
  C   C46       1.0  0.661806251334589  0.4409473443471441  0.6208863185271343  1.0000
  C   C47       1.0  0.1617987931256479  0.9409521598351986  0.8791184723838228  1.0000
  C   C48       1.0  0.3381900190350464  0.5590512865039656  0.3791225788789276  1.0000
  C   C49       1.0  0.6681894729163957  0.1724225594444491  0.18178700978714354  1.0000
  C   C50       1.0  0.8318094236954393  0.3275727226019356  0.6817870097871435  1.0000
  C   C51       1.0  0.3317948821717494  0.827581204798328  0.8182109369653006  1.0000
  C   C52       1.0  0.1681906764434942  0.6724266415908389  0.3182150434604054  1.0000
  C   C53       1.0  0.6628830363374689  0.1254608257619196  0.2659468893299604  1.0000
  C   C54       1.0  0.8371078714650081  0.3745300562344624  0.7659462049141086  1.0000
  C   C55       1.0  0.3370980795903762  0.8745363384058535  0.7340517418383428  1.0000
  C   C56       1.0  0.1628909795233895  0.625469307958312  0.23405790158100365  1.0000
  N   N1        1.0  0.5533305386291261  0.1379401009122248  0.7639682431045074  1.0000
  N   N2        1.0  0.9466859284078666  0.3620559144758246  0.2639744028471682  1.0000
  N   N3        1.0  0.4466803099584524  0.86205486323054  0.23602833481623264  1.0000
  N   N4        1.0  0.053326663236397606  0.6379434497169498  0.736023543905276  1.0000
  N   N5        1.0  0.7218849031800261  0.9997382945592577  0.5221949216343874  1.0000
  N   N6        1.0  0.7781257001725165  0.5002592850465675  0.022201081377048106  1.0000
  N   N7        1.0  0.278123858694947  0.000260336291845  0.47779960303880403  1.0000
  N   N8        1.0  0.22187489387255965  0.4997444791962096  0.9777968653754032  1.0000
  N   N9        1.0  0.7140437743736712  0.0413802702536685  0.4386592293477491  1.0000
  N   N10       1.0  0.7859604481110622  0.4586179451593893  0.9386653890904102  1.0000
  N   N11       1.0  0.2859544036880308  0.9586242273307803  0.5613305044144854  1.0000
  N   N12       1.0  0.2140384851950259  0.541382152375057  0.06133324207788601  1.0000
  N   N13       1.0  0.7556033923880533  0.1405588640057118  0.1102525494490436  1.0000
  N   N14       1.0  0.7443937467819383  0.3594430181156767  0.6102593936075567  1.0000
  N   N15       1.0  0.2443884576032929  0.8594449002370652  0.8897447128875486  1.0000
  N   N16       1.0  0.2556080140959835  0.6405600127854285  0.38974608171925246  1.0000
  Cl  Cl1       1.0  0.4391620176723592  0.2935698695200415  0.4217295188556562  1.0000
  Cl  Cl2       1.0  0.060846728099420495  0.206434945968013  0.9217322565190644  1.0000
  Cl  Cl3       1.0  0.5608355841655026  0.706429494672733  0.5782718499760477  1.0000
  Cl  Cl4       1.0  0.9391573664441921  0.7935666182497627  0.0782718499760477  1.0000
  Cl  Cl5       1.0  0.009152663133704695  0.24270895819314117  0.4545479433303684  1.0000
  Cl  Cl6       1.0  0.4908506744474792  0.2572921905865755  0.9545445212511154  1.0000
  Cl  Cl7       1.0  0.9908436895536211  0.7572904059996333  0.5454506878379277  1.0000
  Cl  Cl8       1.0  0.5091395148048719  0.7427079069478637  0.0454520566696317  1.0000
  O   O1        1.0  0.6207041830340144  0.1347859984017106  0.588982273629455  1.0000
  O   O2        1.0  0.8793087011867655  0.3652114836696753  0.08897200739168912  1.0000
  O   O3        1.0  0.37929458563668556  0.8652126324493992  0.4110238861131991  1.0000
  O   O4        1.0  0.12068865369802502  0.6347856804980978  0.9110190952022421  1.0000
