data_image0
_chemical_formula_structural       Zn8H56C64O26F4
_chemical_formula_sum              "Zn8 H56 C64 O26 F4"
_cell_length_a       17.970949644806417
_cell_length_b       18.47903454696333
_cell_length_c       20.416796772878996
_cell_angle_alpha    60.98053124133609
_cell_angle_beta     62.63619901826584
_cell_angle_gamma    89.90554941794419

_space_group_name_H-M_alt    "P 1"
_space_group_IT_number       1

loop_
  _space_group_symop_operation_xyz
  'x, y, z'

loop_
  _atom_site_type_symbol
  _atom_site_label
  _atom_site_symmetry_multiplicity
  _atom_site_fract_x
  _atom_site_fract_y
  _atom_site_fract_z
  _atom_site_occupancy
  Zn  Zn1       1.0  0.13057987625666784  0.5439979027065855  0.9234393504710072  1.0000
  Zn  Zn2       1.0  0.9600929127976486  0.5489986831831714  0.06858332634407563  1.0000
  Zn  Zn3       1.0  0.9679138003707807  0.3789222627394507  0.0627072111412659  1.0000
  Zn  Zn4       1.0  0.9561820682322021  0.5439998915418155  0.9128842998775825  1.0000
  Zn  Zn5       1.0  0.37683084067560907  0.9688906627329954  0.062484247118987916  1.0000
  Zn  Zn6       1.0  0.5448507113540091  0.12926436158904409  0.9189576476985836  1.0000
  Zn  Zn7       1.0  0.5403972499539903  0.9595209223303482  0.9143522758071327  1.0000
  Zn  Zn8       1.0  0.5539592263554881  0.9608850271338479  0.0675530212037785  1.0000
  H   H1        1.0  0.42972185544999064  0.8229395937581283  0.3476519541368219  1.0000
  H   H2        1.0  0.2023556003202741  0.8371691556328994  0.3247040596880595  1.0000
  H   H3        1.0  0.08561970132056726  0.683935578637225  0.6354987825064953  1.0000
  H   H4        1.0  0.3125767135652708  0.6713459476586718  0.6590736246652825  1.0000
  H   H5        1.0  0.67812767773637  0.08468596443669425  0.6388346190995905  1.0000
  H   H6        1.0  0.6669402952127398  0.30990830492886073  0.6535917073372987  1.0000
  H   H7        1.0  0.8209742520955032  0.42365823704891864  0.3438579250340297  1.0000
  H   H8        1.0  0.8323234597744075  0.1983951709371609  0.3291805498221195  1.0000
  H   H9        1.0  0.2170888724970012  0.3152199324314322  0.884401613944199  1.0000
  H   H10       1.0  0.13129982563985704  0.2279387199192157  0.9870500222117896  1.0000
  H   H11       1.0  0.22375977301054903  0.1388854463003567  0.9813860265690907  1.0000
  H   H12       1.0  0.30990717706535503  0.2276383849745825  0.8804329574122889  1.0000
  H   H13       1.0  0.1996388168746748  0.10870464516175095  0.12490875361238102  1.0000
  H   H14       1.0  0.27106773289969505  0.17273227828371057  0.1262845707624294  1.0000
  H   H15       1.0  0.11043174708448326  0.20112933660086432  0.12849290954498832  1.0000
  H   H16       1.0  0.18447819963743933  0.2664240975448209  0.1261614442656622  1.0000
  H   H17       1.0  0.3227130986741639  0.4110220322071852  0.8806758329401705  1.0000
  H   H18       1.0  0.30803329178272054  0.3926164743173927  0.9792561518305832  1.0000
  H   H19       1.0  0.3965264593515769  0.2996756086554198  0.9811598690293053  1.0000
  H   H20       1.0  0.41377131255326544  0.3206550867337582  0.8809163678313681  1.0000
  H   H21       1.0  0.9088182578307028  0.8170006053292126  0.8759542795986165  1.0000
  H   H22       1.0  0.8877088125053803  0.7914311002070203  0.9795906602255684  1.0000
  H   H23       1.0  0.7988493768127327  0.8839691243106881  0.9787378867776156  1.0000
  H   H24       1.0  0.8191508772930546  0.9077787944303921  0.8758731345469786  1.0000
  H   H25       1.0  0.6732334580855976  0.7587853389815958  0.11929696414202341  1.0000
  H   H26       1.0  0.6024935633896362  0.6948035261549065  0.11736800231242481  1.0000
  H   H27       1.0  0.7613172488968657  0.6653585333747143  0.11931040558047815  1.0000
  H   H28       1.0  0.6912363220834122  0.603080288470032  0.11519396492128924  1.0000
  H   H29       1.0  0.8099965996423251  0.7269940690144804  0.8687453429710958  1.0000
  H   H30       1.0  0.7217909275603842  0.6388176635800061  0.9658543453186611  1.0000
  H   H31       1.0  0.6309170783378232  0.7292077876409022  0.9687116922376191  1.0000
  H   H32       1.0  0.7187535623119244  0.816985246248819  0.8707651934908114  1.0000
  H   H33       1.0  0.17716028273093085  0.810513430124075  0.9175771776576482  1.0000
  H   H34       1.0  0.2682414846117565  0.7807679120739477  0.8631937496105948  1.0000
  H   H35       1.0  0.35866861942993467  0.8755064734337449  0.8592432173068261  1.0000
  H   H36       1.0  0.2669392197504834  0.9041177177727278  0.9144623613720455  1.0000
  H   H37       1.0  0.4017384411607664  0.7508126055009963  0.9450800063395307  1.0000
  H   H38       1.0  0.34244541062313516  0.6915554098735012  0.06114791617520152  1.0000
  H   H39       1.0  0.31006568515964245  0.6546492821092185  0.9512037443403829  1.0000
  H   H40       1.0  0.2499424211578543  0.5974498409013971  0.06722459514833191  1.0000
  H   H41       1.0  0.08925530703824334  0.7263653661671439  0.08475847681663141  1.0000
  H   H42       1.0  0.11856789963470503  0.638995734828775  0.1457542915277372  1.0000
  H   H43       1.0  0.21021737179060557  0.7324097927652385  0.14193257686114438  1.0000
  H   H44       1.0  0.18020958527756648  0.8196085761903048  0.08173809552718582  1.0000
  H   H45       1.0  0.9146838277230388  0.2807787788237306  0.9062670442278105  1.0000
  H   H46       1.0  0.87918590156022  0.36575488670469253  0.8491886585762458  1.0000
  H   H47       1.0  0.7931991403594978  0.26792451555152036  0.8523846649797447  1.0000
  H   H48       1.0  0.8258313350805719  0.18270309873580687  0.9131634684646458  1.0000
  H   H49       1.0  0.6625253529804451  0.3086506787260317  0.9311613773853439  1.0000
  H   H50       1.0  0.599964545724724  0.24963649079933958  0.0471439848957473  1.0000
  H   H51       1.0  0.7491002296410938  0.40316990953841236  0.9313016434073021  1.0000
  H   H52       1.0  0.6877394477811974  0.34186521914772056  0.04738231766132371  1.0000
  H   H53       1.0  0.8277495636638292  0.19156243790665425  0.07357252078184467  1.0000
  H   H54       1.0  0.7367876193924944  0.2174456698254588  0.1319902965247124  1.0000
  H   H55       1.0  0.6449269603369743  0.12512681952851784  0.13493945899036672  1.0000
  H   H56       1.0  0.735372100587753  0.09602167546537996  0.0804109155368309  1.0000
  C   C1        1.0  0.13929676211598258  0.6377008692062271  0.0030550148577291104  1.0000
  C   C2        1.0  0.8787197228205629  0.3732558083733791  0.22923697116821273  1.0000
  C   C3        1.0  0.14669145944214512  0.36550891967976884  0.9980812903879654  1.0000
  C   C4        1.0  0.8644693360327197  0.3671130059701539  0.9868762637712436  1.0000
  C   C5        1.0  0.13534540206273243  0.6251575346628045  0.7548722095039294  1.0000
  C   C6        1.0  0.8624810068931905  0.6433865632089776  0.9873864212354277  1.0000
  C   C7        1.0  0.36507414923556764  0.14545422894173032  0.9949241123467586  1.0000
  C   C8        1.0  0.6188714966348812  0.13493500487145835  0.7535419999781467  1.0000
  C   C9        1.0  0.3592735415938717  0.8639026823209118  0.9952484927669334  1.0000
  C   C10       1.0  0.6441348038945448  0.8647315047655366  0.989119637363473  1.0000
  C   C11       1.0  0.37864679629125664  0.8830221747479142  0.22855184596013342  1.0000
  C   C12       1.0  0.6486382933302579  0.13965420043791685  0.9916463162425729  1.0000
  C   C13       1.0  0.3590266326625837  0.8084143825835992  0.3785017968220288  1.0000
  C   C14       1.0  0.23036469305754537  0.8162320245530523  0.3659171302260233  1.0000
  C   C15       1.0  0.17801276072901115  0.7721968733837058  0.45558586608869694  1.0000
  C   C16       1.0  0.21098534412188727  0.7437551981408032  0.5124257293975917  1.0000
  C   C17       1.0  0.15627323815259317  0.6985688869426238  0.6048796853852708  1.0000
  C   C18       1.0  0.28459809912417444  0.691604534273402  0.6178569341639459  1.0000
  C   C19       1.0  0.3371766387584855  0.735251266787571  0.5281613938312193  1.0000
  C   C20       1.0  0.30447614530913825  0.7633859607295786  0.4710753376716141  1.0000
  C   C21       1.0  0.32243613742876687  0.8344838277450887  0.3268588256509021  1.0000
  C   C22       1.0  0.1925455540798779  0.6729342761270658  0.656757156514729  1.0000
  C   C23       1.0  0.693682174734569  0.15455566758882347  0.6059380465115894  1.0000
  C   C24       1.0  0.6874519374316462  0.282052538544711  0.6139827870094053  1.0000
  C   C25       1.0  0.7323462668010593  0.33345819451418623  0.524039825920056  1.0000
  C   C26       1.0  0.7603026457958465  0.30038132491769426  0.46946112320976147  1.0000
  C   C27       1.0  0.8056980205251847  0.3537931795229382  0.37678194204472965  1.0000
  C   C28       1.0  0.8118872658155211  0.22627626032348744  0.36875717209728265  1.0000
  C   C29       1.0  0.7677773147615807  0.17495227626626067  0.4586765893449468  1.0000
  C   C30       1.0  0.7397463254982596  0.20803093407677406  0.5132518917876965  1.0000
  C   C31       1.0  0.6678601077068077  0.19110927217204204  0.6553058543050271  1.0000
  C   C32       1.0  0.8307757810993692  0.3171823969459026  0.3274614706850088  1.0000
  C   C33       1.0  0.19977847337252527  0.26475578661768373  0.9514287274242222  1.0000
  C   C34       1.0  0.2608048769826466  0.20561601788179454  0.9487983692937051  1.0000
  C   C35       1.0  0.308148177081385  0.20644920031723035  0.9955505195815848  1.0000
  C   C36       1.0  0.23824558483329375  0.17502990990443826  0.09147027741374811  1.0000
  C   C37       1.0  0.1794594461881474  0.23638095970989073  0.09262721909606601  1.0000
  C   C38       1.0  0.20745079991839072  0.30807009897848275  0.9975777530695497  1.0000
  C   C39       1.0  0.30302532923122527  0.35978877749150207  0.9480984914621757  1.0000
  C   C40       1.0  0.362511921987611  0.29924600182486916  0.9482645025638237  1.0000
  C   C41       1.0  0.8563891530692015  0.7937725962769729  0.9436231265895857  1.0000
  C   C42       1.0  0.7969113882210405  0.8547347385576453  0.9435746625385449  1.0000
  C   C43       1.0  0.7013405269871456  0.8036510851470948  0.98856302786367  1.0000
  C   C44       1.0  0.6711440932672943  0.7303126933794813  0.08365393060989852  1.0000
  C   C45       1.0  0.730046446458978  0.6691218598384054  0.08298179624992488  1.0000
  C   C46       1.0  0.801832865428736  0.701243266157341  0.9874709488937511  1.0000
  C   C47       1.0  0.7588932341395777  0.7045694096396176  0.9364768735525856  1.0000
  C   C48       1.0  0.6987961761601723  0.7645942298735162  0.9378245464073134  1.0000
  C   C49       1.0  0.23253264748970523  0.7866043301808713  0.9200155740619068  1.0000
  C   C50       1.0  0.29250709119983037  0.8491174935561573  0.9175904190525088  1.0000
  C   C51       1.0  0.29834894952171004  0.8009237583550328  0.001031881971989907  1.0000
  C   C52       1.0  0.3357303465473223  0.7249834370608141  0.0033875374781401984  1.0000
  C   C53       1.0  0.2748939298893234  0.6621046029684264  0.006939780402497304  1.0000
  C   C54       1.0  0.19667958233685567  0.6958632294737865  0.005382186515269903  1.0000
  C   C55       1.0  0.14559449842953848  0.7035199113819599  0.0850565019775686  1.0000
  C   C56       1.0  0.20604070658212953  0.7654644035870387  0.0827017485512798  1.0000
  C   C57       1.0  0.856370881925855  0.3007867039866595  0.9083334056459051  1.0000
  C   C58       1.0  0.7979877205043521  0.23627105118096367  0.9112405760923823  1.0000
  C   C59       1.0  0.7048850366893119  0.19909034668561534  0.9937542185954483  1.0000
  C   C60       1.0  0.6670487155550474  0.27527968867803987  0.9900803541303989  1.0000
  C   C61       1.0  0.7252070648637599  0.3375169011279694  0.9896672091274965  1.0000
  C   C62       1.0  0.8041390932973798  0.30530774336601507  0.990682220827324  1.0000
  C   C63       1.0  0.7712688636751323  0.21409515056404863  0.07343460153752801  1.0000
  C   C64       1.0  0.7109431585023387  0.15166017206266247  0.07627848470082908  1.0000
  O   O1        1.0  0.002515690189454599  0.5052937284875579  0.991169799782689  1.0000
  O   O2        1.0  0.17851991082492422  0.6187956656454857  0.9455886968926422  1.0000
  O   O3        1.0  0.8921362449693007  0.4545642813597581  0.19413195297228472  1.0000
  O   O4        1.0  0.06487480521913369  0.32731194970111926  0.04450931134199721  1.0000
  O   O5        1.0  0.05702130087452417  0.6138924825837858  0.05658558335435523  1.0000
  O   O6        1.0  0.18131348213695714  0.44685139477626706  0.9515662354347826  1.0000
  O   O7        1.0  0.9020869365505462  0.3342461404691974  0.1889807618994794  1.0000
  O   O8        1.0  0.8938071273374604  0.3327939560140435  0.03778465907869591  1.0000
  O   O9        1.0  0.052822963484707726  0.6084444728946605  0.7880888121592948  1.0000
  O   O10       1.0  0.8825039207355586  0.4479850174166629  0.9323954066336597  1.0000
  O   O11       1.0  0.17487659497390237  0.6052333561353364  0.7968957239328702  1.0000
  O   O12       1.0  0.8890105362411163  0.6251113115842201  0.0404210664510884  1.0000
  O   O13       1.0  0.8828988625101954  0.6186487298179413  0.9344466177048646  1.0000
  O   O14       1.0  0.5047018203655751  0.0029133414689823246  0.9917913290724132  1.0000
  O   O15       1.0  0.325739267328629  0.06562627595378247  0.03650446874189581  1.0000
  O   O16       1.0  0.5955733844466734  0.1738698934537266  0.7938978023161598  1.0000
  O   O17       1.0  0.4402748063043515  0.8880681877808596  0.9366713300477727  1.0000
  O   O18       1.0  0.44742757756525686  0.17812499145813368  0.9528604569471926  1.0000
  O   O19       1.0  0.32496129808460955  0.8887071550923192  0.048159940662344525  1.0000
  O   O20       1.0  0.6044815273456121  0.05352708622994834  0.7887040537390178  1.0000
  O   O21       1.0  0.6167979748013578  0.8874399746646872  0.9363729776669772  1.0000
  O   O22       1.0  0.46092868141152366  0.8940277218913055  0.19414809816885278  1.0000
  O   O23       1.0  0.6288804008520118  0.8891659052508628  0.041785150434336095  1.0000
  O   O24       1.0  0.3381286373819917  0.9093537168257555  0.18764531946283117  1.0000
  O   O25       1.0  0.6323125976240005  0.17620055948863447  0.9301685343075122  1.0000
  O   O26       1.0  0.6228001013068508  0.05896267389363888  0.0496690203663732  1.0000
  F   F1        1.0  0.4255565805966695  0.7531149543424788  0.49075760710407224  1.0000
  F   F2        1.0  0.08958946224863945  0.7543466538365561  0.4933144672006478  1.0000
  F   F3        1.0  0.7491099788767457  0.08758071636349019  0.4989123760141326  1.0000
  F   F4        1.0  0.7514385884734194  0.42083281934753797  0.4838637486310375  1.0000
