data_image0
_chemical_formula_structural       Mg6P6H48C18N6O24
_chemical_formula_sum              "Mg6 P6 H48 C18 N6 O24"
_cell_length_a       6.24305278053861
_cell_length_b       16.333343065120257
_cell_length_c       16.332411764302364
_cell_angle_alpha    118.39673882443078
_cell_angle_beta     97.31395766659384
_cell_angle_gamma    97.30901411267541

_space_group_name_H-M_alt    "P 1"
_space_group_IT_number       1

loop_
  _space_group_symop_operation_xyz
  'x, y, z'

loop_
  _atom_site_type_symbol
  _atom_site_label
  _atom_site_symmetry_multiplicity
  _atom_site_fract_x
  _atom_site_fract_y
  _atom_site_fract_z
  _atom_site_occupancy
  Mg  Mg1       1.0  0.03411447675418339  0.32746529933920226  0.5806468797371805  1.0000
  Mg  Mg2       1.0  0.7065514511417492  0.2531404872005965  0.6725414149641723  1.0000
  Mg  Mg3       1.0  0.45344990755113906  0.41940981667359273  0.7468146840172167  1.0000
  Mg  Mg4       1.0  0.9658858408185225  0.6725354775215209  0.4193544371457563  1.0000
  Mg  Mg5       1.0  0.29345174309290195  0.7468595768200074  0.327458479432856  1.0000
  Mg  Mg6       1.0  0.5465536412716288  0.5805909600051817  0.2531861788800993  1.0000
  P   P1        1.0  0.5380681331256768  0.33676262539876944  0.5317453940199428  1.0000
  P   P2        1.0  0.2012828698426858  0.1949936015594247  0.6632133156751934  1.0000
  P   P3        1.0  0.006242832236786476  0.4681977968430999  0.8050003839335388  1.0000
  P   P4        1.0  0.4619286061889484  0.6632374391293608  0.4682523473896154  1.0000
  P   P5        1.0  0.7987199682878413  0.8050057497742814  0.3367862224132879  1.0000
  P   P6        1.0  0.9937605509323504  0.5317994162958398  0.19499877652410896  1.0000
  H   H1        1.0  0.6340462198425243  0.4842468858144072  0.527724473746403  1.0000
  H   H2        1.0  0.14995338012889897  0.04358226930274609  0.5157009818467557  1.0000
  H   H3        1.0  0.1063345072306277  0.4721799089635255  0.9564844956389393  1.0000
  H   H4        1.0  0.36595302941779545  0.515751752985615  0.47227577421089245  1.0000
  H   H5        1.0  0.8500474930945431  0.9564163695643018  0.4842956720631477  1.0000
  H   H6        1.0  0.8936634847828202  0.5278194426574528  0.04351541733210234  1.0000
  H   H7        1.0  0.7408810530116907  0.4950854845116837  0.6386120851708128  1.0000
  H   H8        1.0  0.24606933526376915  0.14363135566429008  0.5049025624219681  1.0000
  H   H9        1.0  0.10255612833028493  0.36135024782262803  0.8564715635794184  1.0000
  H   H10       1.0  0.2591153195866838  0.504913867128451  0.36138958527239856  1.0000
  H   H11       1.0  0.753932959344155  0.8563701338929022  0.49509674110560553  1.0000
  H   H12       1.0  0.8974431209300349  0.6386483909773942  0.1435286843778839  1.0000
  H   H13       1.0  0.7973234583113753  0.3357941644027349  0.3943598104480515  1.0000
  H   H14       1.0  0.4613276022760502  0.0585999054750133  0.6642397118028639  1.0000
  H   H15       1.0  0.4026035644296329  0.6056463058475856  0.9414300515486502  1.0000
  H   H16       1.0  0.20267003762506172  0.6642059000775121  0.6056432824810687  1.0000
  H   H17       1.0  0.538677020923167  0.9414030093793712  0.33575977125312306  1.0000
  H   H18       1.0  0.5973963985549631  0.39435375835495984  0.05857029683399865  1.0000
  H   H19       1.0  0.0882881108632603  0.377437194774366  0.4212704653250441  1.0000
  H   H20       1.0  0.7105980681426445  0.04372798404776999  0.6225283910926933  1.0000
  H   H21       1.0  0.6667911440303698  0.5788041166178246  0.9561775176951314  1.0000
  H   H22       1.0  0.9117050289690454  0.6225621570189758  0.5787322712955287  1.0000
  H   H23       1.0  0.28940978933866296  0.9562749306821343  0.3774694135941913  1.0000
  H   H24       1.0  0.33320971858095305  0.42119452204812546  0.04382342155697217  1.0000
  H   H25       1.0  0.2685417343495828  0.5109151116150628  0.5890650774348529  1.0000
  H   H26       1.0  0.7579630701384656  0.07804120720819437  0.4890926479347399  1.0000
  H   H27       1.0  0.6797484941114932  0.4110520016565288  0.921915576936115  1.0000
  H   H28       1.0  0.731453384033955  0.48908495290348947  0.41093503363860856  1.0000
  H   H29       1.0  0.24204317247581741  0.9219617076270481  0.5109050776490847  1.0000
  H   H30       1.0  0.32025146735708176  0.5889480625172893  0.07808538363828169  1.0000
  H   H31       1.0  0.09723356610215458  0.5566384437450722  0.6705412314037318  1.0000
  H   H32       1.0  0.5410927451445247  0.1138650783420019  0.44334335389454077  1.0000
  H   H33       1.0  0.42712792461227167  0.32948952904299494  0.8861298108034035  1.0000
  H   H34       1.0  0.9027644122671461  0.44336090761734676  0.3294641912929919  1.0000
  H   H35       1.0  0.45890864983666535  0.8861378367517926  0.556655358763578  1.0000
  H   H36       1.0  0.5728704235053002  0.6705105352648887  0.11387045847618552  1.0000
  H   H37       1.0  0.18155643250022985  0.23703346663087638  0.4231075051061026  1.0000
  H   H38       1.0  0.9443053368634864  0.1860908040714833  0.7630291953200015  1.0000
  H   H39       1.0  0.7582152689855091  0.5769220399927446  0.8139114698514334  1.0000
  H   H40       1.0  0.8184422747535081  0.7629673104213592  0.5768918960985515  1.0000
  H   H41       1.0  0.05569427456502746  0.813908547530346  0.2369689601788778  1.0000
  H   H42       1.0  0.2417863058340686  0.4230780240470082  0.18609018201776453  1.0000
  H   H43       1.0  0.9144549058644034  0.1913060545587868  0.38923991094088  1.0000
  H   H44       1.0  0.7229264372491214  0.19790033351711855  0.8088010038501494  1.0000
  H   H45       1.0  0.5250284975168994  0.6109022291991336  0.8021223399797605  1.0000
  H   H46       1.0  0.08554218197426874  0.8086947225126051  0.6107612477359367  1.0000
  H   H47       1.0  0.2770780172644364  0.8020990177399766  0.19119800114965102  1.0000
  H   H48       1.0  0.4749730803347205  0.3890978348980809  0.19787808750594857  1.0000
  C   C1        1.0  0.7183456956811867  0.44890660841464575  0.5612292389366543  1.0000
  C   C2        1.0  0.2696483597811579  0.11239604187706217  0.551058723251387  1.0000
  C   C3        1.0  0.15723120049010222  0.4387331367913988  0.8876695857890766  1.0000
  C   C4        1.0  0.2816494181543021  0.5510934560177246  0.4387727087120367  1.0000
  C   C5        1.0  0.7303523184437283  0.8876054477567408  0.44894111336486725  1.0000
  C   C6        1.0  0.8427696636372418  0.5612655019032857  0.11233074127128619  1.0000
  C   C7        1.0  0.9316308153979947  0.3995492377518346  0.43556879773244367  1.0000
  C   C8        1.0  0.5318788931109637  0.0360093292513639  0.6004477591837016  1.0000
  C   C9        1.0  0.4959002087385684  0.5644502211324323  0.9639688789675914  1.0000
  C   C10       1.0  0.06836213398381122  0.600452964894444  0.5644352850192502  1.0000
  C   C11       1.0  0.46812537550014344  0.9639928729448569  0.3995507553719975  1.0000
  C   C12       1.0  0.5041026293919515  0.4355491302012666  0.03603065912088975  1.0000
  C   C13       1.0  0.10440226381381022  0.5276927425881369  0.5952433044134935  1.0000
  C   C14       1.0  0.577076297805533  0.06751714969231408  0.4723057665483097  1.0000
  C   C15       1.0  0.5094240420178692  0.4047816796772139  0.9324698929060274  1.0000
  C   C16       1.0  0.8955915897427716  0.4723080346077424  0.40475953263242564  1.0000
  C   C17       1.0  0.42292474410356123  0.9324850527720302  0.5276913654177804  1.0000
  C   C18       1.0  0.49057682514150264  0.595216959074925  0.06752920977084644  1.0000
  N   N1        1.0  0.938445983299843  0.4359742302033495  0.5387857190395094  1.0000
  N   N2        1.0  0.5025944940828282  0.10282454261137988  0.564024083300687  1.0000
  N   N3        1.0  0.39972882383226255  0.46122460677195676  0.8971956598811417  1.0000
  N   N4        1.0  0.06155129498932142  0.5640236960151056  0.46121409350617876  1.0000
  N   N5        1.0  0.4974085127333509  0.8971783723196152  0.4359759328439806  1.0000
  N   N6        1.0  0.6002723963992053  0.5387747446096256  0.1028050234877611  1.0000
  O   O1        1.0  0.42347622746016367  0.2793090912916156  0.4269479103012371  1.0000
  O   O2        1.0  0.1441375086481003  0.14764738471860275  0.7206886592916746  1.0000
  O   O3        1.0  0.996325133757331  0.5729895311062092  0.8523411015367088  1.0000
  O   O4        1.0  0.5765179943286753  0.7206923988209866  0.573050385519295  1.0000
  O   O5        1.0  0.8558649748943097  0.8523512539569325  0.2793099102965114  1.0000
  O   O6        1.0  0.0036777013411608953  0.4270098201700349  0.14765966093525407  1.0000
  O   O7        1.0  0.37167363857613367  0.36574013817870815  0.5983141013301676  1.0000
  O   O8        1.0  0.005887561729600991  0.23258716659550058  0.6342829739898335  1.0000
  O   O9        1.0  0.7733374123980427  0.40165609365816113  0.7674171032851902  1.0000
  O   O10       1.0  0.6283230946744212  0.634259926234506  0.401686088846361  1.0000
  O   O11       1.0  0.9941163401652561  0.7674143227127176  0.3657194695995188  1.0000
  O   O12       1.0  0.22666309865720535  0.5983418324070795  0.23258164308313664  1.0000
  O   O13       1.0  0.6980740728355954  0.28706478197170077  0.5636474289786477  1.0000
  O   O14       1.0  0.4109241328300329  0.2765766558384044  0.7128802765369072  1.0000
  O   O15       1.0  0.13435316842635098  0.43631334020519563  0.7233982820675067  1.0000
  O   O16       1.0  0.30191801081245717  0.7129324319907722  0.43634934118234264  1.0000
  O   O17       1.0  0.589078344648307  0.7234219827222076  0.2871207418182563  1.0000
  O   O18       1.0  0.865647695700986  0.5636852984894815  0.27660204499284907  1.0000
  O   O19       1.0  0.03893793110771778  0.22155609547856867  0.4431872524920522  1.0000
  O   O20       1.0  0.8170863967595068  0.2215882753295517  0.7785118303145779  1.0000
  O   O21       1.0  0.5955788072026564  0.5569412676667014  0.7783658599572617  1.0000
  O   O22       1.0  0.9610611307341301  0.7784453942318449  0.556813117212883  1.0000
  O   O23       1.0  0.18291518564015521  0.7784117888538447  0.22148676059590852  1.0000
  O   O24       1.0  0.4044247446521397  0.4430595090695277  0.22163377855656563  1.0000
