data_image0
_chemical_formula_structural       Cd2H12C16S2N6Cl2O6
_chemical_formula_sum              "Cd2 H12 C16 S2 N6 Cl2 O6"
_cell_length_a       6.64062473511532
_cell_length_b       7.785526672000569
_cell_length_c       10.492636848263183
_cell_angle_alpha    90.00004006144775
_cell_angle_beta     99.70043188522628
_cell_angle_gamma    90.00001085660313

_space_group_name_H-M_alt    "P 1"
_space_group_IT_number       1

loop_
  _space_group_symop_operation_xyz
  'x, y, z'

loop_
  _atom_site_type_symbol
  _atom_site_label
  _atom_site_symmetry_multiplicity
  _atom_site_fract_x
  _atom_site_fract_y
  _atom_site_fract_z
  _atom_site_occupancy
  Cd  Cd1       1.0  0.9870391484979633  0.5991297495987737  0.006443827561369562  1.0000
  Cd  Cd2       1.0  0.012960473339127499  0.0991292802691746  0.9935567171836439  1.0000
  H   H1        1.0  0.1819915118817192  0.9244630629460886  0.4683167932798824  1.0000
  H   H2        1.0  0.8180097591805833  0.4244648572125485  0.5316831435713851  1.0000
  H   H3        1.0  0.7373221898156856  0.7730309448656102  0.7014490817087023  1.0000
  H   H4        1.0  0.26267749743274754  0.273032429406605  0.2985506071169298  1.0000
  H   H5        1.0  0.4699883974708783  0.7611369663019758  0.5056105921393765  1.0000
  H   H6        1.0  0.5300128140970344  0.2611361099203934  0.49438830064626416  1.0000
  H   H7        1.0  0.9112373712548204  0.9144637048191199  0.2697808955418211  1.0000
  H   H8        1.0  0.0887638961033801  0.4144629994217722  0.7302190357299382  1.0000
  H   H9        1.0  0.4934579683199943  0.11045638222852719  0.21766665290176956  1.0000
  H   H10       1.0  0.5065416587122585  0.6104549366144029  0.7823329452198707  1.0000
  H   H11       1.0  0.4325462414468433  0.5701529733087937  0.24742892630730753  1.0000
  H   H12       1.0  0.5674548973825395  0.07015108202656958  0.7525717658096127  1.0000
  C   C1        1.0  0.9751393122426464  0.8464119483435156  0.5952029816312105  1.0000
  C   C2        1.0  0.024860402185225894  0.3464134945899674  0.404796748134963  1.0000
  C   C3        1.0  0.0261420555686769  0.8872362848729906  0.47501372061105235  1.0000
  C   C4        1.0  0.9738576739798503  0.38723681361168616  0.5249860319314479  1.0000
  C   C5        1.0  0.7759428605578833  0.8003739475742009  0.6068016566670664  1.0000
  C   C6        1.0  0.2240568368180789  0.3003755151204288  0.3931980474137191  1.0000
  C   C7        1.0  0.6262096947589624  0.7944359423949265  0.4969215668837563  1.0000
  C   C8        1.0  0.3737900004174222  0.29443635335959323  0.5030781338837897  1.0000
  C   C9        1.0  0.6779919005351686  0.8370829729047387  0.3773064558556243  1.0000
  C   C10       1.0  0.32200781043693627  0.33708220385528875  0.6226932687051132  1.0000
  C   C11       1.0  0.8764363446699048  0.8823824231464527  0.36452078975295876  1.0000
  C   C12       1.0  0.12356338308055828  0.3823816340383103  0.635478960081123  1.0000
  C   C13       1.0  0.4319457865685692  0.981043587258533  0.2023617589995936  1.0000
  C   C14       1.0  0.5680539767247338  0.4810430230078068  0.7976389988217534  1.0000
  C   C15       1.0  0.3985787490494558  0.7028812932020189  0.2191145669267769  1.0000
  C   C16       1.0  0.6014209122157795  0.20287943411779  0.7808850827602072  1.0000
  S   S1        1.0  0.16157884408797676  0.8562905370124767  0.7390621526659942  1.0000
  S   S2        1.0  0.8384208739988068  0.35629207926076123  0.2609375826116178  1.0000
  N   N1        1.0  0.51684240242151  0.839248464775352  0.26732030087438124  1.0000
  N   N2        1.0  0.483158838077749  0.33924654109171837  0.7326786354907214  1.0000
  N   N3        1.0  0.267758060472552  0.9336273470287749  0.1207609726133327  1.0000
  N   N4        1.0  0.7322401565330735  0.4336268863023633  0.8792405481571706  1.0000
  N   N5        1.0  0.24776400297594137  0.7589108464492966  0.13092067290234868  1.0000
  N   N6        1.0  0.7522356780421191  0.25891037937748246  0.8690799609873068  1.0000
  Cl  Cl1       1.0  0.2567254087998592  0.3569893651763536  0.0170154805337575  1.0000
  Cl  Cl2       1.0  0.7432743095454839  0.8569894315298824  0.9829842551333315  1.0000
  O   O1        1.0  0.3610112270041554  0.8487123693987113  0.6977316554872957  1.0000
  O   O2        1.0  0.6389884882755226  0.34871263391246293  0.3022680755619689  1.0000
  O   O3        1.0  0.1208993488604051  0.7069275216679073  0.8169299195616659  1.0000
  O   O4        1.0  0.8791003139038835  0.20692771263325943  0.18306973238335192  1.0000
  O   O5        1.0  0.12494069736917617  0.022460010765740893  0.7992801500091743  1.0000
  O   O6        1.0  0.8750573683453806  0.5224606451813755  0.20072018842181896  1.0000
