data_image0
_chemical_formula_structural       Li2H12C12N10
_chemical_formula_sum              "Li2 H12 C12 N10"
_cell_length_a       5.320567739831012
_cell_length_b       7.605272489590881
_cell_length_c       10.745751766666878
_cell_angle_alpha    89.9924549399032
_cell_angle_beta     89.9922670323645
_cell_angle_gamma    90.02327610829145

_space_group_name_H-M_alt    "P 1"
_space_group_IT_number       1

loop_
  _space_group_symop_operation_xyz
  'x, y, z'

loop_
  _atom_site_type_symbol
  _atom_site_label
  _atom_site_symmetry_multiplicity
  _atom_site_fract_x
  _atom_site_fract_y
  _atom_site_fract_z
  _atom_site_occupancy
  Li  Li1       1.0  0.8809058362100542  0.7500027544515715  0.750004361402887  1.0000
  Li  Li2       1.0  0.11909689989508372  0.25001826716810877  0.24999126596397048  1.0000
  H   H1        1.0  0.06965576288737199  0.7500792090321724  0.5224817440707454  1.0000
  H   H2        1.0  0.06966562405202131  0.7501192024557639  0.9775285591655702  1.0000
  H   H3        1.0  0.9303263155166093  0.24997074027115215  0.4775092301807504  1.0000
  H   H4        1.0  0.9303258150372289  0.2498650019331805  0.022468929022679197  1.0000
  H   H5        1.0  0.2355079378978147  0.8677425320357625  0.40400724393357723  1.0000
  H   H6        1.0  0.2353199693585424  0.6324931017324003  0.09605714357105907  1.0000
  H   H7        1.0  0.7646075675165134  0.3675810512034587  0.5960186512664833  1.0000
  H   H8        1.0  0.7645305016823017  0.1322319137320207  0.9039984836843756  1.0000
  H   H9        1.0  0.7645192420343035  0.13230741457484638  0.5960032735536913  1.0000
  H   H10       1.0  0.7645887696796336  0.36750687275054617  0.9039719839709263  1.0000
  H   H11       1.0  0.23541022044253176  0.6324688984810077  0.4039751152837923  1.0000
  H   H12       1.0  0.23545718403523352  0.8677641240861645  0.0960008657235178  1.0000
  C   C1        1.0  0.19036118883463624  0.1013320119081271  0.7499908275989569  1.0000
  C   C2        1.0  0.19020409894461215  0.3987191359125645  0.7499972701087713  1.0000
  C   C3        1.0  0.8097610361622002  0.6012769033441998  0.24999184238107824  1.0000
  C   C4        1.0  0.8097280032775132  0.898683753570914  0.24999921733934372  1.0000
  C   C5        1.0  0.46056326832206906  0.7500334508918198  0.5396027941883474  1.0000
  C   C6        1.0  0.46055807607503846  0.7500420953838896  0.9604230590350795  1.0000
  C   C7        1.0  0.5394300626096963  0.24998230802150798  0.46040772262112023  1.0000
  C   C8        1.0  0.5394370776831965  0.24987373049972203  0.0395995550021198  1.0000
  C   C9        1.0  0.23790732304892262  0.7500756279744035  0.4632467248074619  1.0000
  C   C10       1.0  0.23782418407026998  0.7501154350993245  0.036783298568757096  1.0000
  C   C11       1.0  0.7621010640975145  0.24996511824461717  0.5367423885546359  1.0000
  C   C12       1.0  0.7621503276914723  0.24985561712222895  0.9632290789097128  1.0000
  N   N1        1.0  0.3105038551346126  0.2500622488324638  0.7499971207720151  1.0000
  N   N2        1.0  0.6894970073243344  0.7499692919415465  0.24999757603176678  1.0000
  N   N3        1.0  0.0931769045715356  0.9620560842559908  0.749987213807742  1.0000
  N   N4        1.0  0.0928837481703653  0.5379213416993734  0.7499948909982308  1.0000
  N   N5        1.0  0.9070437924838473  0.46206154927536847  0.249986776085656  1.0000
  N   N6        1.0  0.9069743035189007  0.03794259036216369  0.2499981788903511  1.0000
  N   N7        1.0  0.6407794539600786  0.7499655418419664  0.6008657955450047  1.0000
  N   N8        1.0  0.6407901926269872  0.749957711155666  0.8991408855405821  1.0000
  N   N9        1.0  0.35922137762304374  0.250012087483789  0.39913634573624523  1.0000
  N   N10       1.0  0.35918804277754657  0.24994628241759634  0.10087149158577802  1.0000
