data_image0
_chemical_formula_structural       Cu4H68C68N20O20
_chemical_formula_sum              "Cu4 H68 C68 N20 O20"
_cell_length_a       6.2297609980083175
_cell_length_b       14.752585375204339
_cell_length_c       25.50817284656521
_cell_angle_alpha    106.69382542537618
_cell_angle_beta     90.00019592679175
_cell_angle_gamma    89.99996578663368

_space_group_name_H-M_alt    "P 1"
_space_group_IT_number       1

loop_
  _space_group_symop_operation_xyz
  'x, y, z'

loop_
  _atom_site_type_symbol
  _atom_site_label
  _atom_site_symmetry_multiplicity
  _atom_site_fract_x
  _atom_site_fract_y
  _atom_site_fract_z
  _atom_site_occupancy
  Cu  Cu1       1.0  0.7590063354496621  0.5533268105399429  0.675317913399489  1.0000
  Cu  Cu2       1.0  0.2589995861323899  0.44667292148111665  0.8246821613826539  1.0000
  Cu  Cu3       1.0  0.24099199160589538  0.4466727719793936  0.32468108081476993  1.0000
  Cu  Cu4       1.0  0.7409907149417803  0.5533266640888712  0.17531800942768427  1.0000
  H   H1        1.0  0.3909573499165403  0.7478159211824718  0.7588331456079659  1.0000
  H   H2        1.0  0.8909511516323859  0.2521831287717404  0.7411657444485513  1.0000
  H   H3        1.0  0.6090409771361252  0.25218366031969447  0.2411654564064918  1.0000
  H   H4        1.0  0.10904396503534029  0.7478150414536846  0.2588341923530848  1.0000
  H   H5        1.0  0.3765218396895023  0.6230519471180997  0.7488849990644154  1.0000
  H   H6        1.0  0.8765171755280573  0.37694851606342183  0.7511145052918167  1.0000
  H   H7        1.0  0.6234764873721018  0.37694834510812564  0.25111489655478886  1.0000
  H   H8        1.0  0.12347633594189487  0.6230503618343732  0.24888554851450095  1.0000
  H   H9        1.0  0.6325577665304961  0.6193729660709691  0.8056232091849012  1.0000
  H   H10       1.0  0.13255402307041209  0.38062744412648186  0.6943760938656709  1.0000
  H   H11       1.0  0.36743895532680426  0.3806259087756558  0.1943756680233548  1.0000
  H   H12       1.0  0.8674378832020153  0.6193728491162176  0.3056241939506776  1.0000
  H   H13       1.0  0.80659977762717  0.7190319517373354  0.8202969835794605  1.0000
  H   H14       1.0  0.3065975967591257  0.28096920698282446  0.6797037566866067  1.0000
  H   H15       1.0  0.19339854943103765  0.2809669241266377  0.17970228582925069  1.0000
  H   H16       1.0  0.6933959147139745  0.719030379604682  0.32029680632485474  1.0000
  H   H17       1.0  0.7515516833543996  0.7499226666056842  0.6833446647212326  1.0000
  H   H18       1.0  0.2515435538494799  0.2500806021589169  0.816655988935885  1.0000
  H   H19       1.0  0.2484498540945452  0.2500776225693713  0.3166540542998959  1.0000
  H   H20       1.0  0.748456378416911  0.7499225227919837  0.18334515910495236  1.0000
  H   H21       1.0  0.9732603299856064  0.7341525445296213  0.7223244539854576  1.0000
  H   H22       1.0  0.4732548074248939  0.2658507744203433  0.7776771670143887  1.0000
  H   H23       1.0  0.026737997072608297  0.2658463313343518  0.2776748154232465  1.0000
  H   H24       1.0  0.5267435196415704  0.7341551802033662  0.2223240568473698  1.0000
  H   H25       1.0  0.4712441786595746  0.875075366876409  0.7250903577980664  1.0000
  H   H26       1.0  0.9712435169249288  0.1249237056009775  0.7749105595080934  1.0000
  H   H27       1.0  0.5287557536055871  0.1249242197117937  0.2749102052160453  1.0000
  H   H28       1.0  0.02876123093840729  0.8750794203676194  0.22509098073452796  1.0000
  H   H29       1.0  0.39645924935708615  0.027364176272484997  0.7935226361914971  1.0000
  H   H30       1.0  0.896464120989904  0.9726348769121812  0.7064770428090554  1.0000
  H   H31       1.0  0.603548708889967  0.9726368226101555  0.20647698423722716  1.0000
  H   H32       1.0  0.10354223206591229  0.0273689546947864  0.2935238300399803  1.0000
  H   H33       1.0  0.5400884273099534  0.10157744269726979  0.9207499852702056  1.0000
  H   H34       1.0  0.04009170916395279  0.8984243658150322  0.5792506520926182  1.0000
  H   H35       1.0  0.45992274133818256  0.8984214352024367  0.07925006854340204  1.0000
  H   H36       1.0  0.9599114334992079  0.10158088215384  0.4207508469655821  1.0000
  H   H37       1.0  0.5260023854546175  0.16116535990352074  0.8696902292174257  1.0000
  H   H38       1.0  0.0260097362114138  0.8388343204980516  0.630309261108394  1.0000
  H   H39       1.0  0.4740087831879761  0.8388342236343931  0.13030915720192834  1.0000
  H   H40       1.0  0.9739934064486062  0.1611702187811019  0.36969172874466233  1.0000
  H   H41       1.0  0.7747521427933249  0.15268313742707557  0.9020751366693887  1.0000
  H   H42       1.0  0.27475739506712665  0.8473187200154157  0.5979249099265401  1.0000
  H   H43       1.0  0.22525902585240934  0.8473171548005497  0.09792475895510928  1.0000
  H   H44       1.0  0.7252457475866122  0.15268440188431498  0.4020750615162356  1.0000
  H   H45       1.0  0.9719000615057637  0.9982585649993043  0.8807397224059201  1.0000
  H   H46       1.0  0.47190871205395973  0.0017447556911207997  0.619262681876954  1.0000
  H   H47       1.0  0.028107896731619095  0.0017396001416613998  0.11925825340202317  1.0000
  H   H48       1.0  0.5281024566014522  0.9982583702781724  0.3807388583683177  1.0000
  H   H49       1.0  0.04632164798815099  0.8445889118582881  0.8125584902330657  1.0000
  H   H50       1.0  0.5463228511052022  0.15541431945563036  0.6874447394816912  1.0000
  H   H51       1.0  0.9536798894576463  0.15541066862705577  0.18743971958291883  1.0000
  H   H52       1.0  0.4536867123579781  0.8445888085478331  0.3125575851625086  1.0000
  H   H53       1.0  0.806149209574535  0.3270349326444234  0.40601377927072946  1.0000
  H   H54       1.0  0.30614507720387246  0.6729638160048808  0.093987600928223  1.0000
  H   H55       1.0  0.19386035387343267  0.6729660672555583  0.59398623335845  1.0000
  H   H56       1.0  0.6938500394722951  0.327033649599521  0.9060133954674612  1.0000
  H   H57       1.0  0.49888255978489576  0.3681548571896086  0.4588823426398604  1.0000
  H   H58       1.0  0.9988759527901365  0.6318453476452105  0.04111903840217215  1.0000
  H   H59       1.0  0.5011253984539579  0.6318475539865956  0.5411163352001651  1.0000
  H   H60       1.0  0.0011159534931408997  0.3681528266485614  0.9588824671973271  1.0000
  H   H61       1.0  0.3803554010868169  0.42181393441658327  0.554963588358973  1.0000
  H   H62       1.0  0.8803516450767362  0.5781829983551248  0.945038079532736  1.0000
  H   H63       1.0  0.6196429259834773  0.5781863608611602  0.4450374838596218  1.0000
  H   H64       1.0  0.11964186639537638  0.4218137575422248  0.054962015457341785  1.0000
  H   H65       1.0  0.2228636275718188  0.49500172313747026  0.6481901151812366  1.0000
  H   H66       1.0  0.7228602273180514  0.5049958820855451  0.8518111475624223  1.0000
  H   H67       1.0  0.7771298839039247  0.5049971567946727  0.351810723024677  1.0000
  H   H68       1.0  0.2771332841482632  0.4950008717774638  0.1481881630280597  1.0000
  C   C1        1.0  0.4518953611110774  0.6787434059704652  0.7342656678192228  1.0000
  C   C2        1.0  0.9518910102769379  0.3212577822704432  0.7657344079364563  1.0000
  C   C3        1.0  0.5481013607435656  0.3212561755315305  0.26573293419457394  1.0000
  C   C4        1.0  0.04810250119905388  0.6787418053342335  0.23426654727479954  1.0000
  C   C5        1.0  0.3961977701873493  0.6602432162437993  0.6738498864171446  1.0000
  C   C6        1.0  0.8961926744148769  0.33975512819328924  0.8261492831583936  1.0000
  C   C7        1.0  0.6037989516694608  0.3397542432577509  0.3261487567804195  1.0000
  C   C8        1.0  0.1038008370574843  0.6602423353766013  0.17385092883703376  1.0000
  C   C9        1.0  0.7622110632134776  0.6533649870185556  0.7890215215565917  1.0000
  C   C10       1.0  0.26220601925163567  0.34663616206094616  0.7109791820811111  1.0000
  C   C11       1.0  0.23778726384257706  0.3466360108458701  0.2109777066683591  1.0000
  C   C12       1.0  0.7377890974197212  0.6533641321992717  0.2890214979363534  1.0000
  C   C13       1.0  0.9495199907821499  0.5838051627731814  0.777566954955816  1.0000
  C   C14       1.0  0.449514994484403  0.4161960280032915  0.7224342954389654  1.0000
  C   C15       1.0  0.050475125876637585  0.41619229672819097  0.22243168824108037  1.0000
  C   C16       1.0  0.550476911788273  0.5838049729119488  0.2775661093827252  1.0000
  C   C17       1.0  0.8016277463034811  0.7512286517883595  0.7248701617161116  1.0000
  C   C18       1.0  0.3016222159747032  0.2487725068687894  0.7751309666457188  1.0000
  C   C19       1.0  0.19837058074918448  0.24877092971381387  0.27512844029835287  1.0000
  C   C20       1.0  0.6983761110965644  0.7512306190991112  0.2248705735942593  1.0000
  C   C21       1.0  0.7596038762060643  0.8463545559840641  0.7650906640374373  1.0000
  C   C22       1.0  0.2596043387051594  0.15364518125341678  0.734911372239729  1.0000
  C   C23       1.0  0.24039766124263906  0.15364502551845052  0.234907937978349  1.0000
  C   C24       1.0  0.7404020143641501  0.8463558247492529  0.2650909935869166  1.0000
  C   C25       1.0  0.5792517682528171  0.9002492043325745  0.7599921902540743  1.0000
  C   C26       1.0  0.07925240026205667  0.09975049068449951  0.7400085206068994  1.0000
  C   C27       1.0  0.420752979595548  0.09975250120508147  0.2400071549788692  1.0000
  C   C28       1.0  0.9207587683904563  0.9002526342676233  0.25999262743857793  1.0000
  C   C29       1.0  0.5374847251747426  0.9868640394801386  0.7985745807124972  1.0000
  C   C30       1.0  0.03748975413262199  0.0131363541389717  0.7014262126917146  1.0000
  C   C31       1.0  0.46252162786874607  0.0131376650405173  0.2014243723213127  1.0000
  C   C32       1.0  0.9625149937307211  0.986866771829625  0.29857532755090677  1.0000
  C   C33       1.0  0.675134838018181  0.022865587912029604  0.8432585169398905  1.0000
  C   C34       1.0  0.1751407323864598  0.9771355442917623  0.6567428992512916  1.0000
  C   C35       1.0  0.3248715150332585  0.9771339966425217  0.15674126167726846  1.0000
  C   C36       1.0  0.824868831068528  0.02286899600526481  0.3432584828042097  1.0000
  C   C37       1.0  0.6266259889449515  0.1145062255256164  0.8859112194463137  1.0000
  C   C38       1.0  0.1266314133100011  0.8854956017811657  0.6140894893235327  1.0000
  C   C39       1.0  0.37338517970923135  0.8854933620809787  0.11408973577223233  1.0000
  C   C40       1.0  0.8733733345453911  0.11450964415353582  0.38591122533573236  1.0000
  C   C41       1.0  0.8591009683327469  0.9703479283680921  0.8472063773237649  1.0000
  C   C42       1.0  0.359106855132751  0.029653244806681297  0.6527955828661831  1.0000
  C   C43       1.0  0.1409069899077764  0.029650945462584802  0.1527921076893222  1.0000
  C   C44       1.0  0.6408978927397727  0.9703512995585089  0.34720736798652757  1.0000
  C   C45       1.0  0.9005325272461633  0.8834904634993563  0.8088959279269261  1.0000
  C   C46       1.0  0.4005372230578317  0.11651072070775108  0.6911068508492164  1.0000
  C   C47       1.0  0.0994722205959206  0.116509824658884  0.19110239889572964  1.0000
  C   C48       1.0  0.5994739455997333  0.8834902832610964  0.30889473057981576  1.0000
  C   C49       1.0  0.6530443213085986  0.3798781891836498  0.48046307107782127  1.0000
  C   C50       1.0  0.1530375761665113  0.620121234903728  0.019538691991272124  1.0000
  C   C51       1.0  0.34695882134464984  0.6201235173710059  0.5195366663542558  1.0000
  C   C52       1.0  0.8469559353118824  0.3798769383730373  0.9804624214090935  1.0000
  C   C53       1.0  0.8561312791020086  0.43061330720335167  0.556192446842516  1.0000
  C   C54       1.0  0.35612768051410637  0.56938362030737  0.9438092010608159  1.0000
  C   C55       1.0  0.1438670479646476  0.5693848640395986  0.4438078821602431  1.0000
  C   C56       1.0  0.6438658309553558  0.4306138422453501  0.056190618734809995  1.0000
  C   C57       1.0  0.04518664901679158  0.40122374282106676  0.5260307946155862  1.0000
  C   C58       1.0  0.5451881000641592  0.5987738217802061  0.9739695371209789  1.0000
  C   C59       1.0  0.9548164936441592  0.5987751360949503  0.4739696513944978  1.0000
  C   C60       1.0  0.4548102269935654  0.4012236387386849  0.026029498277040382  1.0000
  C   C61       1.0  0.04090038256476449  0.35597895000691443  0.4681889316480152  1.0000
  C   C62       1.0  0.5408952219953918  0.6440197430698262  0.03181301408103109  1.0000
  C   C63       1.0  0.9591027600998243  0.644022052943889  0.5318122575779114  1.0000
  C   C64       1.0  0.4590966842847449  0.3559777225342274  0.9681879823133243  1.0000
  C   C65       1.0  0.126620525210015  0.4680465499649245  0.6118545205330577  1.0000
  C   C66       1.0  0.6266176146788425  0.5319510353732113  0.8881470549959616  1.0000
  C   C67       1.0  0.8733761966680544  0.5319537473469822  0.3881473360844723  1.0000
  C   C68       1.0  0.3733775019857433  0.4680464261625091  0.11185237260052358  1.0000
  N   N1        1.0  0.6861002089101899  0.6707732046837619  0.7382415840028926  1.0000
  N   N2        1.0  0.18609594560176387  0.32922651048662743  0.7617580384222578  1.0000
  N   N3        1.0  0.3138965129473519  0.329226377835404  0.2617574102106984  1.0000
  N   N4        1.0  0.8138975658655384  0.6707730740665382  0.23824174018960775  1.0000
  N   N5        1.0  0.8289304752899652  0.35173297830717604  0.44893197243386146  1.0000
  N   N6        1.0  0.32892575200453683  0.6482664839794195  0.051069935767863166  1.0000
  N   N7        1.0  0.17107587775882385  0.6482673129027461  0.5510675309888455  1.0000
  N   N8        1.0  0.6710661542787334  0.3517316903143525  0.9489315698316361  1.0000
  N   N9        1.0  0.6548409003076116  0.41817974195710406  0.534054803630923  1.0000
  N   N10       1.0  0.15483600185388005  0.5818171408200145  0.9659462859780703  1.0000
  N   N11       1.0  0.3451622423473068  0.5818184272520242  0.4659447409742227  1.0000
  N   N12       1.0  0.8451559044207072  0.4181810304222325  0.034054043022038585  1.0000
  N   N13       1.0  0.2131724757296212  0.42546184628125167  0.5626110779663662  1.0000
  N   N14       1.0  0.7131654027120148  0.5745343425087268  0.9373903349682634  1.0000
  N   N15       1.0  0.7868322721293453  0.5745370326349358  0.4373893680443856  1.0000
  N   N16       1.0  0.2868265035620823  0.4254624133884448  0.06260976002115369  1.0000
  N   N17       1.0  0.9117758295388538  0.4729342278953652  0.6100920071651927  1.0000
  N   N18       1.0  0.4117715085918049  0.5270620040276341  0.8899095696473864  1.0000
  N   N19       1.0  0.088219287126222  0.52706464898543  0.3899076544419913  1.0000
  N   N20       1.0  0.5882203976825338  0.4729354595420788  0.11009064234738018  1.0000
  O   O1        1.0  0.051248274697485385  0.5725538629198114  0.817468674588433  1.0000
  O   O2        1.0  0.5512457194123781  0.42744653368764324  0.6825321301695908  1.0000
  O   O3        1.0  0.9487436315676802  0.42744218225330843  0.18253012679624447  1.0000
  O   O4        1.0  0.4487461868576403  0.572555173882961  0.31746799945764786  1.0000
  O   O5        1.0  0.5154702033415502  0.5999021112736429  0.6395974662144468  1.0000
  O   O6        1.0  0.015468878760685796  0.40009686018423446  0.8604022906116598  1.0000
  O   O7        1.0  0.4845281237111151  0.40009747022853054  0.3604011358000179  1.0000
  O   O8        1.0  0.9845310535044758  0.5999027264039684  0.139598272402452  1.0000
  O   O9        1.0  0.23850137752586414  0.701684649199585  0.6605747751867665  1.0000
  O   O10       1.0  0.7384997607014936  0.2983143666275368  0.8394235968733665  1.0000
  O   O11       1.0  0.7614937391334137  0.2983142256468696  0.33942410202082135  1.0000
  O   O12       1.0  0.2615017767582941  0.7016838035985914  0.16057633993091966  1.0000
  O   O13       1.0  0.9870764752949839  0.5379128830268057  0.7269933450091698  1.0000
  O   O14       1.0  0.487070540772919  0.46208902154428694  0.7730072689805708  1.0000
  O   O15       1.0  0.012918641363803796  0.46208457647456663  0.27300529818772645  1.0000
  O   O16       1.0  0.512921365503395  0.5379141034057398  0.2269938790569626  1.0000
  O   O17       1.0  0.19310826594264088  0.32401252539176534  0.4369292716857487  1.0000
  O   O18       1.0  0.6931019061442285  0.6759840777237685  0.06307244862053099  1.0000
  O   O19       1.0  0.8069012975132706  0.6759863545421183  0.5630715665267871  1.0000
  O   O20       1.0  0.306891605336574  0.32401268122509214  0.9369288229689372  1.0000
