data_image0
_chemical_formula_structural       Cu2H28C38N4O6
_chemical_formula_sum              "Cu2 H28 C38 N4 O6"
_cell_length_a       8.72320228500961
_cell_length_b       10.388948997481885
_cell_length_c       11.370236824053206
_cell_angle_alpha    79.04409062268584
_cell_angle_beta     87.97302165221495
_cell_angle_gamma    81.7629032614648

_space_group_name_H-M_alt    "P 1"
_space_group_IT_number       1

loop_
  _space_group_symop_operation_xyz
  'x, y, z'

loop_
  _atom_site_type_symbol
  _atom_site_label
  _atom_site_symmetry_multiplicity
  _atom_site_fract_x
  _atom_site_fract_y
  _atom_site_fract_z
  _atom_site_occupancy
  Cu  Cu1       1.0  0.43297686522658574  0.9249496079644994  0.3965213119678451  1.0000
  Cu  Cu2       1.0  0.567014305740919  0.07504236288524878  0.6034742086386444  1.0000
  H   H1        1.0  0.3370799615710993  0.7517508012545945  0.6126383639855106  1.0000
  H   H2        1.0  0.6629681914514832  0.24829694579533165  0.3873018155722932  1.0000
  H   H3        1.0  0.4370841439975592  0.5330755940522636  0.7433663449351401  1.0000
  H   H4        1.0  0.5628962346027323  0.4669347383927229  0.25665295309593017  1.0000
  H   H5        1.0  0.6879041426241415  0.4100583014705208  0.6893137694685691  1.0000
  H   H6        1.0  0.31214779518199987  0.5899024544934832  0.310694249111819  1.0000
  H   H7        1.0  0.830490608110452  0.5098365131571112  0.5032344935428767  1.0000
  H   H8        1.0  0.16953636311759374  0.490187335507734  0.49670075347386705  1.0000
  H   H9        1.0  0.7098649720684946  0.7253272103958179  0.3810307495841839  1.0000
  H   H10       1.0  0.2900528787924941  0.2747353899986108  0.6189550578878665  1.0000
  H   H11       1.0  0.20288315386979872  0.9799184234611287  0.7477028946349549  1.0000
  H   H12       1.0  0.7971092342773644  0.020061487969350394  0.2523068804210311  1.0000
  H   H13       1.0  0.9460647594511826  0.1141859173966111  0.7773482730873553  1.0000
  H   H14       1.0  0.05385935388343916  0.8858369351956197  0.22272564780311652  1.0000
  H   H15       1.0  0.8052024911292434  0.2540490543168231  0.6057555662102202  1.0000
  H   H16       1.0  0.19476471240872686  0.7459563840003153  0.3942500864484302  1.0000
  H   H17       1.0  0.9220235723247613  0.26753632186988335  0.39957335515984477  1.0000
  H   H18       1.0  0.07806763136508009  0.7324177453182228  0.6004465818380709  1.0000
  H   H19       1.0  0.11853722566889498  0.22422177331193885  0.2720551948032721  1.0000
  H   H20       1.0  0.881486613646871  0.7757811768128204  0.7278862520649483  1.0000
  H   H21       1.0  0.5751423124726286  0.17447452038190647  0.2228575837945286  1.0000
  H   H22       1.0  0.4248578589175763  0.8255160190851354  0.7771765335006862  1.0000
  H   H23       1.0  0.6647197922242255  0.22310888059806186  0.007609688856341301  1.0000
  H   H24       1.0  0.33527014181130715  0.7769004169630234  0.9924199707692126  1.0000
  H   H25       1.0  0.2419176387895803  0.12013250132191895  0.8952101098289729  1.0000
  H   H26       1.0  0.7580291036900633  0.8798588424970217  0.10479776479966317  1.0000
  H   H27       1.0  0.14857694652368988  0.07935381651324039  0.107918804534151  1.0000
  H   H28       1.0  0.8514561577082417  0.9206321201372841  0.8921148142705065  1.0000
  C   C1        1.0  0.44464239732247524  0.692599915905106  0.5923476917560534  1.0000
  C   C2        1.0  0.555392119441244  0.30737546777613284  0.4076629809005468  1.0000
  C   C3        1.0  0.5017484890327069  0.5727702443265625  0.6642206519759667  1.0000
  C   C4        1.0  0.49832465658194997  0.4272032441093073  0.3358126094158322  1.0000
  C   C5        1.0  0.6428870469201513  0.5047503869729723  0.6338422566518744  1.0000
  C   C6        1.0  0.35718163000898073  0.49521346448391745  0.36616901177711714  1.0000
  C   C7        1.0  0.7202472484050374  0.5593154972210569  0.5311190475866211  1.0000
  C   C8        1.0  0.2798099541415553  0.4406671599634604  0.46888340430079717  1.0000
  C   C9        1.0  0.6552343756528598  0.6791733453792972  0.46271422501945375  1.0000
  C   C10       1.0  0.3447850185243837  0.3208097970099643  0.5372966265861904  1.0000
  C   C11       1.0  0.20586014545889236  0.04334319239545439  0.5560483340304784  1.0000
  C   C12       1.0  0.794135561491899  0.956673781460388  0.443931460815179  1.0000
  C   C13       1.0  0.1384583791668419  0.0414074084371236  0.6720169237217704  1.0000
  C   C14       1.0  0.8615422385899264  0.9586111506543626  0.3279949695710513  1.0000
  C   C15       1.0  0.9980482851723166  0.11703679238014787  0.6882839741402477  1.0000
  C   C16       1.0  0.0019115041433081903  0.8829828205640806  0.3117644890779657  1.0000
  C   C17       1.0  0.9173239088235404  0.1989271937580241  0.5902352219456191  1.0000
  C   C18       1.0  0.08266620998028174  0.8010802320044443  0.40978682206446143  1.0000
  C   C19       1.0  0.9816015020227481  0.20426695822160912  0.4771028368402384  1.0000
  C   C20       1.0  0.018413477619993974  0.7957022510461442  0.5229104775999217  1.0000
  C   C21       1.0  0.1249342967847653  0.12844856260815615  0.4567838096391911  1.0000
  C   C22       1.0  0.8750446315185555  0.8715317767631415  0.5431850651697587  1.0000
  C   C23       1.0  0.18603824201259295  0.14732585252573213  0.3376182636442877  1.0000
  C   C24       1.0  0.813899946678788  0.8527027059578245  0.6623398268409699  1.0000
  C   C25       1.0  0.3569888221758859  0.12512818917135599  0.17749307071749598  1.0000
  C   C26       1.0  0.643000558338528  0.8748659411821436  0.8224880882724791  1.0000
  C   C27       1.0  0.5018093133627063  0.16714028896439  0.14964704822966007  1.0000
  C   C28       1.0  0.4981912199829353  0.8328576608150582  0.8503524084822446  1.0000
  C   C29       1.0  0.5511742940795373  0.19309542044796754  0.0312433976715241  1.0000
  C   C30       1.0  0.4487961127111718  0.8069050690535913  0.9687647070033165  1.0000
  C   C31       1.0  0.4594419183271512  0.17349612098119843  0.9390565645680056  1.0000
  C   C32       1.0  0.5405530215854026  0.8265119548781141  0.06092208586934331  1.0000
  C   C33       1.0  0.31240117844291854  0.13628490709588445  0.9668590889733153  1.0000
  C   C34       1.0  0.6875812424086477  0.8637289964164051  0.03311819978741686  1.0000
  C   C35       1.0  0.260207439451591  0.11374015886472216  0.08529179219567601  1.0000
  C   C36       1.0  0.7398012128106757  0.8862792315194522  0.9146659993540636  1.0000
  C   C37       1.0  0.5303788668848242  0.17661262082289395  0.8164023568751162  1.0000
  C   C38       1.0  0.4696177333033873  0.8233891194259113  0.18360630179603285  1.0000
  N   N1        1.0  0.5200678082917133  0.7452841353653169  0.4934623952290522  1.0000
  N   N2        1.0  0.47992916777080546  0.2546811681670817  0.5065337767158198  1.0000
  N   N3        1.0  0.314936645154539  0.08759145083813989  0.2998111002228683  1.0000
  N   N4        1.0  0.6849801857026705  0.912408187281123  0.700147289645841  1.0000
  O   O1        1.0  0.34020850534355435  0.9708876596657844  0.5453446395551609  1.0000
  O   O2        1.0  0.6598177881036804  0.0291299779041552  0.4546813798686955  1.0000
  O   O3        1.0  0.6565666481828244  0.21993184304456284  0.7918307572050622  1.0000
  O   O4        1.0  0.3434277636108122  0.7800611668770824  0.20816358900582801  1.0000
  O   O5        1.0  0.4548857645646791  0.12465262168298347  0.7448761828499784  1.0000
  O   O6        1.0  0.5451129339769379  0.8753759445947646  0.25512621894803544  1.0000
