data_image0
_chemical_formula_structural       Zn4H32C81S2N14O38
_chemical_formula_sum              "Zn4 H32 C81 S2 N14 O38"
_cell_length_a       16.512931781166724
_cell_length_b       17.870119308120053
_cell_length_c       30.59408849460911
_cell_angle_alpha    90.33061047308823
_cell_angle_beta     89.97324015180028
_cell_angle_gamma    89.87249153092947

_space_group_name_H-M_alt    "P 1"
_space_group_IT_number       1

loop_
  _space_group_symop_operation_xyz
  'x, y, z'

loop_
  _atom_site_type_symbol
  _atom_site_label
  _atom_site_symmetry_multiplicity
  _atom_site_fract_x
  _atom_site_fract_y
  _atom_site_fract_z
  _atom_site_occupancy
  Zn  Zn1       1.0  0.5841810118484291  0.5023735589627663  0.5009588677042558  1.0000
  Zn  Zn2       1.0  0.41528525928423216  0.4989915726839056  0.5013505152183342  1.0000
  Zn  Zn3       1.0  0.4164328950243288  0.5035355017714593  0.9179763392528173  1.0000
  Zn  Zn4       1.0  0.5847158132663566  0.49927467489987265  0.9161816123314991  1.0000
  H   H1        1.0  0.2827543320819288  0.5644192203372213  0.5559859461605042  1.0000
  H   H2        1.0  0.13039483583311548  0.564833614760161  0.556413174318088  1.0000
  H   H3        1.0  0.28974319659874936  0.42108519256149174  0.4487513522947566  1.0000
  H   H4        1.0  0.710123679074556  0.5910406849171395  0.5481118164184124  1.0000
  H   H5        1.0  0.7173108807250799  0.4186650465685631  0.4566943980848279  1.0000
  H   H6        1.0  0.8699136073839923  0.4155985535974125  0.4579383591598542  1.0000
  H   H7        1.0  0.6248399239827974  0.7436387043127226  0.5036561960655205  1.0000
  H   H8        1.0  0.6182707108792939  0.8835934611536301  0.5041154999093891  1.0000
  H   H9        1.0  0.3650878192533114  0.7345047838882549  0.49576949670318976  1.0000
  H   H10       1.0  0.6389817992651956  0.26363201736881337  0.4994508391250036  1.0000
  H   H11       1.0  0.37930334939293425  0.26134512240285085  0.5087870048066563  1.0000
  H   H12       1.0  0.3814129113869242  0.12119366099166476  0.5070158375678915  1.0000
  H   H13       1.0  0.6274083552982573  0.4967254924236782  0.7668263161936294  1.0000
  H   H14       1.0  0.37632883906043446  0.5081801861563449  0.05903110534356409  1.0000
  H   H15       1.0  0.3818717894857002  0.5091790039202593  0.1408813490620275  1.0000
  H   H16       1.0  0.6363873736789073  0.498036543620138  0.05435288145851299  1.0000
  H   H17       1.0  0.36360618433805314  0.4917388866752077  0.36359634443154215  1.0000
  H   H18       1.0  0.62343554873744  0.5057948805919279  0.3606409455016859  1.0000
  H   H19       1.0  0.619575640940873  0.5089028644654972  0.2787667355360952  1.0000
  H   H20       1.0  0.7185905902644976  0.5794240669837761  0.8706904616400662  1.0000
  H   H21       1.0  0.8712102917805851  0.5813570067313731  0.8723261455574303  1.0000
  H   H22       1.0  0.7096566969988203  0.4185356326435965  0.9678671864494532  1.0000
  H   H23       1.0  0.2898334506487643  0.5889471743798822  0.8703550742730144  1.0000
  H   H24       1.0  0.2839404760117575  0.42036381213371504  0.9630317654693527  1.0000
  H   H25       1.0  0.131284877790975  0.41980719488105916  0.9636400876379766  1.0000
  H   H26       1.0  0.374420861657633  0.7447403754582069  0.9150117976878531  1.0000
  H   H27       1.0  0.38045661218548327  0.8848124550348188  0.9157447294790868  1.0000
  H   H28       1.0  0.6344954939022786  0.7354469946474534  0.9187817897501204  1.0000
  H   H29       1.0  0.36337553577617854  0.26697655705319084  0.9194884221759023  1.0000
  H   H30       1.0  0.6234405419418323  0.258996893504019  0.9156424634105986  1.0000
  H   H31       1.0  0.6183361788467109  0.11882625679799472  0.9165895918623332  1.0000
  H   H32       1.0  0.33194734013020627  0.5898390791102557  0.6835500128911247  1.0000
  C   C1        1.0  0.4984861615261949  0.6462887486851797  0.4992519602733906  1.0000
  C   C2        1.0  0.4971674046309501  0.5039543656989948  0.5858974294812357  1.0000
  C   C3        1.0  0.5078980085011934  0.35524585928261126  0.5037345618824388  1.0000
  C   C4        1.0  0.4958827718084038  0.49593876740522796  0.4161673363769793  1.0000
  C   C5        1.0  0.5011167775156978  0.6476049945226025  0.9167266037097689  1.0000
  C   C6        1.0  0.5018716368720251  0.5009666879016663  0.8315668456145247  1.0000
  C   C7        1.0  0.4963832494968372  0.3553938621379444  0.9172391686044746  1.0000
  C   C8        1.0  0.5031530968193891  0.5013493733913491  0.002570288906120799  1.0000
  C   C9        1.0  0.24798148329389136  0.5325517949763849  0.5320565422209284  1.0000
  C   C10       1.0  0.16403341252431858  0.5320360792974482  0.5323935077147297  1.0000
  C   C11       1.0  0.12151243216874967  0.48851875726206356  0.5014072195690318  1.0000
  C   C12       1.0  0.1688631136574656  0.44704236202683484  0.4713479319052069  1.0000
  C   C13       1.0  0.2528538470902078  0.45160365745506664  0.4724402940527526  1.0000
  C   C14       1.0  0.0362055186838788  0.4904844676208241  0.501972723645224  1.0000
  C   C15       1.0  0.96379661949954  0.5006269148897003  0.5071005679563143  1.0000
  C   C16       1.0  0.8785869542186974  0.5033474046691637  0.5067997249537726  1.0000
  C   C17       1.0  0.8310713459355908  0.5529491895573386  0.5322119242584051  1.0000
  C   C18       1.0  0.7470993250019122  0.5524844494539564  0.5288525874759384  1.0000
  C   C19       1.0  0.7522150394249323  0.4564117990120239  0.4775026102857395  1.0000
  C   C20       1.0  0.8360941058750908  0.4545494228106646  0.4785266934044188  1.0000
  C   C21       1.0  0.4954528885569046  0.7301550882867643  0.4997811766150803  1.0000
  C   C22       1.0  0.5667746579335214  0.7725965748465524  0.5022604284595005  1.0000
  C   C23       1.0  0.56324808831544  0.8501184299467965  0.5027303804693942  1.0000
  C   C24       1.0  0.4881943339506379  0.8886379137487309  0.5017121446426884  1.0000
  C   C25       1.0  0.41714790119339534  0.8443998154229178  0.49957458805886995  1.0000
  C   C26       1.0  0.4207438270963593  0.7666968643935377  0.4980590835555318  1.0000
  C   C27       1.0  0.4904238511446409  0.967443479249944  0.5022998388954463  1.0000
  C   C28       1.0  0.5070025518764396  0.034037690572603196  0.5028086848861335  1.0000
  C   C29       1.0  0.5112200444427445  0.11274861978019857  0.5035662157975693  1.0000
  C   C30       1.0  0.5835818780166874  0.15517212543724668  0.501574487885918  1.0000
  C   C31       1.0  0.582339335623331  0.23294669728086603  0.5014250422651472  1.0000
  C   C32       1.0  0.5088277290114361  0.2713659324059136  0.5040524715193583  1.0000
  C   C33       1.0  0.4362990494811143  0.23076969103652084  0.5064938419177735  1.0000
  C   C34       1.0  0.43744234670495535  0.15319159127688659  0.5058025936365168  1.0000
  C   C35       1.0  0.42873371284146344  0.49960970171014896  0.662089418323724  1.0000
  C   C36       1.0  0.5652235028656349  0.4977120115768937  0.755216670633267  1.0000
  C   C37       1.0  0.495136489054957  0.4987770147315019  0.634101416504933  1.0000
  C   C38       1.0  0.4998589031158005  0.49934607395591973  0.7833562537834879  1.0000
  C   C39       1.0  0.5395608170077749  0.4975431111664078  0.71120824909287  1.0000
  C   C40       1.0  0.4545697069993507  0.4993055105623084  0.7064333276803578  1.0000
  C   C41       1.0  0.505822559569573  0.502804848261263  0.0514973676719421  1.0000
  C   C42       1.0  0.434152702359988  0.5063250600505995  0.076129486056054  1.0000
  C   C43       1.0  0.437114556853892  0.507350643808344  0.1214011189890414  1.0000
  C   C44       1.0  0.5119713274945354  0.5063414499777252  0.14400039245320065  1.0000
  C   C45       1.0  0.5833718104199973  0.5035430279721352  0.11832919650355929  1.0000
  C   C46       1.0  0.5803540939340621  0.5009739699424358  0.07295800056864009  1.0000
  C   C47       1.0  0.5094107885121916  0.5066298845886975  0.18997938651469323  1.0000
  C   C48       1.0  0.49290001829987773  0.5061469825671381  0.22889267284242004  1.0000
  C   C49       1.0  0.4895823156064126  0.5046155463867166  0.274851579821771  1.0000
  C   C50       1.0  0.4177321976784328  0.5001903027681036  0.300037310515755  1.0000
  C   C51       1.0  0.4199138431339192  0.49605027273357644  0.345358571463528  1.0000
  C   C52       1.0  0.4940085130336342  0.49827571680260974  0.3672510167256391  1.0000
  C   C53       1.0  0.5660534186284565  0.5035993029704996  0.3431300498989742  1.0000
  C   C54       1.0  0.5639735687115036  0.5058529234618235  0.29786598428499633  1.0000
  C   C55       1.0  0.7530894455405599  0.543544274015602  0.8926325202879255  1.0000
  C   C56       1.0  0.8369866138482394  0.5442653928322656  0.8935313971096264  1.0000
  C   C57       1.0  0.8789942309613039  0.49591062172244443  0.9220495008076951  1.0000
  C   C58       1.0  0.8310790321779464  0.4501735786585569  0.9491835101157022  1.0000
  C   C59       1.0  0.7470473541750237  0.4532334273412388  0.9467843248726736  1.0000
  C   C60       1.0  0.9642862968782707  0.4969182050459651  0.9215753499049766  1.0000
  C   C61       1.0  0.03666406654667039  0.5056506947097787  0.9157212195651779  1.0000
  C   C62       1.0  0.1219198260037331  0.5064001058204894  0.9146694358548969  1.0000
  C   C63       1.0  0.16901625999395972  0.554057003642775  0.8882456812302308  1.0000
  C   C64       1.0  0.2530871826729993  0.551961555469056  0.8904057645418959  1.0000
  C   C65       1.0  0.2487526616451987  0.4579067558999412  0.9423946580478598  1.0000
  C   C66       1.0  0.164812425039031  0.4575188330229524  0.9424727886965483  1.0000
  C   C67       1.0  0.5040060521427067  0.7313483428576361  0.9167336026706536  1.0000
  C   C68       1.0  0.43236367760576405  0.7737430280247961  0.9158270400536423  1.0000
  C   C69       1.0  0.4355885519994445  0.8512117003793165  0.9161054663634187  1.0000
  C   C70       1.0  0.5105726673437018  0.8895434398857487  0.9167579060052444  1.0000
  C   C71       1.0  0.581943059098691  0.8453920167177101  0.9174101691591188  1.0000
  C   C72       1.0  0.5786553955837163  0.7677143888417176  0.9177600623979101  1.0000
  C   C73       1.0  0.508004643587853  0.9682374909197687  0.9171936130084146  1.0000
  C   C74       1.0  0.491098283219415  0.0347896922351509  0.917456467295551  1.0000
  C   C75       1.0  0.4882509281739472  0.11347269173196389  0.9174357270305364  1.0000
  C   C76       1.0  0.4166409198954497  0.15728730041204383  0.918360094110156  1.0000
  C   C77       1.0  0.41941730657514154  0.2349795726888146  0.9186388530765726  1.0000
  C   C78       1.0  0.49385949121585077  0.27167350213671426  0.9174571695993379  1.0000
  C   C79       1.0  0.5657392332820238  0.22963434023481705  0.9165511645963065  1.0000
  C   C80       1.0  0.5630126096283944  0.1521583138787364  0.916889456584002  1.0000
  C   C81       1.0  0.3417508327361248  0.4998057786270067  0.6484110161674579  1.0000
  S   S1        1.0  0.5872262245863169  0.4962428939514253  0.6611914026603285  1.0000
  S   S2        1.0  0.40677259467936  0.4995109967034139  0.756682429132091  1.0000
  N   N1        1.0  0.29133648203857376  0.4936617064507658  0.5022555308241792  1.0000
  N   N2        1.0  0.7086919689916371  0.5045800508525601  0.5022382375247147  1.0000
  N   N3        1.0  0.7091547824131794  0.4984928611014255  0.9186365627595521  1.0000
  N   N4        1.0  0.2918628067699771  0.5044160167710104  0.9168494825765237  1.0000
  N   N5        1.0  0.13209453194274798  0.3978740672961152  0.4379155923450496  1.0000
  N   N6        1.0  0.867884689021352  0.6066125634112112  0.5630424156843148  1.0000
  N   N7        1.0  0.3360999689291048  0.8792739233964538  0.4990300759884646  1.0000
  N   N8        1.0  0.6635070485092882  0.11834695091412327  0.49924138852315275  1.0000
  N   N9        1.0  0.6642094650212798  0.5032833504145912  0.13884896649297215  1.0000
  N   N10       1.0  0.3373125310423859  0.4998356948884819  0.27902547660784893  1.0000
  N   N11       1.0  0.8673950390449576  0.39757111506371257  0.9806780933547186  1.0000
  N   N12       1.0  0.13174498892532677  0.6073977868592237  0.857642368582944  1.0000
  N   N13       1.0  0.6628698908534219  0.8802165028709297  0.9177018099909374  1.0000
  N   N14       1.0  0.3359989867628741  0.12201874905000659  0.9192358025254349  1.0000
  O   O1        1.0  0.5669238093939271  0.6158519845263369  0.5070195706105664  1.0000
  O   O2        1.0  0.4326176259202654  0.6120861014029798  0.4912437909698751  1.0000
  O   O3        1.0  0.4314454373247756  0.5208140845023196  0.5667292363992688  1.0000
  O   O4        1.0  0.5657107333608096  0.4918286154545796  0.5678975151195829  1.0000
  O   O5        1.0  0.44035494320977625  0.3872181469774247  0.5113093417144441  1.0000
  O   O6        1.0  0.5747431815653526  0.3879622038223117  0.49571103969142166  1.0000
  O   O7        1.0  0.5635995931193136  0.5091606929144633  0.434536045157074  1.0000
  O   O8        1.0  0.4294302206800751  0.4813757596771354  0.4354775584840879  1.0000
  O   O9        1.0  0.43157750348404267  0.6173899463225608  0.9133212530877585  1.0000
  O   O10       1.0  0.5684178684153951  0.6132404457782457  0.9202151692093494  1.0000
  O   O11       1.0  0.5712869861779454  0.5065314615946833  0.849488729777583  1.0000
  O   O12       1.0  0.4336657389190037  0.49665594657822254  0.8510628004064528  1.0000
  O   O13       1.0  0.5654002390104083  0.38567709239791276  0.9120329813619392  1.0000
  O   O14       1.0  0.42921626396054086  0.38960309907747603  0.9222824245216472  1.0000
  O   O15       1.0  0.4342539176546437  0.5104294816498721  0.9845972546112235  1.0000
  O   O16       1.0  0.570191623451521  0.49133360349397043  0.9827476767070918  1.0000
  O   O17       1.0  0.05851150764262059  0.3854575149262444  0.44094567936735257  1.0000
  O   O18       1.0  0.1775904352166933  0.37213370826643205  0.4094073413325034  1.0000
  O   O19       1.0  0.9377401404863119  0.593453301425349  0.5755607712501385  1.0000
  O   O20       1.0  0.825799597465128  0.6608076087480725  0.5743922186841104  1.0000
  O   O21       1.0  0.3312705876490866  0.9472951730906445  0.5068940970445439  1.0000
  O   O22       1.0  0.2773124209401914  0.8382211381976532  0.4909718378139728  1.0000
  O   O23       1.0  0.6670484455030703  0.05026556641814039  0.5066396142546522  1.0000
  O   O24       1.0  0.7228076611479182  0.1579552268855906  0.49006686400362287  1.0000
  O   O25       1.0  0.6685456074683315  0.5182852105725714  0.1784058281669232  1.0000
  O   O26       1.0  0.7232051780430594  0.48840285963220237  0.11513663250962479  1.0000
  O   O27       1.0  0.33347222169530966  0.5166214778768322  0.2397839269342086  1.0000
  O   O28       1.0  0.2781893633897567  0.4831454215135694  0.3020204875499104  1.0000
  O   O29       1.0  0.9407444430519051  0.3842888922870671  0.9769465310313024  1.0000
  O   O30       1.0  0.8216825265008296  0.37037058003706136  0.0083571295129516  1.0000
  O   O31       1.0  0.06077225469685739  0.5956591711245592  0.846520052861294  1.0000
  O   O32       1.0  0.1745269040321205  0.6598801369245705  0.8450918350805593  1.0000
  O   O33       1.0  0.6670604639571637  0.9488667324642395  0.9125113099483071  1.0000
  O   O34       1.0  0.7222924587536  0.8384754490739752  0.9229562211726402  1.0000
  O   O35       1.0  0.3317825698895121  0.0538428511982971  0.9118507525237616  1.0000
  O   O36       1.0  0.2768838221058658  0.16296002522500427  0.9272971041912399  1.0000
  O   O37       1.0  0.29677831202910443  0.5569324031667333  0.6663901121048353  1.0000
  O   O38       1.0  0.30942331292326497  0.45392651686080404  0.6249463212009942  1.0000
