data_image0
_chemical_formula_structural       Cd3H30C36N12O14
_chemical_formula_sum              "Cd3 H30 C36 N12 O14"
_cell_length_a       8.889561772652046
_cell_length_b       9.98526768027214
_cell_length_c       13.07516761717959
_cell_angle_alpha    67.59157305941478
_cell_angle_beta     74.84355098360602
_cell_angle_gamma    89.02358413900917

_space_group_name_H-M_alt    "P 1"
_space_group_IT_number       1

loop_
  _space_group_symop_operation_xyz
  'x, y, z'

loop_
  _atom_site_type_symbol
  _atom_site_label
  _atom_site_symmetry_multiplicity
  _atom_site_fract_x
  _atom_site_fract_y
  _atom_site_fract_z
  _atom_site_occupancy
  Cd  Cd1       1.0  0.5000004078723777  0.9999995048060555  0.4999999054142491  1.0000
  Cd  Cd2       1.0  0.6390724403608559  0.6593404698030055  0.6257657718935405  1.0000
  Cd  Cd3       1.0  0.36092791637275223  0.3406589125437164  0.37423413530750343  1.0000
  H   H1        1.0  0.6190166351418257  0.11070437997205573  0.6592156946561899  1.0000
  H   H2        1.0  0.3809847850975104  0.8892939040624127  0.340785095710551  1.0000
  H   H3        1.0  0.2928799020260655  0.8079357624060391  0.9609596782448757  1.0000
  H   H4        1.0  0.7071194147852681  0.19206470638296474  0.03904087456187709  1.0000
  H   H5        1.0  0.3269707396268516  0.26333162188365833  0.9020008363359151  1.0000
  H   H6        1.0  0.6730297303276984  0.7366688483853847  0.09799873816142218  1.0000
  H   H7        1.0  0.10436217063509191  0.21707088507305622  0.0164199029970789  1.0000
  H   H8        1.0  0.8956381860985162  0.7829284972736585  0.983580004203965  1.0000
  H   H9        1.0  0.21650573099901746  0.7703672537934025  0.12991054002255709  1.0000
  H   H10       1.0  0.7834946375263171  0.22963212261833377  0.870090131564197  1.0000
  H   H11       1.0  0.0005804428359042015  0.7086222922855185  0.3073544804579455  1.0000
  H   H12       1.0  0.9994200271186527  0.2913781779835247  0.692645094039392  1.0000
  H   H13       1.0  0.8981164045786587  0.15572860189994486  0.20004522430644303  1.0000
  H   H14       1.0  0.1018839639466691  0.8442707745117913  0.7999554472803111  1.0000
  H   H15       1.0  0.30459400974372397  0.6889821947470834  0.6120575079663125  1.0000
  H   H16       1.0  0.6954053070676096  0.3110182740419204  0.3879430448404476  1.0000
  H   H17       1.0  0.4092127242050409  0.6977812838566988  0.49108311724388903  1.0000
  H   H18       1.0  0.5907877457495161  0.30221918641234413  0.5089164572534484  1.0000
  H   H19       1.0  0.6413083224116533  0.41906162592582763  0.9802142751560579  1.0000
  H   H20       1.0  0.3586922725555652  0.5809399263305578  0.019785731023283383  1.0000
  H   H21       1.0  0.5820799012820431  0.46519642832222985  0.8540749759962761  1.0000
  H   H22       1.0  0.41792174539917687  0.5348040315568879  0.14592514896305886  1.0000
  H   H23       1.0  0.1443967326292537  0.5210098410335532  0.960423352777134  1.0000
  H   H24       1.0  0.8556050154811886  0.47899171270287866  0.03957567509278448  1.0000
  H   H25       1.0  0.2951073277977229  0.5782526841614838  0.829639691110678  1.0000
  H   H26       1.0  0.7048908122869407  0.4217477950174384  0.1703603112340771  1.0000
  H   H27       1.0  0.15334506516720842  0.6588036108398471  0.49234022378918496  1.0000
  H   H28       1.0  0.8466554165790682  0.3411968534942105  0.5076601150938629  1.0000
  H   H29       1.0  0.954983099544613  0.6718887141838505  0.4948997333867665  1.0000
  H   H30       1.0  0.045017370409944094  0.3281117560851925  0.5050998411105707  1.0000
  C   C1        1.0  0.8154122327737738  0.5159133382442532  0.8285955390251017  1.0000
  C   C2        1.0  0.18458718546678202  0.4840882244020575  0.1714039166922348  1.0000
  C   C3        1.0  0.07384726561036808  0.5466967790675453  0.8185814173039457  1.0000
  C   C4        1.0  0.9261512377205818  0.453306952008397  0.18141911570111083  1.0000
  C   C5        1.0  0.00078907108230197  0.6076187743838302  0.6524378757839314  1.0000
  C   C6        1.0  0.9992115120931971  0.3923827838075411  0.34756136600969956  1.0000
  C   C7        1.0  0.47552193497934786  0.20207235818583769  0.7725631112741025  1.0000
  C   C8        1.0  0.5244794970517078  0.797925919913645  0.2274384434783556  1.0000
  C   C9        1.0  0.5277748531508522  0.08887650445958428  0.7389218899106922  1.0000
  C   C10       1.0  0.4722243386478127  0.911122882342077  0.26107823121405727  1.0000
  C   C11       1.0  0.462097332547664  0.9467840555950598  0.8079559891931254  1.0000
  C   C12       1.0  0.5379029109650021  0.0532142388293337  0.19204425071161774  1.0000
  C   C13       1.0  0.34713262129174177  0.9185293666588092  0.9113306589013986  1.0000
  C   C14       1.0  0.652866683727872  0.08147110806518038  0.08866912951965131  1.0000
  C   C15       1.0  0.29733098636009464  0.030171004284568398  0.9490306047047594  1.0000
  C   C16       1.0  0.7026659769979063  0.9698294852842864  0.05096884717799093  1.0000
  C   C17       1.0  0.3628910616246728  0.17244699026505828  0.8776242369383309  1.0000
  C   C18       1.0  0.637108130173992  0.8275523965366033  0.12237588418641815  1.0000
  C   C19       1.0  0.0858239600375512  0.10601877993762798  0.08089410191404059  1.0000
  C   C20       1.0  0.9141776866436686  0.8939816799414896  0.919106023045295  1.0000
  C   C21       1.0  0.1759308665447321  0.9977439377961583  0.05879724384181634  1.0000
  C   C22       1.0  0.8240696034098179  0.0022565324728845027  0.9412023306555211  1.0000
  C   C23       1.0  0.1455134540321055  0.8552022625037238  0.14338205363061016  1.0000
  C   C24       1.0  0.8544880676364528  0.14479711538805157  0.8566176396467213  1.0000
  C   C25       1.0  0.02620191229286918  0.8205240777946867  0.24449556664050215  1.0000
  C   C26       1.0  0.9737970294804656  0.17947314503228987  0.7555036911202321  1.0000
  C   C27       1.0  0.9364068715285683  0.9287782354194999  0.26551906222438504  1.0000
  C   C28       1.0  0.06359316912565302  0.07121787129026558  0.7344833718591913  1.0000
  C   C29       1.0  0.96856670323956  0.07218485891637978  0.1832603764981471  1.0000
  C   C30       1.0  0.03143389172766577  0.9278166933400056  0.8167396296811942  1.0000
  C   C31       1.0  0.5388016849906238  0.3550283557356408  0.6962600910621504  1.0000
  C   C32       1.0  0.46119972345698573  0.6449699342338062  0.3037399349188803  1.0000
  C   C33       1.0  0.5075823185055411  0.8267131104959302  0.7684526061746766  1.0000
  C   C34       1.0  0.4924155951372384  0.17328519283834248  0.23154806157749155  1.0000
  C   C35       1.0  0.8057607477968746  0.8912887301880799  0.37262982557701446  1.0000
  C   C36       1.0  0.19423960893673348  0.10871065215863498  0.627370081624022  1.0000
  N   N1        1.0  0.8456937269045354  0.5761849789711206  0.7114520446810102  1.0000
  N   N2        1.0  0.1543068562709635  0.4238165792202507  0.2885471971126208  1.0000
  N   N3        1.0  0.9248970043460006  0.5018289643789869  0.8848078517429127  1.0000
  N   N4        1.0  0.07510127254305131  0.4981725908522989  0.11519334666955668  1.0000
  N   N5        1.0  0.11831642405381608  0.5970115856721706  0.7020468578274188  1.0000
  N   N6        1.0  0.8816819660561849  0.4029910574814436  0.2979540078813513  1.0000
  N   N7        1.0  0.6685124282672491  0.4629792349315024  0.8926618316975095  1.0000
  N   N8        1.0  0.3314868767523578  0.5370212397924873  0.1073379567235406  1.0000
  N   N9        1.0  0.18247634416300682  0.5377813882934532  0.8741282045004439  1.0000
  N   N10       1.0  0.8175242390124923  0.46222016989791836  0.12587103729318727  1.0000
  N   N11       1.0  0.03940669973279398  0.650380401048281  0.53767276338354  1.0000
  N   N12       1.0  0.9605949351567065  0.3496200647658225  0.46232659719008495  1.0000
  O   O1        1.0  0.4070811507983266  0.7369875691182557  0.551482381967588  1.0000
  O   O2        1.0  0.5929192059352815  0.26301181322845923  0.4485175252334558  1.0000
  O   O3        1.0  0.6272846201932084  0.38644766169416295  0.5953644811741654  1.0000
  O   O4        1.0  0.3727157483321265  0.6135517147175733  0.4046361904125814  1.0000
  O   O5        1.0  0.4981824840507798  0.4507796642436686  0.7394617806282395  1.0000
  O   O6        1.0  0.5018178726828283  0.5492197181030463  0.260538126572797  1.0000
  O   O7        1.0  0.4664263110492186  0.6964772522605284  0.8353726604097175  1.0000
  O   O8        1.0  0.5335739324634474  0.3035210421638651  0.1646275794950256  1.0000
  O   O9        1.0  0.5904931712213398  0.864447367188049  0.6614469657360896  1.0000
  O   O10       1.0  0.40950590735638315  0.13555093169128435  0.33855348809236563  1.0000
  O   O11       1.0  0.7837891108258789  0.7582095118128079  0.4441871943433782  1.0000
  O   O12       1.0  0.21621124590772922  0.24178987053391413  0.5558127128576587  1.0000
  O   O13       1.0  0.7253874293925193  0.9937778012891412  0.3843435629119938  1.0000
  O   O14       1.0  0.2746129391328154  0.006221575122594898  0.6156571086747532  1.0000
