data_image0
_chemical_formula_structural       Al4H52C72O20
_chemical_formula_sum              "Al4 H52 C72 O20"
_cell_length_a       6.609053930559107
_cell_length_b       23.843413932588582
_cell_length_c       25.316996856233295
_cell_angle_alpha    90.03411381783465
_cell_angle_beta     90.290078141767
_cell_angle_gamma    89.98939970212925

_space_group_name_H-M_alt    "P 1"
_space_group_IT_number       1

loop_
  _space_group_symop_operation_xyz
  'x, y, z'

loop_
  _atom_site_type_symbol
  _atom_site_label
  _atom_site_symmetry_multiplicity
  _atom_site_fract_x
  _atom_site_fract_y
  _atom_site_fract_z
  _atom_site_occupancy
  Al  Al1       1.0  0.8889281171242088  0.997622528261829  0.4987549457186731  1.0000
  Al  Al2       1.0  0.3881079279835617  0.0028101857139475003  0.49823706798656536  1.0000
  Al  Al3       1.0  0.11435891264014937  0.4976625842052229  0.0020807504410953  1.0000
  Al  Al4       1.0  0.6136367021501882  0.5034827259486291  0.0011129584395704  1.0000
  H   H1        1.0  0.12782211544934796  0.0680210584481102  0.5242215254077252  1.0000
  H   H2        1.0  0.6254625686148073  0.9275088395460498  0.5117028860368578  1.0000
  H   H3        1.0  0.3754258000308113  0.4335248292529671  0.9747294707986995  1.0000
  H   H4        1.0  0.8786858080529782  0.5699551364953237  0.9802035755541212  1.0000
  H   H5        1.0  0.5218859085649399  0.371977610063098  0.0919673177563567  1.0000
  H   H6        1.0  0.4841267539665778  0.2968538179101685  0.1601641123319979  1.0000
  H   H7        1.0  0.1369010739662713  0.3984588797162942  0.1421346679571656  1.0000
  H   H8        1.0  0.360419156372302  0.1004217093992636  0.358704692453081  1.0000
  H   H9        1.0  0.9745761114360577  0.13126719970630057  0.407272947625053  1.0000
  H   H10       1.0  0.0043127589312277  0.20561124882320309  0.3380307920014971  1.0000
  H   H11       1.0  0.03996448945710539  0.634286850647271  0.9107537894152244  1.0000
  H   H12       1.0  0.9973509743596338  0.705790823909098  0.8397954644765875  1.0000
  H   H13       1.0  0.6387753278283697  0.5980778508872361  0.8550011369117172  1.0000
  H   H14       1.0  0.8601890991028469  0.9028577711811252  0.6438921955801788  1.0000
  H   H15       1.0  0.4601249331333648  0.8659983219707  0.5894272373240454  1.0000
  H   H16       1.0  0.4982104019766068  0.7937844723833151  0.6600733891590523  1.0000
  H   H17       1.0  0.6288001654801292  0.6460243218915097  0.1005239772417923  1.0000
  H   H18       1.0  0.5843449553609972  0.7204933577029495  0.1693416099051674  1.0000
  H   H19       1.0  0.0500829343568796  0.5770878247349103  0.1413573755372255  1.0000
  H   H20       1.0  0.45186893288646957  0.9232897125215942  0.3586605671925938  1.0000
  H   H21       1.0  0.8728594007186671  0.8545129764023688  0.3994829203405246  1.0000
  H   H22       1.0  0.9176290190426498  0.7798439898981897  0.3309150796644076  1.0000
  H   H23       1.0  0.5473788603271572  0.365964641722627  0.910903126438548  1.0000
  H   H24       1.0  0.5086249098342178  0.2929850223304983  0.8411005601159758  1.0000
  H   H25       1.0  0.14285118018503337  0.40422326603260234  0.8539242967135935  1.0000
  H   H26       1.0  0.3610296227243025  0.0958058553750689  0.6472042361082587  1.0000
  H   H27       1.0  0.959684378559565  0.1316195954716548  0.5911212832196  1.0000
  H   H28       1.0  0.0019041144340121998  0.2039253733802227  0.661366731377079  1.0000
  H   H29       1.0  0.2668291487393262  0.35514760030257264  0.22062887342685403  1.0000
  H   H30       1.0  0.0872936641338811  0.32930172451111156  0.2670503238885615  1.0000
  H   H31       1.0  0.19960830378320787  0.2829211384268575  0.22164745639398833  1.0000
  H   H32       1.0  0.28915626403395567  0.21464753057764338  0.2769078526612674  1.0000
  H   H33       1.0  0.40008021505450125  0.166691799936018  0.2327571753504287  1.0000
  H   H34       1.0  0.223093911631139  0.14243153703363018  0.280572528767685  1.0000
  H   H35       1.0  0.766069024274472  0.6397318453734471  0.7760004340213841  1.0000
  H   H36       1.0  0.5837466111629652  0.665389177596964  0.729711045834229  1.0000
  H   H37       1.0  0.704231441852414  0.7122592689664059  0.7735274465571038  1.0000
  H   H38       1.0  0.7911463902399447  0.7883433404411376  0.7255492653249433  1.0000
  H   H39       1.0  0.9097834105149616  0.8357919086426836  0.7691437447970912  1.0000
  H   H40       1.0  0.7285769577120431  0.8607970670897842  0.7222659977927536  1.0000
  H   H41       1.0  0.8508209559558109  0.614979760269037  0.2107053643823349  1.0000
  H   H42       1.0  0.0018457949038150998  0.6391344412661724  0.2647245432010195  1.0000
  H   H43       1.0  0.8812363482061869  0.6880637103061671  0.22311671371419814  1.0000
  H   H44       1.0  0.6209859389858322  0.8119943762061439  0.2772534218153666  1.0000
  H   H45       1.0  0.5009218212344776  0.8609605977832543  0.2355782797568722  1.0000
  H   H46       1.0  0.6516811811672979  0.8850758445328282  0.28965627949479267  1.0000
  H   H47       1.0  0.21205498175925894  0.2886890534534885  0.7732627077399882  1.0000
  H   H48       1.0  0.0909059019012801  0.3356796858668076  0.7297028075713143  1.0000
  H   H49       1.0  0.27322788986356267  0.36124868312874975  0.7760314697490429  1.0000
  H   H50       1.0  0.23322772716180395  0.13851333843265926  0.725651399435023  1.0000
  H   H51       1.0  0.415057666401367  0.16474571736600296  0.7717852024675622  1.0000
  H   H52       1.0  0.2949770415979244  0.21105433045119784  0.7273931892394288  1.0000
  C   C1        1.0  0.6364759140445457  0.0677241554968901  0.5712215200146531  1.0000
  C   C2        1.0  0.6517417312542335  0.06886082681816671  0.4293549527401765  1.0000
  C   C3        1.0  0.1490215060333568  0.9349654001908831  0.4264901440401871  1.0000
  C   C4        1.0  0.13693081486763958  0.9299807636844618  0.5685934913259487  1.0000
  C   C5        1.0  0.8665407303907031  0.4319445165335054  0.9295987472928006  1.0000
  C   C6        1.0  0.8495895329919563  0.43254291345117224  0.0711019713018644  1.0000
  C   C7        1.0  0.35274176863287465  0.5657719141522719  0.0733460884351302  1.0000
  C   C8        1.0  0.364610860960795  0.5705460130964184  0.9309420461350655  1.0000
  C   C9        1.0  0.8324190494513457  0.388938750638367  0.1128930298888307  1.0000
  C   C10       1.0  0.6468134389105982  0.36101738845781756  0.1182697323577315  1.0000
  C   C11       1.0  0.6255106587386052  0.3199445567519703  0.1565025811200584  1.0000
  C   C12       1.0  0.7853597590774014  0.30792596223430735  0.1919423513558698  1.0000
  C   C13       1.0  0.9723814133972227  0.33709129003975863  0.18754902421807174  1.0000
  C   C14       1.0  0.993823133975006  0.3761944325221195  0.1469061594992951  1.0000
  C   C15       1.0  0.756374435744206  0.2673667510538138  0.23193039086775266  1.0000
  C   C16       1.0  0.7289359252963122  0.2324918149585641  0.2665522988911704  1.0000
  C   C17       1.0  0.7032824432430189  0.1922154063629691  0.3069571498543127  1.0000
  C   C18       1.0  0.5187710156400981  0.162043192250465  0.3120992510580365  1.0000
  C   C19       1.0  0.5015833412167864  0.1234255799901263  0.3532951334272881  1.0000
  C   C20       1.0  0.6649116587710748  0.11209989233318399  0.38713275484000326  1.0000
  C   C21       1.0  0.8481253993601143  0.14104326543778709  0.3810488417682691  1.0000
  C   C22       1.0  0.8650210824499923  0.18166577250673302  0.3422466836035056  1.0000
  C   C23       1.0  0.3427431066862707  0.6122824393129846  0.8873913470336632  1.0000
  C   C24       1.0  0.1608104347214763  0.6422349713339912  0.8827050900855298  1.0000
  C   C25       1.0  0.1369605492680748  0.6817174277023597  0.8431167677792004  1.0000
  C   C26       1.0  0.292810723961864  0.6914172734089449  0.8063108869958668  1.0000
  C   C27       1.0  0.4765095529069399  0.6604719774545913  0.8099327723271728  1.0000
  C   C28       1.0  0.4985115977924294  0.6219236827220769  0.85107912934604  1.0000
  C   C29       1.0  0.2625611807417485  0.732086145126985  0.766437571070533  1.0000
  C   C30       1.0  0.2308328729949025  0.767833866079947  0.7328040193273466  1.0000
  C   C31       1.0  0.20216293028881435  0.8086291930725833  0.6929579386062557  1.0000
  C   C32       1.0  0.019425099446579  0.8399646066583982  0.6891231763144674  1.0000
  C   C33       1.0  0.9996992953185567  0.8787212591222938  0.6480726850999687  1.0000
  C   C34       1.0  0.1569042842723078  0.8881925005543678  0.6121408509732902  1.0000
  C   C35       1.0  0.3380320003746888  0.8579291494754668  0.61708278161381  1.0000
  C   C36       1.0  0.3594148760107885  0.8181615549165356  0.6565187618056215  1.0000
  C   C37       1.0  0.340396293966684  0.6076050157243104  0.11685067334190792  1.0000
  C   C38       1.0  0.49378051060106287  0.6473242161776156  0.125041174436987  1.0000
  C   C39       1.0  0.4691412816366024  0.688361735030128  0.1634405549970452  1.0000
  C   C40       1.0  0.2942559633655009  0.689523607234804  0.19529636315570542  1.0000
  C   C41       1.0  0.14181189340006736  0.6479502901739025  0.18852985824040053  1.0000
  C   C42       1.0  0.167153358163489  0.6083829246203933  0.1486814513937063  1.0000
  C   C43       1.0  0.2676167120943234  0.7319964555240333  0.23360039880940772  1.0000
  C   C44       1.0  0.23455506429425543  0.7681433930774445  0.2667494145372302  1.0000
  C   C45       1.0  0.2078877110620851  0.8106904525359865  0.3049764314915464  1.0000
  C   C46       1.0  0.36039199982918285  0.8522490888334461  0.311705055021271  1.0000
  C   C47       1.0  0.3348644082624119  0.8919568961273112  0.3514198690189332  1.0000
  C   C48       1.0  0.16143586819367775  0.8928995886067315  0.3831818415392334  1.0000
  C   C49       1.0  0.008083979425507  0.8531502089792086  0.3750450723280352  1.0000
  C   C50       1.0  0.0328472209346344  0.8119810460623995  0.33677292350789395  1.0000
  C   C51       1.0  0.847933132069997  0.3892808537255588  0.8867224246818566  1.0000
  C   C52       1.0  0.6681614735694834  0.3582383792815449  0.8827713194711961  1.0000
  C   C53       1.0  0.6464791258792884  0.3178828725312499  0.8438668142393624  1.0000
  C   C54       1.0  0.8022015826531187  0.3083903695374842  0.8069639621667476  1.0000
  C   C55       1.0  0.9840009668274163  0.3402347701377195  0.8099676106221665  1.0000
  C   C56       1.0  0.0040401800050347  0.3796480664026732  0.8505104722593089  1.0000
  C   C57       1.0  0.7722876087383382  0.26709671324975665  0.7675899624218943  1.0000
  C   C58       1.0  0.7378137792518018  0.23089434969010367  0.7345291723512943  1.0000
  C   C59       1.0  0.7066833880978365  0.1897854624987687  0.6950465364269149  1.0000
  C   C60       1.0  0.5230856792081298  0.15878876482292267  0.6916737598136321  1.0000
  C   C61       1.0  0.5012594358385272  0.11970187842361922  0.6508933620069898  1.0000
  C   C62       1.0  0.6571167473356139  0.10965889892207065  0.6147100980982003  1.0000
  C   C63       1.0  0.8388466454845371  0.1397702540834445  0.6191244255069037  1.0000
  C   C64       1.0  0.8625115161376087  0.1797314334556219  0.658305123451953  1.0000
  C   C65       1.0  0.14083868198609648  0.32585973416571073  0.2261190076037281  1.0000
  C   C66       1.0  0.3483581626063738  0.17163508117929635  0.2737159653230066  1.0000
  C   C67       1.0  0.6416490020224401  0.669598594052303  0.7703245129804374  1.0000
  C   C68       1.0  0.8531344177160134  0.8310910997709795  0.7284630657188842  1.0000
  C   C69       1.0  0.9587827866266919  0.6472618688157398  0.2233758385158851  1.0000
  C   C70       1.0  0.5436614009185234  0.8528306255300963  0.2769450922608954  1.0000
  C   C71       1.0  0.14907947734959487  0.3313177854802802  0.7702748879246499  1.0000
  C   C72       1.0  0.3576063765251689  0.16843286330984605  0.7310949120151449  1.0000
  O   O1        1.0  0.8000231763842649  0.054822539914539406  0.5476742374537125  1.0000
  O   O2        1.0  0.4816149913036512  0.060467722687604884  0.45157391458233326  1.0000
  O   O3        1.0  0.311189722127942  0.9615305476130304  0.43716264572796604  1.0000
  O   O4        1.0  0.9616160526466471  0.9497630656342153  0.558279268725002  1.0000
  O   O5        1.0  0.9815632312244414  0.941050975937401  0.4507727479424588  1.0000
  O   O6        1.0  0.29948165494801054  0.9423222649936208  0.5442248640154475  1.0000
  O   O7        1.0  0.46130944161684784  0.0484987752298949  0.559865215088422  1.0000
  O   O8        1.0  0.8165937840061301  0.043925042452727284  0.4406709641274986  1.0000
  O   O9        1.0  0.13573013247139437  0.0353222228376353  0.5015965500421089  1.0000
  O   O10       1.0  0.6348816228641354  0.9655579739665751  0.49867848414787375  1.0000
  O   O11       1.0  0.041547659732053405  0.45132965620021537  0.9409453434184627  1.0000
  O   O12       1.0  0.6865947137253697  0.4583781369770179  0.059763092357421506  1.0000
  O   O13       1.0  0.5195787805867411  0.5601286497564857  0.04872011124574981  1.0000
  O   O14       1.0  0.2026106363724764  0.5578674001359332  0.955373755957865  1.0000
  O   O15       1.0  0.19087705938630245  0.538953957506692  0.0628747691850293  1.0000
  O   O16       1.0  0.5404784198304355  0.5510166770526156  0.941190161833731  1.0000
  O   O17       1.0  0.7021469845587802  0.4453457928710377  0.9525282216896825  1.0000
  O   O18       1.0  0.020450242576543997  0.4403909385339731  0.0491126706012963  1.0000
  O   O19       1.0  0.3673569925297428  0.46536875369785236  0.9984335604315789  1.0000
  O   O20       1.0  0.8679037577619224  0.5355261142161679  0.00030044132466859965  1.0000
