data_image0
_chemical_formula_structural       Zn6H24C52Br2O24
_chemical_formula_sum              "Zn6 H24 C52 Br2 O24"
_cell_length_a       18.639155834500773
_cell_length_b       18.553637981433436
_cell_length_c       18.698819097379115
_cell_angle_alpha    109.5376934320786
_cell_angle_beta     109.49388356585733
_cell_angle_gamma    109.20690291672683

_space_group_name_H-M_alt    "P 1"
_space_group_IT_number       1

loop_
  _space_group_symop_operation_xyz
  'x, y, z'

loop_
  _atom_site_type_symbol
  _atom_site_label
  _atom_site_symmetry_multiplicity
  _atom_site_fract_x
  _atom_site_fract_y
  _atom_site_fract_z
  _atom_site_occupancy
  Zn  Zn1       1.0  0.5024599299022017  0.9302539421472746  0.938734354980504  1.0000
  Zn  Zn2       1.0  0.4987002141539422  0.05866059107925991  0.05759942036451097  1.0000
  Zn  Zn3       1.0  0.06166244898106752  0.0627863870474101  0.4997503305324714  1.0000
  Zn  Zn4       1.0  0.9417900947538413  0.9294540586080656  0.496367957107651  1.0000
  Zn  Zn5       1.0  0.9368238440069234  0.49879715366056127  0.9372547592835403  1.0000
  Zn  Zn6       1.0  0.06285515071270714  0.5039609743967759  0.06717447292745499  1.0000
  H   H1        1.0  0.7445273673771597  0.9429360206901977  0.11680100765671145  1.0000
  H   H2        1.0  0.06708986033687134  0.41326337536026614  0.7778096129312857  1.0000
  H   H3        1.0  0.08737516481031096  0.30583751090053823  0.6742217967535354  1.0000
  H   H4        1.0  0.8694673020391549  0.7833550929127641  0.22571491778128913  1.0000
  H   H5        1.0  0.14939731582202861  0.9052593415571979  0.3350050752566035  1.0000
  H   H6        1.0  0.48219342027832124  0.951907883082029  0.292891597535153  1.0000
  H   H7        1.0  0.6007418579960203  0.9916332984196148  0.4359790843641137  1.0000
  H   H8        1.0  0.8526246840119286  0.9542793804632979  0.2482864204337361  1.0000
  H   H9        1.0  0.24300922458935056  0.8961689383343057  0.04857269027758082  1.0000
  H   H10       1.0  0.13488027332100228  0.7675236305749992  0.042631693323706046  1.0000
  H   H11       1.0  0.29875572396483824  0.6493244622909344  0.04135882133820702  1.0000
  H   H12       1.0  0.39781461620816577  0.76947465663757  0.030421736809635988  1.0000
  H   H13       1.0  0.10799095745289847  0.8211778192556595  0.6059060179149186  1.0000
  H   H14       1.0  0.7674605431179558  0.2826640774859826  0.16927608914532044  1.0000
  H   H15       1.0  0.7664260524943957  0.24235167210838432  0.8920239296011162  1.0000
  H   H16       1.0  0.8492911772613781  0.660161153866852  0.09748414872680655  1.0000
  H   H17       1.0  0.12944610075632573  0.7737137702827469  0.21565610436147153  1.0000
  H   H18       1.0  0.3739913726940004  0.1046203413773412  0.8495663528890064  1.0000
  H   H19       1.0  0.2538240032320829  0.1040625826598571  0.7370480037405259  1.0000
  H   H20       1.0  0.2346541999013498  0.8213503859437029  0.7100756337538315  1.0000
  H   H21       1.0  0.8943455275561406  0.3907011133243117  0.17315635018514547  1.0000
  H   H22       1.0  0.6478316113469234  0.1262551532492253  0.889880949005395  1.0000
  H   H23       1.0  0.9294866496564538  0.09907383799775718  0.7011919091272105  1.0000
  H   H24       1.0  0.5127656116203242  0.9423061211288442  0.1727198557814944  1.0000
  C   C1        1.0  0.3845336446664761  0.9072968807167642  0.028154630884742488  1.0000
  C   C2        1.0  0.28596888261881764  0.7025200604963331  0.04104849496663829  1.0000
  C   C3        1.0  0.34164759226598584  0.7698882656386987  0.036188635794502544  1.0000
  C   C4        1.0  0.6033789553034198  0.9587707115184898  0.0948044172579685  1.0000
  C   C5        1.0  0.3257745235359694  0.8392643446229472  0.0383231629543913  1.0000
  C   C6        1.0  0.3166456127287915  0.0428943511855948  0.7944577170728522  1.0000
  C   C7        1.0  0.24938442106363823  0.0426073776114393  0.7328585092185734  1.0000
  C   C8        1.0  0.17363297054696158  0.9625579610533991  0.6654365809202005  1.0000
  C   C9        1.0  0.1674842905865575  0.882845690597371  0.6581503536573338  1.0000
  C   C10       1.0  0.23769960531148368  0.8830055914311784  0.7165082695938026  1.0000
  C   C11       1.0  0.31173896786701494  0.9631006056572956  0.7859137792757452  1.0000
  C   C12       1.0  0.641649056469639  0.9581878196052713  0.23872854486693026  1.0000
  C   C13       1.0  0.7689883652608315  0.27320859549313775  0.1091659487390401  1.0000
  C   C14       1.0  0.8391997700088255  0.3336609937381995  0.11120625930177407  1.0000
  C   C15       1.0  0.8374892757027228  0.32278060059496044  0.03271408713847997  1.0000
  C   C16       1.0  0.6258099280597448  0.1309401007076545  0.025319173959346075  1.0000
  C   C17       1.0  0.7673960667002575  0.24915417403104098  0.9525866744894174  1.0000
  C   C18       1.0  0.7008657090577229  0.1855358728293339  0.9512620384167932  1.0000
  C   C19       1.0  0.7002776453580069  0.1984270051547909  0.029349913751374874  1.0000
  C   C20       1.0  0.02018209784641561  0.1311442876697768  0.6191601791624493  1.0000
  C   C21       1.0  0.853375091635755  0.9697175661533424  0.38882216113912466  1.0000
  C   C22       1.0  0.020200433501550402  0.9174563189600777  0.36758857917289595  1.0000
  C   C23       1.0  0.6588407628886089  0.951585374118892  0.16813215522512345  1.0000
  C   C24       1.0  0.10159050293830779  0.9649389926802812  0.6019500916947466  1.0000
  C   C25       1.0  0.9826201625767369  0.3840234264341619  0.8658067008581797  1.0000
  C   C26       1.0  0.14280020861632187  0.6232604984951494  0.03295455860460092  1.0000
  C   C27       1.0  0.9782991744752468  0.6282536348989964  0.08489390163308028  1.0000
  C   C28       1.0  0.38415902102842375  0.9664048371012725  0.8551125822593947  1.0000
  C   C29       1.0  0.9072158970834395  0.39000043011990476  0.0313607364038334  1.0000
  C   C30       1.0  0.9599477888929188  0.16803144285400862  0.7185963802639534  1.0000
  C   C31       1.0  0.9497590530955552  0.22838468747310262  0.7767043648187768  1.0000
  C   C32       1.0  0.9882835373969386  0.31706522092196116  0.7988979250368475  1.0000
  C   C33       1.0  0.037357263612513264  0.34437165603003456  0.7609548644013417  1.0000
  C   C34       1.0  0.7327995459443244  0.9485378265439907  0.17126318101418284  1.0000
  C   C35       1.0  0.04895825397249353  0.2849263715582424  0.7035256311704075  1.0000
  C   C36       1.0  0.010412991040738014  0.1965321597306655  0.6822884785511079  1.0000
  C   C37       1.0  0.9258828098674742  0.7824920873342123  0.2207873684927151  1.0000
  C   C38       1.0  0.9146619711015163  0.7133376226327998  0.15033753008881948  1.0000
  C   C39       1.0  0.9883316862807947  0.7091403974972721  0.1503055038824002  1.0000
  C   C40       1.0  0.5614698452534557  0.9519179176180685  0.23207393573736115  1.0000
  C   C41       1.0  0.07287336855164743  0.7782778163066411  0.21652352242083583  1.0000
  C   C42       1.0  0.08402503394776785  0.8508422776987745  0.28348233542592993  1.0000
  C   C43       1.0  0.01047426572635865  0.8509749004664613  0.2877751427263959  1.0000
  C   C44       1.0  0.5448867249412929  0.9587435665931849  0.29973369852218207  1.0000
  C   C45       1.0  0.7938703152564203  0.9557762434124725  0.24569487158433378  1.0000
  C   C46       1.0  0.6108020313494436  0.9793236249766792  0.37988764743348463  1.0000
  C   C47       1.0  0.6900849435393824  0.9872550551899196  0.388979642103429  1.0000
  C   C48       1.0  0.7066814962217692  0.9699560273242724  0.31722134165352855  1.0000
  C   C49       1.0  0.7823298558423846  0.9664619026047137  0.3174100272789887  1.0000
  C   C50       1.0  0.25379238882974414  0.841118341356278  0.045240043193963554  1.0000
  C   C51       1.0  0.1944123670206254  0.7702473557333677  0.04321746826250461  1.0000
  C   C52       1.0  0.2103844300772906  0.7009817916385045  0.04111757758006007  1.0000
  Br  Br1       1.0  0.8812409719470153  0.1882813172422075  0.8256662236397645  1.0000
  Br  Br2       1.0  0.7789137320597633  0.03405557402059859  0.5056921403682609  1.0000
  O   O1        1.0  0.4104519674967691  0.8797662095002965  0.975465091008772  1.0000
  O   O2        1.0  0.03189029037051232  0.4094731676788399  0.9450597886696174  1.0000
  O   O3        1.0  0.064083322629351  0.593036963147391  0.9765451008558943  1.0000
  O   O4        1.0  0.40675664376532694  0.9886686377439348  0.07360567220833053  1.0000
  O   O5        1.0  0.16813047550994756  0.5923705017932761  0.08285416949040324  1.0000
  O   O6        1.0  0.919298335947353  0.5909470628556904  0.003956774865436118  1.0000
  O   O7        1.0  0.029340485666836048  0.6011784526683499  0.11435904836390158  1.0000
  O   O8        1.0  0.8817606392789159  0.40880100044562073  0.971539704630068  1.0000
  O   O9        1.0  0.9877119223667918  0.4239014916463618  0.08959728563318246  1.0000
  O   O10       1.0  0.5828464280519229  0.9079066624735503  0.016010395966134128  1.0000
  O   O11       1.0  0.5824472905530911  0.0180110897098302  0.1159512031231529  1.0000
  O   O12       1.0  0.9772969145637944  0.05058136210673331  0.5964309526788796  1.0000
  O   O13       1.0  0.5940889163519502  0.0510495736616789  0.9690230176876684  1.0000
  O   O14       1.0  0.5984364668638307  0.1582422716399421  0.07805899534428559  1.0000
  O   O15       1.0  0.40834901760353404  0.9089178186154285  0.832872200501761  1.0000
  O   O16       1.0  0.4172214549779767  0.027447598844595696  0.9328892695531581  1.0000
  O   O17       1.0  0.07125727637254192  0.16106992445754292  0.5912580485558507  1.0000
  O   O18       1.0  0.9310169130027219  0.0282159167550802  0.4184167521658254  1.0000
  O   O19       1.0  0.8325694413122735  0.909578264794739  0.40984101726690636  1.0000
  O   O20       1.0  0.07533820600277616  0.9997299362167311  0.40254617583131147  1.0000
  O   O21       1.0  0.9723148243735409  0.8867844153066075  0.39652938654056397  1.0000
  O   O22       1.0  0.12412063854002041  0.025404169338983706  0.5830472876425858  1.0000
  O   O23       1.0  0.02191642880178088  0.9065846352930934  0.5712937921342417  1.0000
  O   O24       1.0  0.9303268335377556  0.41146111424325943  0.8376442617350507  1.0000
