data_image0
_chemical_formula_structural       Zn2Ag4H16C16N12O22
_chemical_formula_sum              "Zn2 Ag4 H16 C16 N12 O22"
_cell_length_a       6.205454734156251
_cell_length_b       8.620119079156915
_cell_length_c       14.632259071773493
_cell_angle_alpha    73.39348195908157
_cell_angle_beta     88.79028351928132
_cell_angle_gamma    89.39991379056809

_space_group_name_H-M_alt    "P 1"
_space_group_IT_number       1

loop_
  _space_group_symop_operation_xyz
  'x, y, z'

loop_
  _atom_site_type_symbol
  _atom_site_label
  _atom_site_symmetry_multiplicity
  _atom_site_fract_x
  _atom_site_fract_y
  _atom_site_fract_z
  _atom_site_occupancy
  Zn  Zn1       1.0  0.4666876823856397  0.565360862453133  0.8580090093194386  1.0000
  Zn  Zn2       1.0  0.5333114876049194  0.4346388273628036  0.14199056655446898  1.0000
  Ag  Ag1       1.0  0.2866086593896283  0.0026410544858350986  0.2365619293214891  1.0000
  Ag  Ag2       1.0  0.7133936943944688  0.9973610712453648  0.7634378956245695  1.0000
  Ag  Ag3       1.0  0.3811754470727493  0.4319029432658538  0.6083835958335655  1.0000
  Ag  Ag4       1.0  0.6188269087096497  0.568099177240832  0.39161691338883736  1.0000
  H   H1        1.0  0.8366449886229859  0.5122540695073425  0.7626191690109536  1.0000
  H   H2        1.0  0.1633557782600974  0.4877468252049439  0.23738224208989323  1.0000
  H   H3        1.0  0.319485262152817  0.7982581537428002  0.7132116461786353  1.0000
  H   H4        1.0  0.6805171352867133  0.2017415457045999  0.2867892643877425  1.0000
  H   H5        1.0  0.010676020318022896  0.5830624097253575  0.871265678191257  1.0000
  H   H6        1.0  0.9893231308422655  0.4169384853957112  0.12873438128701048  1.0000
  H   H7        1.0  0.8072756167033858  0.3743912346567697  0.8625656454830093  1.0000
  H   H8        1.0  0.19272516900996098  0.6256084547503917  0.13743528201347738  1.0000
  H   H9        1.0  0.5482525385133598  0.7372598286551906  0.6766940976741579  1.0000
  H   H10       1.0  0.4517482471999871  0.26273986075196376  0.3233068298223287  1.0000
  H   H11       1.0  0.12651647131800559  0.7186852264487839  0.9126204679847943  1.0000
  H   H12       1.0  0.873482681840585  0.2813156634477777  0.08738027576982432  1.0000
  H   H13       1.0  0.21385965957575337  0.0257070374418547  0.8578486952974343  1.0000
  H   H14       1.0  0.7861395312433712  0.974291441844443  0.14215108124846404  1.0000
  H   H15       1.0  0.6920073034829314  0.8710421306973615  0.5033615254702752  1.0000
  H   H16       1.0  0.30799348023211337  0.1289575639343141  0.4966387177498675  1.0000
  C   C1        1.0  0.2878565093318385  0.09159876921246729  0.0138223509507753  1.0000
  C   C2        1.0  0.7121410281039642  0.9084021210928696  0.9861770411812569  1.0000
  C   C3        1.0  0.33046766942188543  0.2216752209428066  0.9332482160947038  1.0000
  C   C4        1.0  0.6695314777417991  0.7783256846272835  0.06675047483087578  1.0000
  C   C5        1.0  0.21069878066042946  0.9257985101394439  0.021041555058474184  1.0000
  C   C6        1.0  0.7893020238831807  0.07419997396257828  0.9789588888336525  1.0000
  C   C7        1.0  0.3138573829551062  0.24792759633590586  0.83001510379151  1.0000
  C   C8        1.0  0.6861434780793018  0.7520672718507341  0.1699838892875434  1.0000
  C   C9        1.0  0.03811938560092189  0.7125438276005269  0.5070023885431282  1.0000
  C   C10       1.0  0.9618813792838593  0.2874570723362737  0.49299833828137457  1.0000
  C   C11       1.0  0.029190998736190497  0.8425054944161942  0.42330790689948117  1.0000
  C   C12       1.0  0.9708082149098087  0.15749176911594986  0.5766927545947451  1.0000
  C   C13       1.0  0.8719906709710726  0.9760096901450911  0.389967068466106  1.0000
  C   C14       1.0  0.1280085198480521  0.0239887891412067  0.6100327080797924  1.0000
  C   C15       1.0  0.8888832185413731  0.6583516325764408  0.590912524073019  1.0000
  C   C16       1.0  0.11111595744409188  0.3416480415659607  0.40908910462992754  1.0000
  N   N1        1.0  0.4081157664333971  0.342815030833897  0.9643158354783381  1.0000
  N   N2        1.0  0.5918833807302946  0.6571858747361929  0.035682855447234374  1.0000
  N   N3        1.0  0.21138548839407886  0.8344679890264429  0.3716377991854499  1.0000
  N   N4        1.0  0.7886152744924003  0.16553291613486457  0.6283622433627015  1.0000
  N   N5        1.0  0.3267877329010673  0.7077293869687294  0.419919743676985  1.0000
  N   N6        1.0  0.6732130319837067  0.2922715129680711  0.5800809831475178  1.0000
  N   N7        1.0  0.22519900866113568  0.6334220822431361  0.502225998548063  1.0000
  N   N8        1.0  0.7748001444974617  0.3665788076534184  0.4977747452065556  1.0000
  N   N9        1.0  0.4102371503799844  0.2933249038405634  0.058613157445329  1.0000
  N   N10       1.0  0.5897603662272529  0.7066771969944128  0.9413860340147193  1.0000
  N   N11       1.0  0.3377578398124683  0.14160786356634253  0.09043834737548907  1.0000
  N   N12       1.0  0.6622396976233347  0.8583930267389946  0.9095610447565504  1.0000
  O   O1        1.0  0.7926493935899117  0.4941756949109717  0.8322796967318522  1.0000
  O   O2        1.0  0.20735137329317152  0.5058251998013148  0.1677217143689944  1.0000
  O   O3        1.0  0.3629964242564796  0.38448701930683166  0.7756529605059866  1.0000
  O   O4        1.0  0.637006008845283  0.6155102747548254  0.22434629857532676  1.0000
  O   O5        1.0  0.2523474462705906  0.12948303878657433  0.7981533152561583  1.0000
  O   O6        1.0  0.747653393935252  0.8705130399297119  0.2018454771509042  1.0000
  O   O7        1.0  0.17230243651061267  0.8980069277882874  0.9408184308822597  1.0000
  O   O8        1.0  0.8276951237520577  0.10199274676289599  0.05918184619810771  1.0000
  O   O9        1.0  0.18825870051989566  0.8261616118822205  0.10181021038947334  1.0000
  O   O10       1.0  0.8117420623665765  0.1738392932790944  0.8981898321586852  1.0000
  O   O11       1.0  0.9076294307722818  0.08906091465721741  0.3163519188445463  1.0000
  O   O12       1.0  0.09236976404344689  0.9109375541800516  0.6836492262540401  1.0000
  O   O13       1.0  0.6949987895632929  0.972773925916897  0.44131735322245896  1.0000
  O   O14       1.0  0.3050004032541338  0.027224548144886295  0.5586831075997836  1.0000
  O   O15       1.0  0.7082443966035255  0.736158793532219  0.585889867007836  1.0000
  O   O16       1.0  0.2917547753853356  0.2638408910592105  0.4141103931424226  1.0000
  O   O17       1.0  0.9453253027310778  0.5417359593166039  0.6594206787216805  1.0000
  O   O18       1.0  0.05467870643464318  0.45826375017104237  0.34058021491458124  1.0000
  O   O19       1.0  0.4621612208065073  0.7455990052725524  0.7339327795398276  1.0000
  O   O20       1.0  0.5378379511823539  0.25440067931887  0.2660674806104311  1.0000
  O   O21       1.0  0.14752346331584928  0.6190064243894895  0.8928445835049316  1.0000
  O   O22       1.0  0.8524772975723278  0.38099448599633234  0.10715477476687599  1.0000
