data_image0
_chemical_formula_structural       Fe2H10C16O10
_chemical_formula_sum              "Fe2 H10 C16 O10"
_cell_length_a       7.029417470567903
_cell_length_b       11.393441086415732
_cell_length_c       11.393421070703388
_cell_angle_alpha    77.9506188660624
_cell_angle_beta     72.03711724260171
_cell_angle_gamma    72.03599698430388

_space_group_name_H-M_alt    "P 1"
_space_group_IT_number       1

loop_
  _space_group_symop_operation_xyz
  'x, y, z'

loop_
  _atom_site_type_symbol
  _atom_site_label
  _atom_site_symmetry_multiplicity
  _atom_site_fract_x
  _atom_site_fract_y
  _atom_site_fract_z
  _atom_site_occupancy
  Fe  Fe1       1.0  0.49999992048353903  5.615249278999936e-07  0.9999993129975665  1.0000
  Fe  Fe2       1.0  0.0  0.0  0.0  1.0000
  H   H1        1.0  0.36325136337023867  0.3837480275954805  0.0004176236339433272  1.0000
  H   H2        1.0  0.2500037350355342  0.8684893415728255  0.13150919664691685  1.0000
  H   H3        1.0  0.1367500397120267  0.9995839345902412  0.6162486245393949  1.0000
  H   H4        1.0  0.2472678002345461  0.6164120430177533  0.9995267786964704  1.0000
  H   H5        1.0  0.7499972046398897  0.1315110551148351  0.8684899523534427  1.0000
  H   H6        1.0  0.2527316439243492  0.00047619716286110035  0.3835839311191833  1.0000
  H   H7        1.0  0.6367476794769616  0.616253255972417  0.9995852198651181  1.0000
  H   H8        1.0  0.8632502249223892  0.0004146188154194999  0.3837492623336304  1.0000
  H   H9        1.0  0.7527301580627466  0.3835883172862041  0.00047557558308145026  1.0000
  H   H10       1.0  0.7472682089546656  0.999523286224857  0.6164138493608392  1.0000
  C   C1        1.0  0.2048183147645517  0.4359104785970729  4.156035009121625e-05  1.0000
  C   C2        1.0  0.2951825425832128  0.9999609940061375  0.5640865232937458  1.0000
  C   C3        1.0  0.1406876025684128  0.5642073087725451  0.9998676764574271  1.0000
  C   C4        1.0  0.3593112171636506  0.00013389168464779903  0.43578993450343273  1.0000
  C   C5        1.0  0.7951792340238413  0.5640908017249515  0.9999615668372999  1.0000
  C   C6        1.0  0.7048173125423035  3.847941759010118e-05  0.43591213648711863  1.0000
  C   C7        1.0  0.8593103602218692  0.4357930316034385  0.00013643642380145585  1.0000
  C   C8        1.0  0.640688635715371  0.9998655917030633  0.56420784597659  1.0000
  C   C9        1.0  0.06447600026802296  0.3710833939132812  8.868700177799694e-05  1.0000
  C   C10       1.0  0.13413957222291373  0.23326253281275916  0.998798585865444  1.0000
  C   C11       1.0  0.4355116297735008  0.9999128784972415  0.6289157341862934  1.0000
  C   C12       1.0  0.3658921481576344  0.0011986526923379991  0.7667354060785458  1.0000
  C   C13       1.0  0.9355234565810665  0.6289169497085682  0.9999151421911208  1.0000
  C   C14       1.0  0.8658598778866916  0.7667378407010548  0.001202605424936187  1.0000
  C   C15       1.0  0.5644882253520153  8.659492648629955e-05  0.37108292559457123  1.0000
  C   C16       1.0  0.6341077069678817  0.9988008207313825  0.23326325370231887  1.0000
  O   O1        1.0  0.32284462009808834  0.1800974603030454  0.9977139127622507  1.0000
  O   O2        1.0  0.1771372282688617  0.0022779155417112004  0.8199083014056614  1.0000
  O   O3        1.0  0.00018354746617901675  0.819993177667932  0.0024187595291352147  1.0000
  O   O4        1.0  0.49982622209660144  0.9975875303549697  0.1800121736573105  1.0000
  O   O5        1.0  0.677155905575454  0.819903876330656  0.002284250544278204  1.0000
  O   O6        1.0  0.8228611350443416  0.9977215446721605  0.18009152136438206  1.0000
  O   O7        1.0  0.999816980453858  0.18000814900177892  0.9975802830782358  1.0000
  O   O8        1.0  0.5001728095181265  0.002413803032865802  0.8199862733375555  1.0000
  O   O9        1.0  0.24999772468249398  0.9362954817434073  0.06370912302754321  1.0000
  O   O10       1.0  0.75000321499293  0.0637049149442532  0.9362900259728237  1.0000
