data_image0
_chemical_formula_structural       Zn2H6C18N2O8F4
_chemical_formula_sum              "Zn2 H6 C18 N2 O8 F4"
_cell_length_a       7.481016658076812
_cell_length_b       8.932430131112104
_cell_length_c       16.251625282384595
_cell_angle_alpha    88.43526747967057
_cell_angle_beta     77.37222103682917
_cell_angle_gamma    84.93571232629984

_space_group_name_H-M_alt    "P 1"
_space_group_IT_number       1

loop_
  _space_group_symop_operation_xyz
  'x, y, z'

loop_
  _atom_site_type_symbol
  _atom_site_label
  _atom_site_symmetry_multiplicity
  _atom_site_fract_x
  _atom_site_fract_y
  _atom_site_fract_z
  _atom_site_occupancy
  Zn  Zn1       1.0  0.6904372823556743  0.5062372475203248  0.4705941544207093  1.0000
  Zn  Zn2       1.0  0.3095815584839841  0.4938123909912375  0.5294068483543555  1.0000
  H   H1        1.0  0.5890403853962456  0.7435422686933676  0.9378706055992935  1.0000
  H   H2        1.0  0.41091837968725303  0.25645644980829013  0.062136348092103284  1.0000
  H   H3        1.0  0.2880334461708359  0.004395927593826299  0.519291147705637  1.0000
  H   H4        1.0  0.7119959302859019  0.9956581204780333  0.48069180742908196  1.0000
  H   H5        1.0  0.9160690086332011  0.4930780274869094  0.5848152342186026  1.0000
  H   H6        1.0  0.0839513866302894  0.5069626010607279  0.4151894663438682  1.0000
  C   C1        1.0  0.4593083706446208  0.789461213042827  0.5024936186997094  1.0000
  C   C2        1.0  0.6302981738617747  0.3899465794968009  0.9668523637993971  1.0000
  C   C3        1.0  0.4726159829475236  0.5024707878436487  0.24953232415440135  1.0000
  C   C4        1.0  0.5273803678995468  0.4975678924325139  0.7504715851885705  1.0000
  C   C5        1.0  0.6617339117325473  0.5298090727293217  0.0173631025328476  1.0000
  C   C6        1.0  0.338229341027798  0.47018510091675136  0.9826435946853991  1.0000
  C   C7        1.0  0.4826308972397016  0.5025884390581015  0.08696113299114933  1.0000
  C   C8        1.0  0.5173374427991038  0.4974090394686854  0.9130457932077859  1.0000
  C   C9        1.0  0.4705864907097351  0.5018253718399494  0.17483288739430242  1.0000
  C   C10       1.0  0.5293820679058926  0.49818782460300765  0.8251726094798357  1.0000
  C   C11       1.0  0.5407246938818489  0.21057256937945817  0.4974942504934674  1.0000
  C   C12       1.0  0.4845230111281824  0.5028856162587232  0.337037260170554  1.0000
  C   C13       1.0  0.5154898532203733  0.49715399049668463  0.6629642689281638  1.0000
  C   C14       1.0  0.4302411745105487  0.9559856181340506  0.5058174097859904  1.0000
  C   C15       1.0  0.5698040411954184  0.04407385025869098  0.49416501046487576  1.0000
  C   C16       1.0  0.5488868116518262  0.6361267333156562  0.9664011220907086  1.0000
  C   C17       1.0  0.45105241707162963  0.36387558751696514  0.0336077508782466  1.0000
  C   C18       1.0  0.3696645014847064  0.6100520884705388  0.03315555524478952  1.0000
  N   N1        1.0  0.0284617448852984  0.49549858210394854  0.5331462716455846  1.0000
  N   N2        1.0  0.9715601170047068  0.5045442789978622  0.46685645178661156  1.0000
  O   O1        1.0  0.6235543916413493  0.7289029884667283  0.48197436588358034  1.0000
  O   O2        1.0  0.37648047127503764  0.2711385797277117  0.5180324130812791  1.0000
  O   O3        1.0  0.3137819854805386  0.7196978553701925  0.5212507732752982  1.0000
  O   O4        1.0  0.6862260612359634  0.2803429916223551  0.47872886570416984  1.0000
  O   O5        1.0  0.6449359576264018  0.5065708118246092  0.35090043186959724  1.0000
  O   O6        1.0  0.35506433561656786  0.49349252927231657  0.6490992218085694  1.0000
  O   O7        1.0  0.3353780179874947  0.49929127872690776  0.3928615894192617  1.0000
  O   O8        1.0  0.6646296328236333  0.5007236842123817  0.6071436657151777  1.0000
  F   F1        1.0  0.23992292574387625  0.7209176965191874  0.0662168207690996  1.0000
  F   F2        1.0  0.7600394423243558  0.27907537175030933  0.9337874825274142  1.0000
  F   F3        1.0  0.17770403505517146  0.43872198286562986  0.9641247978759537  1.0000
  F   F4        1.0  0.8222523972810125  0.5612812445637657  0.035885965684627805  1.0000
