data_image0
_chemical_formula_structural       Cu8H80C88N24O22
_chemical_formula_sum              "Cu8 H80 C88 N24 O22"
_cell_length_a       16.368846193246053
_cell_length_b       16.54033791242135
_cell_length_c       16.539306029423916
_cell_angle_alpha    89.99884737068125
_cell_angle_beta     90.00132829809245
_cell_angle_gamma    90.00016028797464

_space_group_name_H-M_alt    "P 1"
_space_group_IT_number       1

loop_
  _space_group_symop_operation_xyz
  'x, y, z'

loop_
  _atom_site_type_symbol
  _atom_site_label
  _atom_site_symmetry_multiplicity
  _atom_site_fract_x
  _atom_site_fract_y
  _atom_site_fract_z
  _atom_site_occupancy
  Cu  Cu1       1.0  0.41925373976036434  0.42216614197396746  0.539861217389344  1.0000
  Cu  Cu2       1.0  0.4192264130739929  0.5778129347297849  0.46008398413623997  1.0000
  Cu  Cu3       1.0  0.5806260432352488  0.5399774709956376  0.5778270801484311  1.0000
  Cu  Cu4       1.0  0.5806557271449578  0.4600209295215051  0.4221256019405004  1.0000
  Cu  Cu5       1.0  0.08064059643622562  0.07787051617207649  0.03991089619530899  1.0000
  Cu  Cu6       1.0  0.080634224489458  0.9221333573594279  0.9601124756011286  1.0000
  Cu  Cu7       1.0  0.9193107719307106  0.960021112158259  0.0778603235260178  1.0000
  Cu  Cu8       1.0  0.9192918062212527  0.03994883037304219  0.9222173357944141  1.0000
  H   H1        1.0  0.19626996927656387  0.18315402972526576  0.5145144003652362  1.0000
  H   H2        1.0  0.10532760940040478  0.10032910286231099  0.606102759566667  1.0000
  H   H3        1.0  0.2006250090274548  0.2269538576231511  0.8132365654338185  1.0000
  H   H4        1.0  0.28779252192367716  0.311146605620415  0.7208607018482525  1.0000
  H   H5        1.0  0.24351434335942912  0.028453666100993803  0.7477401394833407  1.0000
  H   H6        1.0  0.18339286250212436  0.9561742950543817  0.6952932773572511  1.0000
  H   H7        1.0  0.20796496339037424  0.9403883532153613  0.7997983796886031  1.0000
  H   H8        1.0  0.9343079999947576  0.20348791811013459  0.8422047001126953  1.0000
  H   H9        1.0  0.9756594913708982  0.22788203021794118  0.7448344533969544  1.0000
  H   H10       1.0  0.0310632091654028  0.2526289632185054  0.8343112799212375  1.0000
  H   H11       1.0  0.19630276558536516  0.8168798641454911  0.4854625504540806  1.0000
  H   H12       1.0  0.105339206738158  0.8996946880278643  0.39388001030753367  1.0000
  H   H13       1.0  0.2005702018760118  0.7730603664372069  0.18673763125385526  1.0000
  H   H14       1.0  0.2877558433482079  0.6888284297302505  0.279103124564493  1.0000
  H   H15       1.0  0.2434401186981958  0.9715198532507188  0.2522506905450186  1.0000
  H   H16       1.0  0.18335826063666621  0.0438200556424349  0.3047191297520442  1.0000
  H   H17       1.0  0.2079081306508002  0.0596017374789426  0.20020245470282558  1.0000
  H   H18       1.0  0.9342643118139266  0.7964917888075362  0.15782766499265924  1.0000
  H   H19       1.0  0.975652922111287  0.7721090833862689  0.25518685566331095  1.0000
  H   H20       1.0  0.03103357560338079  0.747378634815391  0.1656929493912145  1.0000
  H   H21       1.0  0.8039282059199877  0.5144447890342789  0.8167642422457816  1.0000
  H   H22       1.0  0.8948782291186959  0.6060454429541694  0.8995917904394659  1.0000
  H   H23       1.0  0.7993607589363734  0.8131858010537981  0.773041546639085  1.0000
  H   H24       1.0  0.7122099093537742  0.7207671951984196  0.6888920500091018  1.0000
  H   H25       1.0  0.7565141307248595  0.7475966097813469  0.9715222207788939  1.0000
  H   H26       1.0  0.8166771850425503  0.6951755548246935  0.04380636837868929  1.0000
  H   H27       1.0  0.7920686450604393  0.799672672727958  0.0595718738676752  1.0000
  H   H28       1.0  0.0657356666749322  0.8422129757487441  0.796525516238546  1.0000
  H   H29       1.0  0.024401618295939898  0.7448421657415593  0.7721294668191658  1.0000
  H   H30       1.0  0.9689694043955653  0.8342891147277599  0.7474089698005952  1.0000
  H   H31       1.0  0.803911616906305  0.48558098187196924  0.18323467163867238  1.0000
  H   H32       1.0  0.8948577372593007  0.39398922318179785  0.1003940491741915  1.0000
  H   H33       1.0  0.799392899287291  0.18683366411300992  0.22693171891362596  1.0000
  H   H34       1.0  0.7122382443427567  0.2792346245579722  0.3111024600793613  1.0000
  H   H35       1.0  0.7565816882553591  0.25240490680477723  0.028468863581878195  1.0000
  H   H36       1.0  0.816749657536782  0.304831722631917  0.9561951821474464  1.0000
  H   H37       1.0  0.7921128187556974  0.20034794517054877  0.9403922810297229  1.0000
  H   H38       1.0  0.0657172623823996  0.1577877789558713  0.20353830792329564  1.0000
  H   H39       1.0  0.0243820755771864  0.2551659230737472  0.2279357390535068  1.0000
  H   H40       1.0  0.9689682164289551  0.1657296988866364  0.2526684846233777  1.0000
  H   H41       1.0  0.3037879503053631  0.31679805745179124  0.014475033022833397  1.0000
  H   H42       1.0  0.3947540470448558  0.3996062095377725  0.1060715053014221  1.0000
  H   H43       1.0  0.2994100007048459  0.2730389368403294  0.3131987464492383  1.0000
  H   H44       1.0  0.21222353858592413  0.18884626243623603  0.22081534504084024  1.0000
  H   H45       1.0  0.2565026532535343  0.471463117223152  0.24773259345943902  1.0000
  H   H46       1.0  0.31657314634865935  0.5437565647723092  0.19525095926044136  1.0000
  H   H47       1.0  0.29203068351936423  0.5595473957641846  0.29975462837832356  1.0000
  H   H48       1.0  0.5657675432870163  0.2965055344126597  0.3421871452904668  1.0000
  H   H49       1.0  0.5244056394589691  0.2721201908817933  0.244821892862511  1.0000
  H   H50       1.0  0.46901171757989607  0.24735774245952769  0.33428722607352057  1.0000
  H   H51       1.0  0.3038103235807982  0.6832253521958621  0.9854803054252201  1.0000
  H   H52       1.0  0.3947745833178048  0.600412183681314  0.8939052191817466  1.0000
  H   H53       1.0  0.29939412842092844  0.7269539666109496  0.6867738574158294  1.0000
  H   H54       1.0  0.21219138940880103  0.811148349576996  0.7791494872253251  1.0000
  H   H55       1.0  0.2565074040498416  0.5285450937524416  0.7522650940547633  1.0000
  H   H56       1.0  0.31659809929406885  0.45625680982368516  0.8047505500847265  1.0000
  H   H57       1.0  0.292025310019504  0.44045935801648994  0.7002451504263049  1.0000
  H   H58       1.0  0.5657625896733762  0.7034710030185918  0.6578029610180067  1.0000
  H   H59       1.0  0.5244063847812299  0.7278697293670361  0.7551623423535999  1.0000
  H   H60       1.0  0.46899286264532947  0.7526212210980316  0.6656988713296526  1.0000
  H   H61       1.0  0.6960863121437767  0.9855646015166432  0.316809600931073  1.0000
  H   H62       1.0  0.605136318379536  0.89395152144818  0.3996153630725274  1.0000
  H   H63       1.0  0.7006158776439693  0.6868035757932418  0.2730352738551147  1.0000
  H   H64       1.0  0.7877726393914556  0.7792204809779476  0.1888959658203291  1.0000
  H   H65       1.0  0.7434373731120872  0.752375961744505  0.4715313562365182  1.0000
  H   H66       1.0  0.6832687883032306  0.8048050465839295  0.5437983687843371  1.0000
  H   H67       1.0  0.7078780915042843  0.7003118356566418  0.5595976709763093  1.0000
  H   H68       1.0  0.4342962229271238  0.6577557644807256  0.2964492256965556  1.0000
  H   H69       1.0  0.4756204824960122  0.7551342257122897  0.2720397214513638  1.0000
  H   H70       1.0  0.5310504336747144  0.6656786501179326  0.2473458616684567  1.0000
  H   H71       1.0  0.6960913936392499  0.0144553589182621  0.68317527530192  1.0000
  H   H72       1.0  0.6051476870859813  0.10607768384830508  0.600363846362029  1.0000
  H   H73       1.0  0.7006174424938791  0.3132160506339474  0.7269093474526611  1.0000
  H   H74       1.0  0.7877851269953098  0.2208010619239573  0.8110902887758726  1.0000
  H   H75       1.0  0.7434244668134368  0.2476555575390478  0.5284716288010499  1.0000
  H   H76       1.0  0.6832913509440957  0.19521950392068285  0.4561778240565885  1.0000
  H   H77       1.0  0.7078962692336646  0.29972356236933717  0.440391736891513  1.0000
  H   H78       1.0  0.43430028713021335  0.3422239932912419  0.7035135553298915  1.0000
  H   H79       1.0  0.4756275467416984  0.24484484832357373  0.7279265163377387  1.0000
  H   H80       1.0  0.5310423064000959  0.33429928432985895  0.7526408819411614  1.0000
  C   C1        1.0  0.301853547282512  0.29985389912319954  0.5560586099456514  1.0000
  C   C2        1.0  0.246649639343488  0.2522333597123136  0.6122022843824126  1.0000
  C   C3        1.0  0.1955047083247194  0.1926855585026317  0.5797444706044671  1.0000
  C   C4        1.0  0.1457407373893176  0.1468648549928204  0.6303310933486728  1.0000
  C   C5        1.0  0.1481437697911332  0.16014687925081716  0.7138071339538355  1.0000
  C   C6        1.0  0.1987792559605097  0.21901978483710852  0.7476543009874914  1.0000
  C   C7        1.0  0.2474258107776848  0.2651604986549856  0.6960689284637311  1.0000
  C   C8        1.0  0.19243996446112277  0.985958080841435  0.7541322302690503  1.0000
  C   C9        1.0  0.1178307753786996  0.0288132325529418  0.7815173169993627  1.0000
  C   C10       1.0  0.0298472320111856  0.12726270305647353  0.8054348015672588  1.0000
  C   C11       1.0  0.9903251486004052  0.20771156239914035  0.8064959994129024  1.0000
  C   C12       1.0  0.3018629649344006  0.7001793247764141  0.4439295292244694  1.0000
  C   C13       1.0  0.2466455269590355  0.7477774075993509  0.3877762128396256  1.0000
  C   C14       1.0  0.19550835584701076  0.8073284421390028  0.4202361657360924  1.0000
  C   C15       1.0  0.1457442367417556  0.8531510663078308  0.36965278476215957  1.0000
  C   C16       1.0  0.14813628837014653  0.8398513285443628  0.2861813936173333  1.0000
  C   C17       1.0  0.1987559530108314  0.780972206119678  0.2523260805767862  1.0000
  C   C18       1.0  0.24740886442749851  0.7348290506787619  0.3039082973882117  1.0000
  C   C19       1.0  0.19239062495269368  0.014041637422110401  0.24587887422622862  1.0000
  C   C20       1.0  0.117763275246503  0.9712011485174082  0.21853643823563118  1.0000
  C   C21       1.0  0.0298064988869911  0.8727377271987821  0.19460035689863986  1.0000
  C   C22       1.0  0.9902953782525117  0.7922838931493955  0.1935217591264689  1.0000
  C   C23       1.0  0.6981906348289256  0.5560276225771901  0.7001470777996133  1.0000
  C   C24       1.0  0.7534234106868993  0.6121493297240407  0.7477706033539986  1.0000
  C   C25       1.0  0.8046175747960403  0.5796805913544745  0.8072864350473167  1.0000
  C   C26       1.0  0.8543829172338347  0.6302720421246378  0.8531101345994685  1.0000
  C   C27       1.0  0.8519210797878783  0.7137487652583445  0.8398485837949251  1.0000
  C   C28       1.0  0.8012481269830971  0.7476085316581019  0.7810040333618176  1.0000
  C   C29       1.0  0.7526074211234359  0.696009244163008  0.7348712041270886  1.0000
  C   C30       1.0  0.807595234118388  0.7539951989287985  0.014014108665463697  1.0000
  C   C31       1.0  0.8822195352211253  0.7813977784627681  0.971199301108548  1.0000
  C   C32       1.0  0.9701912122596211  0.8054100123080018  0.8727648874874703  1.0000
  C   C33       1.0  0.009725097928495102  0.8064927143415659  0.7923187119679795  1.0000
  C   C34       1.0  0.698177347057694  0.4439637646459289  0.2998418652959387  1.0000
  C   C35       1.0  0.7534172330695057  0.3878651191883691  0.2522110504134715  1.0000
  C   C36       1.0  0.8046084171283922  0.42034331519133156  0.1927027511137354  1.0000
  C   C37       1.0  0.8543766632688872  0.3697541753719165  0.14687762396560797  1.0000
  C   C38       1.0  0.8519279526996613  0.2862770325990027  0.16013452751827373  1.0000
  C   C39       1.0  0.8012638910673928  0.2524113951562299  0.2189823886571887  1.0000
  C   C40       1.0  0.7526179592280683  0.304002241917928  0.26511413941400247  1.0000
  C   C41       1.0  0.8076507285099056  0.2460049043355426  0.9859657725979005  1.0000
  C   C42       1.0  0.8822501410819471  0.21858281586419545  0.028806856022313792  1.0000
  C   C43       1.0  0.9701894609297951  0.19458029880109956  0.1272810287298398  1.0000
  C   C44       1.0  0.0097119943686508  0.19351466286554597  0.20774037243933208  1.0000
  C   C45       1.0  0.19811185533973233  0.20017385617941835  0.05604677940869609  1.0000
  C   C46       1.0  0.2533521462076679  0.24777576739470666  0.11217020723750439  1.0000
  C   C47       1.0  0.3045296484549098  0.3072912241332943  0.07970691134728718  1.0000
  C   C48       1.0  0.35429937039745596  0.35310578453678704  0.13029502963532735  1.0000
  C   C49       1.0  0.3518860657180126  0.3398371414456419  0.21376916597749573  1.0000
  C   C50       1.0  0.301242007770206  0.2809750181966706  0.24761952140870136  1.0000
  C   C51       1.0  0.2525859110537708  0.2348413401852909  0.19603551079786993  1.0000
  C   C52       1.0  0.3075615469323835  0.5139787616803559  0.2540928818460841  1.0000
  C   C53       1.0  0.38219963244081606  0.4711657496477315  0.28146007007389773  1.0000
  C   C54       1.0  0.47019718223073437  0.3727311344517261  0.3053982833180484  1.0000
  C   C55       1.0  0.5097422388079877  0.29228796846347643  0.3064835391624712  1.0000
  C   C56       1.0  0.1981447070056319  0.7997758537676062  0.943990480620826  1.0000
  C   C57       1.0  0.253362413623762  0.7522332886494213  0.8877980972696305  1.0000
  C   C58       1.0  0.30455254170980334  0.6927254791673574  0.9202501827839311  1.0000
  C   C59       1.0  0.3543225182222045  0.6469120185744117  0.8696727289192339  1.0000
  C   C60       1.0  0.35188636692872416  0.6601784249389623  0.786201198182084  1.0000
  C   C61       1.0  0.30123006550019227  0.7190334663426085  0.7523559657506098  1.0000
  C   C62       1.0  0.2525695897738203  0.765168378588527  0.803935272520917  1.0000
  C   C63       1.0  0.3075644435137194  0.4860268260842062  0.7459075100092036  1.0000
  C   C64       1.0  0.38220444212088006  0.5288324225442907  0.7185405983779559  1.0000
  C   C65       1.0  0.4701918067254027  0.6272670853240498  0.6945943751586724  1.0000
  C   C66       1.0  0.5097366245524172  0.7077030523730558  0.6935018297376556  1.0000
  C   C67       1.0  0.8018122675657368  0.9439610357412319  0.2001461140600753  1.0000
  C   C68       1.0  0.7465805957585516  0.8878545942223539  0.24779079669676923  1.0000
  C   C69       1.0  0.6953890298674921  0.9203267023960392  0.307312004773884  1.0000
  C   C70       1.0  0.6456202855400051  0.8697238356561527  0.3531239515266904  1.0000
  C   C71       1.0  0.6480767888464103  0.7862442931113023  0.3398517404533621  1.0000
  C   C72       1.0  0.6987423406847668  0.752384590708111  0.2810021134080074  1.0000
  C   C73       1.0  0.7473882421200528  0.8039893374048219  0.2348819782049318  1.0000
  C   C74       1.0  0.6923567676841529  0.7459746555913541  0.5140234352690739  1.0000
  C   C75       1.0  0.617750252715723  0.7185531249968877  0.47117830701542823  1.0000
  C   C76       1.0  0.5297991845950207  0.694565690041088  0.37271389086356516  1.0000
  C   C77       1.0  0.4902970997606745  0.6934893317814144  0.2922481821452649  1.0000
  C   C78       1.0  0.8018384996815726  0.0560485679991842  0.7998571920386366  1.0000
  C   C79       1.0  0.746598731583184  0.1121591562678859  0.7522040819364548  1.0000
  C   C80       1.0  0.695401895612612  0.0796908906061731  0.6926807848193305  1.0000
  C   C81       1.0  0.6456291092178147  0.13029144721704713  0.6468666382477295  1.0000
  C   C82       1.0  0.6480874295327581  0.2137702018213972  0.6601314038517003  1.0000
  C   C83       1.0  0.6987540046009784  0.2476291248681903  0.718978928794229  1.0000
  C   C84       1.0  0.7473996284167156  0.1960279811007695  0.7651067925083834  1.0000
  C   C85       1.0  0.6923659225244306  0.254052236100641  0.48595386985219585  1.0000
  C   C86       1.0  0.6177554433905071  0.2814485332154034  0.5287938781286383  1.0000
  C   C87       1.0  0.5298071248362817  0.3054322909305469  0.6272590450558582  1.0000
  C   C88       1.0  0.4903005856463879  0.3064934769227179  0.7077223635059653  1.0000
  N   N1        1.0  0.05989946499330761  0.9990657729604346  0.8280900896529103  1.0000
  N   N2        1.0  0.0053472415317302  0.060557671828618716  0.8426853704117575  1.0000
  N   N3        1.0  0.10073226320648129  0.1088678033936858  0.7651735522453718  1.0000
  N   N4        1.0  0.0597933241842341  0.0009680625025510001  0.1720292135245955  1.0000
  N   N5        1.0  0.0052669962874177  0.9394621219551169  0.15741637990878837  1.0000
  N   N6        1.0  0.1007091013499561  0.8911273107068  0.23483012766234873  1.0000
  N   N7        1.0  0.9401333727917487  0.8279652021602644  0.00098921683459  1.0000
  N   N8        1.0  0.9946665934027621  0.84262602701142  0.9394962765791561  1.0000
  N   N9        1.0  0.8993243830416517  0.7651145909066341  0.8911346106251443  1.0000
  N   N10       1.0  0.9401459332488076  0.17197657946859118  0.9990559928003577  1.0000
  N   N11       1.0  0.9946643835617693  0.15733282074182142  0.0605628596056036  1.0000
  N   N12       1.0  0.8993437953770068  0.2349009954995012  0.10886841543060649  1.0000
  N   N13       1.0  0.44012356733233565  0.5009367768277286  0.3280269683022751  1.0000
  N   N14       1.0  0.4946810854942001  0.43945443400195217  0.3426224270681856  1.0000
  N   N15       1.0  0.39931136281336416  0.3911116637392452  0.2651283396668589  1.0000
  N   N16       1.0  0.4401426762536362  0.49905220698637726  0.6720006618990125  1.0000
  N   N17       1.0  0.49468631080857495  0.5605437593949603  0.6573852680577303  1.0000
  N   N18       1.0  0.3993009861293686  0.6088955061702421  0.734848032391362  1.0000
  N   N19       1.0  0.5598316472328192  0.6719685199878428  0.5009317483777735  1.0000
  N   N20       1.0  0.5052985934595711  0.6573249689733274  0.439427640805107  1.0000
  N   N21       1.0  0.6006622169869188  0.7348624531728803  0.3911153606417059  1.0000
  N   N22       1.0  0.5598222650545138  0.32800544405755266  0.49903160864080576  1.0000
  N   N23       1.0  0.5052950965516273  0.3426512743393387  0.5605326755636424  1.0000
  N   N24       1.0  0.6006798013675975  0.265151973327022  0.6088623786484106  1.0000
  O   O1        1.0  0.33425160922330116  0.36227429179882614  0.5918677062368332  1.0000
  O   O2        1.0  0.3131275289933129  0.27754614078834544  0.4852295757335198  1.0000
  O   O3        1.0  0.3342367247695606  0.6377504567181447  0.4081130918829103  1.0000
  O   O4        1.0  0.3131647953099659  0.7224886550896129  0.514752854252535  1.0000
  O   O5        1.0  0.6657222429619125  0.5918327648561998  0.6377541537334322  1.0000
  O   O6        1.0  0.6869629209626992  0.48520039136933246  0.7224655232246917  1.0000
  O   O7        1.0  0.6657315706097506  0.40812357585186737  0.36222338727535686  1.0000
  O   O8        1.0  0.6869111140260458  0.5147978803332763  0.2775611718180073  1.0000
  O   O9        1.0  0.1656810333058019  0.1377818156946518  0.0918731006949542  1.0000
  O   O10       1.0  0.1868344218907723  0.2224701449758939  0.985213529171901  1.0000
  O   O11       1.0  0.16570291190392794  0.862208405817775  0.9082440626970579  1.0000
  O   O12       1.0  0.1869147450199833  0.7773818665118453  0.014796775955488797  1.0000
  O   O13       1.0  0.8342184388117602  0.9081382445304697  0.13773089815048678  1.0000
  O   O14       1.0  0.8131006173891677  0.014782292326806598  0.22244891869065234  1.0000
  O   O15       1.0  0.8342799038567109  0.0918810202077651  0.8622529738184211  1.0000
  O   O16       1.0  0.8130960289179683  0.9852137641896872  0.7775885824413677  1.0000
  O   O17       1.0  0.5000005022745597  0.49999316026677576  0.49995799253081674  1.0000
  O   O18       1.0  0.9999485136332282  0.9999898144869518  1.7915925525399986e-05  1.0000
  O   O19       1.0  0.3523621249209867  0.5000174290986694  0.5000513708101194  1.0000
  O   O20       1.0  0.6474348409418907  0.49984251226641857  0.500065944989295  1.0000
  O   O21       1.0  0.1474394401905244  0.999923235643699  0.00017721755433799998  1.0000
  O   O22       1.0  0.8524610259872247  0.9999530244205488  4.477255299659999e-05  1.0000
