data_image0
_chemical_formula_structural       Al2H20C32O10F2
_chemical_formula_sum              "Al2 H20 C32 O10 F2"
_cell_length_a       6.633167271668727
_cell_length_b       15.383819686738516
_cell_length_c       17.6846122314203
_cell_angle_alpha    83.3371581411846
_cell_angle_beta     80.35779736662278
_cell_angle_gamma    77.42060022894113

_space_group_name_H-M_alt    "P 1"
_space_group_IT_number       1

loop_
  _space_group_symop_operation_xyz
  'x, y, z'

loop_
  _atom_site_type_symbol
  _atom_site_label
  _atom_site_symmetry_multiplicity
  _atom_site_fract_x
  _atom_site_fract_y
  _atom_site_fract_z
  _atom_site_occupancy
  Al  Al1       1.0  0.49718051742522823  0.501342104073764  0.499650943152396  1.0000
  Al  Al2       1.0  0.9973495604663611  0.501404365794002  0.4993326406781548  1.0000
  H   H1        1.0  0.2487904155150034  0.4257474089807048  0.5829379690393279  1.0000
  H   H2        1.0  0.7424271410821321  0.5802811618276635  0.41777141718718963  1.0000
  H   H3        1.0  0.6223026687513383  0.5614347009717875  0.26755031866709084  1.0000
  H   H4        1.0  0.7012046042381997  0.5595322888713241  0.12446725703928506  1.0000
  H   H5        1.0  0.09161189848298792  0.44340382356996594  0.26864001897550327  1.0000
  H   H6        1.0  0.9059618490603756  0.5583863986961147  0.7293995506090665  1.0000
  H   H7        1.0  0.3866677138939493  0.43198957977187286  0.7337687647607465  1.0000
  H   H8        1.0  0.31837603969823647  0.43013906658204354  0.8771951931850946  1.0000
  H   H9        1.0  0.8077936840004512  0.7720951630148674  0.4818394459274841  1.0000
  H   H10       1.0  0.17164887272577545  0.23042146672619873  0.5302720983852041  1.0000
  H   H11       1.0  0.5955591789574657  0.23175691225313239  0.44866651317309447  1.0000
  H   H12       1.0  0.6803231334066525  0.068674114418549  0.4540597108846995  1.0000
  H   H13       1.0  0.4124230079098227  0.771401005546167  0.5395797027360416  1.0000
  H   H14       1.0  0.3297043523195385  0.9343946470867903  0.5334714744385564  1.0000
  H   H15       1.0  0.007909590603894396  0.40256640369008767  0.15327282380748386  1.0000
  H   H16       1.0  0.2342155874736137  0.36385860017473687  0.08651269532854397  1.0000
  H   H17       1.0  0.07794829960780454  0.46985502087995457  0.06786534409709329  1.0000
  H   H18       1.0  0.933648906738881  0.5288144756046051  0.9298286575533009  1.0000
  H   H19       1.0  0.7727796994056321  0.6339787024693635  0.9119456044091901  1.0000
  H   H20       1.0  0.9975359422016228  0.5966550021460648  0.844095738480817  1.0000
  C   C1        1.0  0.8223038359145606  0.3421425319345418  0.49027168291143397  1.0000
  C   C2        1.0  0.6958076314317482  0.49504897896819233  0.6381262555657655  1.0000
  C   C3        1.0  0.17184661500711948  0.6607229550420681  0.508876180231816  1.0000
  C   C4        1.0  0.3006712143635611  0.5061199393558766  0.36111888261542185  1.0000
  C   C5        1.0  0.3508120339708328  0.5032321014008261  0.27613825188794994  1.0000
  C   C6        1.0  0.524682507956548  0.5350699862948076  0.23590228812883393  1.0000
  C   C7        1.0  0.5688713234096879  0.5334927530859304  0.15656988348595038  1.0000
  C   C8        1.0  0.44351429280282423  0.497947741791826  0.11599467297498475  1.0000
  C   C9        1.0  0.2696035435688914  0.46354907471607726  0.15657340495371838  1.0000
  C   C10       1.0  0.22529534440893434  0.468225544610462  0.23606635820085833  1.0000
  C   C11       1.0  0.49050792611105015  0.4967898514160324  0.035123207013043584  1.0000
  C   C12       1.0  0.5269139195927153  0.4959398192869671  0.9650819235182623  1.0000
  C   C13       1.0  0.5703973091474381  0.49588645983759244  0.8840838692875718  1.0000
  C   C14       1.0  0.7385359015107938  0.5334087269898048  0.8425234383559683  1.0000
  C   C15       1.0  0.7769869343699725  0.5309313769779322  0.7627717212046219  1.0000
  C   C16       1.0  0.6513388831509702  0.4950481281281682  0.7234115081669684  1.0000
  C   C17       1.0  0.48393632960841865  0.45947890852752243  0.7647336248578751  1.0000
  C   C18       1.0  0.4457239747021761  0.4589118609371282  0.8442825485025051  1.0000
  C   C19       1.0  0.11768107242842507  0.7597689447322793  0.5106632158688524  1.0000
  C   C20       1.0  0.8761637226460905  0.2430153088752576  0.4893545783789292  1.0000
  C   C21       1.0  0.9235242526701557  0.807183799518455  0.49375371898764786  1.0000
  C   C22       1.0  0.8788631183377971  0.8995409620295476  0.49082861399223515  1.0000
  C   C23       1.0  0.061749308616114655  0.1954348890057886  0.5137009755614557  1.0000
  C   C24       1.0  0.1046187398015164  0.1029913938205027  0.5186143296265939  1.0000
  C   C25       1.0  0.7406858723324704  0.1953269155386792  0.46789332419307056  1.0000
  C   C26       1.0  0.7896108777199943  0.10261387139444621  0.47156737283717115  1.0000
  C   C27       1.0  0.26098120020996873  0.8076865453030206  0.5258254256605142  1.0000
  C   C28       1.0  0.21240565540428952  0.9003689319956081  0.5224276634080167  1.0000
  C   C29       1.0  0.01909766172310152  0.95180519285028  0.5039540430325857  1.0000
  C   C30       1.0  0.9728476494154992  0.05096685595535181  0.49835125890281506  1.0000
  C   C31       1.0  0.1395555982709241  0.42286004333573135  0.11430552667312094  1.0000
  C   C32       1.0  0.8684037912895948  0.5753722399600961  0.8838429482882687  1.0000
  O   O1        1.0  0.6391355901950605  0.38116359819765216  0.4781283355319486  1.0000
  O   O2        1.0  0.8721285669528032  0.5105204591265462  0.6051968467969002  1.0000
  O   O3        1.0  0.031877427428675255  0.6230965505595237  0.49343160594540325  1.0000
  O   O4        1.0  0.4393931893991834  0.5234953660083972  0.39588130471652494  1.0000
  O   O5        1.0  0.35525926849543776  0.6216144075957714  0.5207182597398229  1.0000
  O   O6        1.0  0.12290692843937737  0.49176417955832347  0.3935330814304051  1.0000
  O   O7        1.0  0.962241005677015  0.3798843372913082  0.5055557308054401  1.0000
  O   O8        1.0  0.5549404968815709  0.4788670269379763  0.6037349564262937  1.0000
  O   O9        1.0  0.2540184453721538  0.45832336968854986  0.5326556396771236  1.0000
  O   O10       1.0  0.7402598685014612  0.5445206193338235  0.46656498256129436  1.0000
  F   F1        1.0  0.683826135115261  0.9385194420480261  0.47345673908214525  1.0000
  F   F2        1.0  0.28714030829080883  0.063947606041225  0.5461963739129985  1.0000
