data_image0
_chemical_formula_structural       Al6H25C75O29F3
_chemical_formula_sum              "Al6 H25 C75 O29 F3"
_cell_length_a       12.444898502702525
_cell_length_b       12.506101943514523
_cell_length_c       28.76500541789257
_cell_angle_alpha    90.64656173381219
_cell_angle_beta     91.03093516662734
_cell_angle_gamma    61.69659011730652

_space_group_name_H-M_alt    "P 1"
_space_group_IT_number       1

loop_
  _space_group_symop_operation_xyz
  'x, y, z'

loop_
  _atom_site_type_symbol
  _atom_site_label
  _atom_site_symmetry_multiplicity
  _atom_site_fract_x
  _atom_site_fract_y
  _atom_site_fract_z
  _atom_site_occupancy
  Al  Al1       1.0  0.40896592701578527  0.4041122499302361  0.501933413939831  1.0000
  Al  Al2       1.0  0.4192621025122774  0.656603659447292  0.500739049150326  1.0000
  Al  Al3       1.0  0.6569252636518641  0.42529801429552805  0.500976400450412  1.0000
  Al  Al4       1.0  0.9316369318439329  0.92208696163852  0.003095060397384904  1.0000
  Al  Al5       1.0  0.677674217388066  0.9125016830122237  0.9996187770994001  1.0000
  Al  Al6       1.0  0.9100671995265655  0.6757780962791602  0.9994079383849056  1.0000
  H   H1        1.0  0.4599050877796741  0.7902540284620088  0.7802643241416619  1.0000
  H   H2        1.0  0.7115953829030415  0.3234715173446504  0.2841507710704789  1.0000
  H   H3        1.0  0.5633941258445175  0.8793687745279756  0.7144033085777581  1.0000
  H   H4        1.0  0.7185429856523485  0.28778264905840706  0.19860978763343706  1.0000
  H   H5        1.0  0.6275182209945881  0.9991562152562068  0.21945105828282155  1.0000
  H   H6        1.0  0.6230708430351796  0.0334195901595464  0.30506061920601724  1.0000
  H   H7        1.0  0.9565685905434332  0.8009472839597083  0.21483368040681236  1.0000
  H   H8        1.0  0.33206204247886717  0.5243472223423497  0.2047488480014223  1.0000
  H   H9        1.0  0.3533332358010382  0.5245794779411385  0.2906259555754218  1.0000
  H   H10       1.0  0.5499423579256869  0.5685552193656777  0.7292456416196773  1.0000
  H   H11       1.0  0.7671445890828393  0.4722213602509911  0.7828463376521385  1.0000
  H   H12       1.0  0.6334864581637304  0.028247844705340707  0.695274734526663  1.0000
  H   H13       1.0  0.8719371613688834  0.5613262367153882  0.717173344165822  1.0000
  H   H14       1.0  0.7833587191624288  0.7819223802480125  0.768125625848356  1.0000
  H   H15       1.0  0.6374344455424958  0.996590334325035  0.7811010556272394  1.0000
  H   H16       1.0  0.8645409930069263  0.8797816082055692  0.2838519934619583  1.0000
  H   H17       1.0  0.0392699243635376  0.623055260446151  0.6959874337046443  1.0000
  H   H18       1.0  0.004354239383289282  0.6275970632179764  0.7812672169604937  1.0000
  H   H19       1.0  0.3015952357097901  0.7067315124278721  0.8075504440632955  1.0000
  H   H20       1.0  0.33625726251588617  0.7023187302230838  0.7222933750718853  1.0000
  H   H21       1.0  0.7615446654224411  0.7494940480419746  0.3054236786568012  1.0000
  H   H22       1.0  0.7821802254768213  0.7666085501144196  0.22030577273098836  1.0000
  H   H23       1.0  0.5610491691438709  0.5893998863915756  0.1938586013842496  1.0000
  H   H24       1.0  0.29278136249112646  0.3131430083980363  0.4749600264267216  1.0000
  H   H25       1.0  0.044840099930375694  0.014410150699227103  0.9769993925916511  1.0000
  C   C1        1.0  0.2872629317206189  0.6156515277467565  0.5682776234391582  1.0000
  C   C2        1.0  0.6486586809545469  0.6555678559238204  0.6522847739095639  1.0000
  C   C3        1.0  0.6567560708390587  0.22906939611046798  0.6123819981997585  1.0000
  C   C4        1.0  0.6126655152186444  0.6180559320198713  0.5641142731898655  1.0000
  C   C5        1.0  0.6989820655801037  0.24957923964202428  0.7327362783324463  1.0000
  C   C6        1.0  0.7005789911625016  0.23253324318201155  0.780416521880774  1.0000
  C   C7        1.0  0.6545172339889901  0.0674905278214482  0.7670478148109511  1.0000
  C   C8        1.0  0.6525587332745175  0.0847864906908029  0.7195269589979247  1.0000
  C   C9        1.0  0.6743283928851725  0.1769404394479039  0.7012408010386937  1.0000
  C   C10       1.0  0.678717397649706  0.14103271937245412  0.7986693334096062  1.0000
  C   C11       1.0  0.6851528404910494  0.12085582941561065  0.8469914417413378  1.0000
  C   C12       1.0  0.6379015052108766  0.6441483415394703  0.6105050353492558  1.0000
  C   C13       1.0  0.667392802222544  0.20154162822404237  0.653277314729337  1.0000
  C   C14       1.0  0.6945905001342538  0.09783218117931373  0.8883211418999295  1.0000
  C   C15       1.0  0.23799716249859393  0.6451317907542562  0.6143467969590761  1.0000
  C   C16       1.0  0.6250120219330737  0.28301957063542466  0.5668684949985233  1.0000
  C   C17       1.0  0.09592556806958173  0.6416331639318928  0.7206380366326216  1.0000
  C   C18       1.0  0.07666960066038792  0.6441122044428411  0.7680485490557487  1.0000
  C   C19       1.0  0.24450230870070286  0.6886732067753201  0.7829234453157952  1.0000
  C   C20       1.0  0.2637589650823171  0.686173116387707  0.7355180581381691  1.0000
  C   C21       1.0  0.1900384783877198  0.6624147972004268  0.703627325956127  1.0000
  C   C22       1.0  0.15033453870399419  0.667997769743451  0.7999361139322121  1.0000
  C   C23       1.0  0.7310071035773545  0.7347114470775794  0.7590354892038393  1.0000
  C   C24       1.0  0.1269047264473213  0.6744864798851612  0.8480570652654509  1.0000
  C   C25       1.0  0.21356357890193314  0.6555517453276991  0.6555013325847412  1.0000
  C   C26       1.0  0.10253448732240136  0.6835645872953862  0.8892244033317738  1.0000
  C   C27       1.0  0.6271298638857061  0.6370482410920248  0.3877601846964397  1.0000
  C   C28       1.0  0.27464745318385986  0.6161179776838994  0.4364228301409909  1.0000
  C   C29       1.0  0.7180896246762669  0.7150719811785253  0.28062079007670354  1.0000
  C   C30       1.0  0.7292404814514337  0.7246984148666018  0.23311187122498472  1.0000
  C   C31       1.0  0.6058485423508129  0.6247157782173861  0.21759933425123282  1.0000
  C   C32       1.0  0.5967835675413156  0.6157674209241579  0.26511510821547557  1.0000
  C   C33       1.0  0.651094349560381  0.659913779710543  0.2981433165928778  1.0000
  C   C34       1.0  0.672905035290057  0.684681109057259  0.7964302400535814  1.0000
  C   C35       1.0  0.6732686098787962  0.6799224899710271  0.20081562480068274  1.0000
  C   C36       1.0  0.6854340854404413  0.6902047975972821  0.15232023403469705  1.0000
  C   C37       1.0  0.6385711687559021  0.6481773719900802  0.34637828775424145  1.0000
  C   C38       1.0  0.6976940624765716  0.6998719511051735  0.1108650257491846  1.0000
  C   C39       1.0  0.6505513654406984  0.23001531950856707  0.3896383032497255  1.0000
  C   C40       1.0  0.6045700177964264  0.6127351485460437  0.4344801215532996  1.0000
  C   C41       1.0  0.69412539967918  0.25222850944973635  0.2696970739212787  1.0000
  C   C42       1.0  0.697249379796112  0.23286777592112884  0.22209025191173745  1.0000
  C   C43       1.0  0.6464418965801642  0.06958238739496642  0.2338496021486236  1.0000
  C   C44       1.0  0.6438113160305008  0.08864660271056121  0.2815213178038292  1.0000
  C   C45       1.0  0.7805072072743542  0.6123934634639455  0.7315474639383056  1.0000
  C   C46       1.0  0.6673978350107602  0.18044139233300882  0.3001419842409875  1.0000
  C   C47       1.0  0.6736045305934012  0.14112370194984444  0.2034292170192131  1.0000
  C   C48       1.0  0.6802810162609846  0.11859115606880274  0.1550287040916913  1.0000
  C   C49       1.0  0.6605003898661579  0.2041708735324904  0.3484428205225711  1.0000
  C   C50       1.0  0.6896087387383362  0.0962742785925386  0.11350837437203151  1.0000
  C   C51       1.0  0.21884929771766767  0.6441631321428221  0.39109219131866985  1.0000
  C   C52       1.0  0.6204342188109847  0.2820842293127726  0.4354186430244553  1.0000
  C   C53       1.0  0.05349624019663652  0.737566502866152  0.2798335397889247  1.0000
  C   C54       1.0  0.04333282299322847  0.7389899459228959  0.23147108360102212  1.0000
  C   C55       1.0  0.25434659801572207  0.5841905355185589  0.22582526567524755  1.0000
  C   C56       1.0  0.6590259197634222  0.6667652923093927  0.7009759507488624  1.0000
  C   C57       1.0  0.26613906557449934  0.5837915274606689  0.2738835801827406  1.0000
  C   C58       1.0  0.16658173047763092  0.6597919117914516  0.30190707065279554  1.0000
  C   C59       1.0  0.1423932392377337  0.6620322907602444  0.20372516516776787  1.0000
  C   C60       1.0  0.12603756501136584  0.6658162128136951  0.1549046269211587  1.0000
  C   C61       1.0  0.18570213143087222  0.6564893781710737  0.35048496430434284  1.0000
  C   C62       1.0  0.10324417049869074  0.6762236229736871  0.11335606905168313  1.0000
  C   C63       1.0  0.7234217449554734  0.048089266811949506  0.9345363591271507  1.0000
  C   C64       1.0  0.6092838021174525  0.7890398400214386  0.7300632979657992  1.0000
  C   C65       1.0  0.715051115316498  0.7280118142967994  0.9342153097549686  1.0000
  C   C66       1.0  0.0525080124587731  0.7098563931543824  0.935139813736676  1.0000
  C   C67       1.0  0.7225727750627158  0.5625234118075967  0.7673524578774007  1.0000
  C   C68       1.0  0.7165123996553006  0.04843632884789172  0.0670503857132658  1.0000
  C   C69       1.0  0.7231710900519556  0.7218654830372631  0.0642547934171915  1.0000
  C   C70       1.0  0.05260762743989014  0.7092894023170474  0.0671457677770633  1.0000
  C   C71       1.0  0.5513324845537325  0.7391302506948636  0.7658704750185095  1.0000
  C   C72       1.0  0.6918446452340918  0.7049222171673437  0.8871645004825197  1.0000
  C   C73       1.0  0.9432932629786487  0.8166558546954337  0.3062186160064116  1.0000
  C   C74       1.0  0.6010527147262222  0.6168092917317409  0.7384338420403156  1.0000
  C   C75       1.0  0.6823206953269009  0.6952632906037906  0.8451839358434299  1.0000
  O   O1        1.0  0.5229494700525874  0.30251489667032433  0.5503359259833118  1.0000
  O   O2        1.0  0.8120784582319373  0.6482286718449972  0.9544353864403164  1.0000
  O   O3        1.0  0.02151377797200366  0.6331222322781757  0.9517983756980757  1.0000
  O   O4        1.0  0.31179320617984246  0.5120922237738841  0.552697468538142  1.0000
  O   O5        1.0  0.025240745129309197  0.8152969682801516  0.054342299456330116  1.0000
  O   O6        1.0  0.8178381890714944  0.027548715553926708  0.0505844285260153  1.0000
  O   O7        1.0  0.635560149656328  0.026077211425835904  0.046940900806802695  1.0000
  O   O8        1.0  0.6455815538162993  0.8199340425921378  0.044674209901067706  1.0000
  O   O9        1.0  0.8250186116082502  0.6442569493376171  0.047200336018036616  1.0000
  O   O10       1.0  0.03429874517426855  0.6304592031946543  0.04393217712575392  1.0000
  O   O11       1.0  0.8386797049915484  0.8358859343715044  0.00047165842416060173  1.0000
  O   O12       1.0  0.503851192447456  0.6887783727517559  0.45262790432547473  1.0000
  O   O13       1.0  0.3064299968147779  0.6963467305149323  0.5479423784775079  1.0000
  O   O14       1.0  0.5109556485985606  0.69348254312731  0.5452962618192458  1.0000
  O   O15       1.0  0.6906832273516269  0.5180264423918431  0.5456619077972817  1.0000
  O   O16       1.0  0.701731247779051  0.3110825091400074  0.5483997248197738  1.0000
  O   O17       1.0  0.5168822750925628  0.30599882742910733  0.4505365278374285  1.0000
  O   O18       1.0  0.3014626545598276  0.5128856003519502  0.452606202227294  1.0000
  O   O19       1.0  0.2974731903207795  0.6967944189212077  0.4558164245610144  1.0000
  O   O20       1.0  0.933430845133024  0.8155716774885424  0.3484483710956567  1.0000
  O   O21       1.0  0.6842186385844967  0.5138678707766432  0.45302109632670107  1.0000
  O   O22       1.0  0.7003066283811917  0.3047327132795914  0.4562472963930873  1.0000
  O   O23       1.0  0.4960953110390706  0.4964067046985079  0.5011321966710227  1.0000
  O   O24       1.0  0.03813972612870476  0.8068122145359313  0.9544355433380147  1.0000
  O   O25       1.0  0.8287386859078153  0.0200019856515468  0.950178748599818  1.0000
  O   O26       1.0  0.6408348230913531  0.0318265112877896  0.9547691956730378  1.0000
  O   O27       1.0  0.6396110793563915  0.830346449941907  0.952036584605537  1.0000
  O   O28       1.0  0.33094545891974986  0.319244561435717  0.5036974816081212  1.0000
  O   O29       1.0  0.015372435564650299  0.0012905682755502002  0.0061108429114469015  1.0000
  F   F1        1.0  0.532598160150364  0.5609461809795065  0.28076161865718774  1.0000
  F   F2        1.0  0.7203678469828674  0.33874421806590505  0.7166431830037185  1.0000
  F   F3        1.0  0.7236284951628278  0.3054033723226795  0.8093174670350721  1.0000
