data_image0
_chemical_formula_structural       Zn4H40C40O20
_chemical_formula_sum              "Zn4 H40 C40 O20"
_cell_length_a       5.717210679
_cell_length_b       8.79012945155272
_cell_length_c       20.796861297407617
_cell_angle_alpha    90.00021340392071
_cell_angle_beta     89.99871095896137
_cell_angle_gamma    89.99706247104508

_space_group_name_H-M_alt    "P 1"
_space_group_IT_number       1

loop_
  _space_group_symop_operation_xyz
  'x, y, z'

loop_
  _atom_site_type_symbol
  _atom_site_label
  _atom_site_symmetry_multiplicity
  _atom_site_fract_x
  _atom_site_fract_y
  _atom_site_fract_z
  _atom_site_occupancy
  Zn  Zn1       1.0  0.04406568542943749  0.0455744851439803  0.9759895839574567  1.0000
  Zn  Zn2       1.0  0.4559421211045275  0.954425863543406  0.4759876916526764  1.0000
  Zn  Zn3       1.0  0.5440474645832083  0.4544235539858192  0.0240065071834721  1.0000
  Zn  Zn4       1.0  0.955931004416108  0.545582478059771  0.524009361171828  1.0000
  H   H1        1.0  0.8458136889510115  0.8030987715990605  0.0278181400489785  1.0000
  H   H2        1.0  0.6541781487805665  0.1969141534489012  0.5278171473030184  1.0000
  H   H3        1.0  0.345805176675043  0.6969220840617325  0.9721813169844752  1.0000
  H   H4        1.0  0.1541717685927466  0.3030827480836109  0.4721837522558019  1.0000
  H   H5        1.0  0.6707821780929208  0.8691914543196332  0.972995862975921  1.0000
  H   H6        1.0  0.8292294975001793  0.1308088416315059  0.47299877908903193  1.0000
  H   H7        1.0  0.1707621298643716  0.6308294013326828  0.027002632373957197  1.0000
  H   H8        1.0  0.3292212147070259  0.369183509325353  0.5270001971026304  1.0000
  H   H9        1.0  0.0344586154569413  0.7472860018052714  0.6541294769914643  1.0000
  H   H10       1.0  0.4655161653123016  0.2527132232087085  0.1541376823642651  1.0000
  H   H11       1.0  0.5344230140471495  0.7526893482134155  0.3458637290987241  1.0000
  H   H12       1.0  0.9655674923683577  0.2473052934776234  0.8458632171945554  1.0000
  H   H13       1.0  0.8056285423666552  0.8165382620651157  0.6067867560791171  1.0000
  H   H14       1.0  0.6943573657528574  0.1834737799834727  0.10679496145191789  1.0000
  H   H15       1.0  0.3056014750914144  0.6834439138212928  0.3932098159035959  1.0000
  H   H16       1.0  0.1943848996229463  0.3165401861780737  0.8932097848412183  1.0000
  H   H17       1.0  0.16267630233911493  0.019625695905254804  0.676363601338771  1.0000
  H   H18       1.0  0.3373368185320089  0.9803648199612099  0.1763703641862051  1.0000
  H   H19       1.0  0.6626679190243792  0.4803416269406  0.323631047276784  1.0000
  H   H20       1.0  0.8373472149554644  0.5196560357589277  0.8236358246322979  1.0000
  H   H21       1.0  0.9210183725612638  0.08572785034682082  0.6311130230526132  1.0000
  H   H22       1.0  0.5789985369885926  0.914276657048262  0.1311164200075225  1.0000
  H   H23       1.0  0.42100962352058957  0.4142497112730723  0.3688835489300999  1.0000
  H   H24       1.0  0.07900347066650681  0.5857362351814359  0.8688883262856136  1.0000
  H   H25       1.0  0.0490682705891388  0.8146364099394744  0.7677701830007493  1.0000
  H   H26       1.0  0.4509421319174649  0.1853625432721344  0.267780311740708  1.0000
  H   H27       1.0  0.5490286538488363  0.6853469035611823  0.23222350393123037  1.0000
  H   H28       1.0  0.950971707442214  0.314638908903845  0.7322302046539022  1.0000
  H   H29       1.0  0.7928901974243558  0.789208731867312  0.8635110725534361  1.0000
  H   H30       1.0  0.7071341509477449  0.210786221023497  0.3635197587680281  1.0000
  H   H31       1.0  0.2928378740327631  0.7107700310915916  0.1364845377456945  1.0000
  H   H32       1.0  0.20714154496950948  0.2892243322147862  0.6364845066833169  1.0000
  H   H33       1.0  0.3260603106237454  0.1260539904859996  0.785875799743252  1.0000
  H   H34       1.0  0.17398036070557052  0.8739737227458804  0.2858666948116309  1.0000
  H   H35       1.0  0.8260289050455113  0.3739622510015224  0.21413423580956698  1.0000
  H   H36       1.0  0.673958675105915  0.626033481226095  0.7141313196964489  1.0000
  H   H37       1.0  0.5754103752296942  0.1456148443335863  0.6882721290979674  1.0000
  H   H38       1.0  0.9246129200824101  0.8544065976343234  0.1882659092170869  1.0000
  H   H39       1.0  0.07540642774893769  0.3543877454227342  0.3117316555115863  1.0000
  H   H40       1.0  0.4246107736550541  0.6455971934567727  0.8117364328671001  1.0000
  C   C1        1.0  0.1425720274927116  0.8448992613280596  0.5661921688408569  1.0000
  C   C2        1.0  0.357415397756931  0.1550995509852555  0.0661974891629242  1.0000
  C   C3        1.0  0.6425601594865213  0.6550817769059591  0.4338029606164895  1.0000
  C   C4        1.0  0.8574316954764143  0.3449098645752073  0.9338024487123135  1.0000
  C   C5        1.0  0.9827060529748691  0.844420823572257  0.6238840475890015  1.0000
  C   C6        1.0  0.5172770575336116  0.1555812811364063  0.123891772120011  1.0000
  C   C7        1.0  0.4826844311685434  0.6555579393824118  0.3761110818683449  1.0000
  C   C8        1.0  0.0173117382491199  0.3444315473642661  0.8761105699641759  1.0000
  C   C9        1.0  0.9818568929151396  0.9928410464680438  0.6622244485179962  1.0000
  C   C10       1.0  0.5181531753227232  0.007161734147814499  0.1622292879982723  1.0000
  C   C11       1.0  0.4818474541911399  0.5071377164993365  0.3377721234647169  1.0000
  C   C12       1.0  0.0181602370087077  0.49285564494547157  0.8377769008202307  1.0000
  C   C13       1.0  0.8299921652769554  0.9819065733305408  0.7211496864562505  1.0000
  C   C14       1.0  0.6700222508976168  0.0181006590260466  0.22115260256936864  1.0000
  C   C15       1.0  0.3299749046869422  0.5180801531315212  0.2788488088936205  1.0000
  C   C16       1.0  0.170031936735235  0.4819098942079947  0.7788511820401851  1.0000
  C   C17       1.0  0.8895179319465997  0.8824044993977012  0.7713611094848645  1.0000
  C   C18       1.0  0.6104970113985216  0.11759793000624799  0.2713673914905073  1.0000
  C   C19       1.0  0.3894862068102539  0.6175822270474073  0.2286354624978486  1.0000
  C   C20       1.0  0.11050611448582968  0.3824126232574656  0.7286397590115712  1.0000
  C   C21       1.0  0.7475695135084877  0.8686076807735715  0.8252875161792943  1.0000
  C   C22       1.0  0.7524488470990747  0.1313956993280527  0.3252923556595704  1.0000
  C   C23       1.0  0.24753044657041556  0.631381320972082  0.174711460012368  1.0000
  C   C24       1.0  0.2524514610335018  0.3686137162663172  0.6747114289499905  1.0000
  C   C25       1.0  0.5427769804818539  0.9560273764337878  0.8309720278149726  1.0000
  C   C26       1.0  0.9572439479774315  0.0439806543965702  0.330971578035566  1.0000
  C   C27       1.0  0.0427438794770936  0.5439684511880641  0.1690312759527899  1.0000
  C   C28       1.0  0.45723545957963546  0.4560287611766043  0.6690298023650456  1.0000
  C   C29       1.0  0.484017220242869  0.05749068427849121  0.7815342792256956  1.0000
  C   C30       1.0  0.016006671414032805  0.9425233007711711  0.2815290210283905  1.0000
  C   C31       1.0  0.9839900380522765  0.4425130431471729  0.2184728712763899  1.0000
  C   C32       1.0  0.5159985809951593  0.5574816279468848  0.7184718785304298  1.0000
  C   C33       1.0  0.6251385550174007  0.0687278092086316  0.7271058737030103  1.0000
  C   C34       1.0  0.8748836318555319  0.931284078666266  0.2271035005564457  1.0000
  C   C35       1.0  0.12512359564441766  0.4312679546969136  0.2728964683811768  1.0000
  C   C36       1.0  0.3748859689946684  0.5687219877211334  0.7729007648949064  1.0000
  C   C37       1.0  0.3901293820332654  0.9372750314031535  0.8885307133874177  1.0000
  C   C38       1.0  0.1098857431539315  0.06272150015013979  0.388531706133378  1.0000
  C   C39       1.0  0.8901061251619281  0.5627242091080475  0.1114692244878199  1.0000
  C   C40       1.0  0.6098790176500798  0.43728336485161634  0.6114682317418598  1.0000
  O   O1        1.0  0.2099767691619689  0.0234853447769581  0.8933525948527077  1.0000
  O   O2        1.0  0.2900375670628108  0.9765112717553563  0.393350221706136  1.0000
  O   O3        1.0  0.7099625289699178  0.47651952017817933  0.10664205376284738  1.0000
  O   O4        1.0  0.7900111592703496  0.5234959321911886  0.6066449077512104  1.0000
  O   O5        1.0  0.4447811591878262  0.8370163510846638  0.9301201622881905  1.0000
  O   O6        1.0  0.0552376534772279  0.1629740878855799  0.430125963452042  1.0000
  O   O7        1.0  0.9447506518228223  0.662989715294266  0.0698831414795791  1.0000
  O   O8        1.0  0.5552430464635377  0.3370273642225854  0.5698768594739363  1.0000
  O   O9        1.0  0.15801132811763813  0.7276685872912338  0.5300670060361696  1.0000
  O   O10       1.0  0.341987257433928  0.272329588135122  0.0300713646746544  1.0000
  O   O11       1.0  0.6580117963683279  0.7723238272844313  0.4699218724779115  1.0000
  O   O12       1.0  0.8420038801193142  0.22767982741262222  0.9699271306752165  1.0000
  O   O13       1.0  0.26339696185858225  0.9639997970850375  0.5549082545662429  1.0000
  O   O14       1.0  0.2365905612195007  0.035998816295411  0.0549135748883103  1.0000
  O   O15       1.0  0.7633775361891465  0.5359732777136443  0.4450916833089948  1.0000
  O   O16       1.0  0.7365844864172786  0.4640128745232062  0.9450839587779853  1.0000
  O   O17       1.0  0.8029886161069867  0.895757025656323  0.0026109709170825  1.0000
  O   O18       1.0  0.6970073477674745  0.10424749155535551  0.5026143057472297  1.0000
  O   O19       1.0  0.30296609933775187  0.6042570041155599  0.9973827160148971  1.0000
  O   O20       1.0  0.19700497213014503  0.3957448594099803  0.4973856321280152  1.0000
