data_image0
_chemical_formula_structural       Cd2H28C28O16
_chemical_formula_sum              "Cd2 H28 C28 O16"
_cell_length_a       6.8767805673562625
_cell_length_b       8.265615905608634
_cell_length_c       13.238675551833719
_cell_angle_alpha    89.6770394697324
_cell_angle_beta     82.700929137521
_cell_angle_gamma    68.7793065902942

_space_group_name_H-M_alt    "P 1"
_space_group_IT_number       1

loop_
  _space_group_symop_operation_xyz
  'x, y, z'

loop_
  _atom_site_type_symbol
  _atom_site_label
  _atom_site_symmetry_multiplicity
  _atom_site_fract_x
  _atom_site_fract_y
  _atom_site_fract_z
  _atom_site_occupancy
  Cd  Cd1       1.0  0.12148512943598186  0.7638925626784001  0.014618688581585092  1.0000
  Cd  Cd2       1.0  0.8785160464604475  0.2361058399632228  0.985378259202619  1.0000
  H   H1        1.0  0.20323405327759764  0.5049065833139038  0.3472388526951846  1.0000
  H   H2        1.0  0.7967624494518191  0.4950958624308369  0.6527621228288536  1.0000
  H   H3        1.0  0.30882850600554695  0.31637318958103566  0.2623747415745114  1.0000
  H   H4        1.0  0.6911694689711326  0.6836292419178563  0.7376261375273642  1.0000
  H   H5        1.0  0.8634132946920089  0.461746716781299  0.3151955799381979  1.0000
  H   H6        1.0  0.13658434517463997  0.5382530840971214  0.6848038468711263  1.0000
  H   H7        1.0  0.06217004396316385  0.3325897247349658  0.4587710150805718  1.0000
  H   H8        1.0  0.9378285110654546  0.667411360674798  0.5412283337522297  1.0000
  H   H9        1.0  0.09283578658867243  0.16551390689826917  0.6160633352681228  1.0000
  H   H10       1.0  0.907167196665043  0.8344871121179764  0.3839349683864766  1.0000
  H   H11       1.0  0.9359365266837756  0.022067129568426897  0.752004597856306  1.0000
  H   H12       1.0  0.06406791733387253  0.9779338988579411  0.24799436528784463  1.0000
  H   H13       1.0  0.3962482284841613  0.12195999670374388  0.5935883843935625  1.0000
  H   H14       1.0  0.6037543507595943  0.8780385336278583  0.40641300243878914  1.0000
  H   H15       1.0  0.37749395565656846  0.26816837920445386  0.43211860573736505  1.0000
  H   H16       1.0  0.6225056790926687  0.7318301796188535  0.5678829739393122  1.0000
  H   H17       1.0  0.3241443479334194  0.9588527080526035  0.7089046278329787  1.0000
  H   H18       1.0  0.6758595504822508  0.04114959549498559  0.29109359784509775  1.0000
  H   H19       1.0  0.2642596616242585  0.159997713552599  0.7778068983891441  1.0000
  H   H20       1.0  0.7357418493821939  0.8400033197094956  0.22219150168761093  1.0000
  H   H21       1.0  0.7715199347960467  0.6615473888801232  0.016651624167003793  1.0000
  H   H22       1.0  0.2284802340718458  0.3384499184779343  0.9833514488874611  1.0000
  H   H23       1.0  0.6918121362802125  0.8149621357044481  0.9422066619746443  1.0000
  H   H24       1.0  0.30818916972490473  0.185032526787289  0.057794862365113886  1.0000
  H   H25       1.0  0.16202883876624  0.49671563169124505  0.8638322439310496  1.0000
  H   H26       1.0  0.8379710179582675  0.5032789977343981  0.13616786500743663  1.0000
  H   H27       1.0  0.403399793967438  0.46423722307087434  0.8826265678700762  1.0000
  H   H28       1.0  0.5966009779190385  0.5357586908861125  0.11737346309188004  1.0000
  C   C1        1.0  0.21664116213548104  0.5586315863879108  0.18962930796958224  1.0000
  C   C2        1.0  0.7833579270117852  0.4413682475566034  0.8103715342410138  1.0000
  C   C3        1.0  0.30793497569469974  0.44821230081951297  0.2761810156774657  1.0000
  C   C4        1.0  0.6920620841200177  0.5517888461480354  0.7238199414009255  1.0000
  C   C5        1.0  0.6090600108500441  0.3711523927130571  0.3650591700213751  1.0000
  C   C6        1.0  0.3909390782972225  0.628847441231457  0.6349416721892209  1.0000
  C   C7        1.0  0.8040433383894767  0.3897947222417599  0.37255883377009963  1.0000
  C   C8        1.0  0.195954289993857  0.6102051022926317  0.6274413489509384  1.0000
  C   C9        1.0  0.9126854936934452  0.31828300102822027  0.4521054103536172  1.0000
  C   C10       1.0  0.08731470962440827  0.6817142353619161  0.5478953949656995  1.0000
  C   C11       1.0  0.8335753763286321  0.22778322674233206  0.5279072735623129  1.0000
  C   C12       1.0  0.16642462798059654  0.7722178917335254  0.4720934906717601  1.0000
  C   C13       1.0  0.941168046744231  0.1543242966324527  0.6112699078737049  1.0000
  C   C14       1.0  0.058833441295576015  0.8456767839415845  0.3887300040264917  1.0000
  C   C15       1.0  0.8561138114658108  0.07507062963242109  0.6865835251516896  1.0000
  C   C16       1.0  0.1438867499287113  0.9249291900662441  0.3134172206367437  1.0000
  C   C17       1.0  0.6552520783915344  0.06693787924965727  0.681632593684682  1.0000
  C   C18       1.0  0.3447499322836052  0.9330619735151018  0.318369567505023  1.0000
  C   C19       1.0  0.5482911517164838  0.1309035390331488  0.5995591116364379  1.0000
  C   C20       1.0  0.4517108819253012  0.8690962664196745  0.4004415377298327  1.0000
  C   C21       1.0  0.6348993287968271  0.21267862421769476  0.5211657183985989  1.0000
  C   C22       1.0  0.36510034040237843  0.7873198636376912  0.47883359354292293  1.0000
  C   C23       1.0  0.5266274989670949  0.2833173021631977  0.4373226422712404  1.0000
  C   C24       1.0  0.4733725053421339  0.7166838163126598  0.5626781219628325  1.0000
  C   C25       1.0  0.36129567621355113  0.020450867924630186  0.7740225812822882  1.0000
  C   C26       1.0  0.6387052891909307  0.9795514404586854  0.22597508132839278  1.0000
  C   C27       1.0  0.2976394037106117  0.9372285051301078  0.8679300734255545  1.0000
  C   C28       1.0  0.7023608340572097  0.0627686602921216  0.13206846415860699  1.0000
  O   O1        1.0  0.026738662806757005  0.5885346747089883  0.18043765622254426  1.0000
  O   O2        1.0  0.9732563676754041  0.4114677852816016  0.8195634157236565  1.0000
  O   O3        1.0  0.33428383190332084  0.6179955803238855  0.12942113577099681  1.0000
  O   O4        1.0  0.665713796480013  0.38200424421050627  0.8705790469500411  1.0000
  O   O5        1.0  0.5143903208260739  0.44592226286614073  0.2826251795579892  1.0000
  O   O6        1.0  0.48560766563392116  0.5540801449767799  0.7173749436321656  1.0000
  O   O7        1.0  0.5801185803810682  0.9929083716709214  0.7635371140443251  1.0000
  O   O8        1.0  0.4198843569393561  0.007092741969209699  0.23646421325714323  1.0000
  O   O9        1.0  0.42920258748220885  0.8336575717965714  0.9178855072189545  1.0000
  O   O10       1.0  0.5707936145871529  0.16634217235978352  0.08211174827737715  1.0000
  O   O11       1.0  0.09726560602835119  0.9710782931773706  0.8895878414065093  1.0000
  O   O12       1.0  0.9027350242661072  0.02892138458547321  0.1104083689116138  1.0000
  O   O13       1.0  0.8073020413420765  0.7567509357926241  0.9823444106662006  1.0000
  O   O14       1.0  0.19269403441073515  0.24324906857942347  0.017661159859024195  1.0000
  O   O15       1.0  0.25221244528644604  0.5033409431659166  0.9147253679426866  1.0000
  O   O16       1.0  0.7477877350647619  0.4966563405361697  0.08527694920006466  1.0000
