data_image0
_chemical_formula_structural       Zn16H96C96N64
_chemical_formula_sum              "Zn16 H96 C96 N64"
_cell_length_a       16.95380627402143
_cell_length_b       19.25129717912373
_cell_length_c       19.25151697214231
_cell_angle_alpha    89.99959376239005
_cell_angle_beta     90.00017099411676
_cell_angle_gamma    90.00006155705898

_space_group_name_H-M_alt    "P 1"
_space_group_IT_number       1

loop_
  _space_group_symop_operation_xyz
  'x, y, z'

loop_
  _atom_site_type_symbol
  _atom_site_label
  _atom_site_symmetry_multiplicity
  _atom_site_fract_x
  _atom_site_fract_y
  _atom_site_fract_z
  _atom_site_occupancy
  Zn  Zn1       1.0  0.8216254496333377  0.885219554220626  0.3339560428629369  1.0000
  Zn  Zn2       1.0  0.8216284912050185  0.114781462320785  0.6660422149772245  1.0000
  Zn  Zn3       1.0  0.32162469378302216  0.16604110436593802  0.3852209068344123  1.0000
  Zn  Zn4       1.0  0.32162607809411986  0.833957879679332  0.6147796696312613  1.0000
  Zn  Zn5       1.0  0.6783745227275871  0.6147824306969697  0.8339574108958204  1.0000
  Zn  Zn6       1.0  0.6783726643214578  0.3852200083278206  0.16604254723799985  1.0000
  Zn  Zn7       1.0  0.1783728539754392  0.33395574081480117  0.885219682066996  1.0000
  Zn  Zn8       1.0  0.17837175394246435  0.6660431073923192  0.11477843918194713  1.0000
  Zn  Zn9       1.0  0.1783729399927765  0.1147821962042386  0.6660444841521382  1.0000
  Zn  Zn10      1.0  0.1783740272841001  0.8852176908821435  0.3339572731733256  1.0000
  Zn  Zn11      1.0  0.6783731060067311  0.8339590877165718  0.6147811785041669  1.0000
  Zn  Zn12      1.0  0.6783734912063437  0.16604387074977472  0.3852198185062008  1.0000
  Zn  Zn13      1.0  0.32162504657437546  0.38522035862133214  0.1660425966775421  1.0000
  Zn  Zn14      1.0  0.321622776108768  0.6147796643227892  0.83395538258263  1.0000
  Zn  Zn15      1.0  0.8216231762933933  0.6660434123887315  0.1147787671958369  1.0000
  Zn  Zn16      1.0  0.8216236864892679  0.33395760414748576  0.8852200100745833  1.0000
  H   H1        1.0  0.9179065460803458  0.7680521499969828  0.4130355481445847  1.0000
  H   H2        1.0  0.6860845954676051  0.8871569234161006  0.2151688546499528  1.0000
  H   H3        1.0  0.8644688149924564  0.014747162633945307  0.23267729631994172  1.0000
  H   H4        1.0  0.7012848811362034  0.7589307879361229  0.3555182692050352  1.0000
  H   H5        1.0  0.7166462509180251  0.0015702162600348003  0.4079308701003442  1.0000
  H   H6        1.0  0.9179100528060431  0.2319499967215535  0.5869676383404112  1.0000
  H   H7        1.0  0.686086266699597  0.11283980901555424  0.7848326821428416  1.0000
  H   H8        1.0  0.8644714889299578  0.9852570112064998  0.7673215938365061  1.0000
  H   H9        1.0  0.7012838746767545  0.24106803669244667  0.6444827881886042  1.0000
  H   H10       1.0  0.7166477586551281  0.9984327785101144  0.5920676305597112  1.0000
  H   H11       1.0  0.4179072512433137  0.08696949116489353  0.2680508071989394  1.0000
  H   H12       1.0  0.18608411477289621  0.28483458666279654  0.38715729736807  1.0000
  H   H13       1.0  0.3644702203074815  0.26732682724088624  0.5147433843655875  1.0000
  H   H14       1.0  0.2012839391363315  0.14448294778036092  0.25893103656069644  1.0000
  H   H15       1.0  0.2166448797839138  0.09207315892172831  0.5015739396160513  1.0000
  H   H16       1.0  0.41790735834302956  0.9130306230893693  0.7319458674401602  1.0000
  H   H17       1.0  0.18608239875232607  0.7151668660822852  0.6128413636288883  1.0000
  H   H18       1.0  0.3644722231916902  0.7326737557767588  0.4852557466705463  1.0000
  H   H19       1.0  0.20128931560881114  0.8555190388200844  0.7410697422522078  1.0000
  H   H20       1.0  0.2166471405058772  0.9079278033491537  0.49842791855023455  1.0000
  H   H21       1.0  0.5820907443901433  0.7319451186504156  0.9130337540432691  1.0000
  H   H22       1.0  0.8139173347051171  0.6128422676674958  0.7151648797333436  1.0000
  H   H23       1.0  0.6355284369091622  0.4852553938751711  0.7326764443118068  1.0000
  H   H24       1.0  0.7987163437847048  0.7410700052053585  0.8555190589642692  1.0000
  H   H25       1.0  0.7833480543551874  0.498431617050521  0.9079303141676079  1.0000
  H   H26       1.0  0.5820884760785816  0.26805411238873944  0.0869680281607046  1.0000
  H   H27       1.0  0.8139158802010372  0.38716029990801104  0.28483076058728335  1.0000
  H   H28       1.0  0.6355312073827833  0.5147402517203759  0.26732599815456853  1.0000
  H   H29       1.0  0.7987148486214012  0.25893150903836215  0.144483813461008  1.0000
  H   H30       1.0  0.7833537554239741  0.5015693631738075  0.0920735566541708  1.0000
  H   H31       1.0  0.0820904903018089  0.41303078202118837  0.7680555208340678  1.0000
  H   H32       1.0  0.3139175684016067  0.21516588090423036  0.8871572719560845  1.0000
  H   H33       1.0  0.13553138369353232  0.2326747226043296  0.014743126944686902  1.0000
  H   H34       1.0  0.29871554108760995  0.3555168706418712  0.7589310149077308  1.0000
  H   H35       1.0  0.2833513711524703  0.40793056209733447  0.0015691930907877  1.0000
  H   H36       1.0  0.08209145957597033  0.5869669359922441  0.23194234672631353  1.0000
  H   H37       1.0  0.3139154267335016  0.7848330958381526  0.1128412064390503  1.0000
  H   H38       1.0  0.13553275952578764  0.7673277210964288  0.9852548814113788  1.0000
  H   H39       1.0  0.29871130267152785  0.6444826111254118  0.2410684623060533  1.0000
  H   H40       1.0  0.28335021885360595  0.5920735800984717  0.9984338797044572  1.0000
  H   H41       1.0  0.0820936130619856  0.2319501198705609  0.5869660177501572  1.0000
  H   H42       1.0  0.3139149738344643  0.11284171033254609  0.7848327112568967  1.0000
  H   H43       1.0  0.1355313441508912  0.9852582239085308  0.7673237501241631  1.0000
  H   H44       1.0  0.2987170475175703  0.24106992359939042  0.644482257818389  1.0000
  H   H45       1.0  0.28335272854788945  0.9984315341614335  0.5920706957946821  1.0000
  H   H46       1.0  0.08209187585004683  0.7680501953629176  0.41303444700361075  1.0000
  H   H47       1.0  0.3139150721113566  0.8871588247449792  0.2151657671288234  1.0000
  H   H48       1.0  0.13552631085102015  0.014743180894434701  0.232675297106212  1.0000
  H   H49       1.0  0.2987168742996573  0.7589305970604415  0.3555177388406321  1.0000
  H   H50       1.0  0.2833470919386301  0.0015694913678033005  0.40793029925092844  1.0000
  H   H51       1.0  0.5820929078909742  0.9130296620424406  0.7319471226297483  1.0000
  H   H52       1.0  0.813914864685053  0.7151656054368517  0.6128401130157928  1.0000
  H   H53       1.0  0.6355287591552425  0.7326754426334646  0.4852561037692524  1.0000
  H   H54       1.0  0.798715630163251  0.8555188026505932  0.7410679321371776  1.0000
  H   H55       1.0  0.7833535098477853  0.907929110937609  0.49842970403469883  1.0000
  H   H56       1.0  0.5820922109544072  0.0869690495613611  0.2680525818254935  1.0000
  H   H57       1.0  0.8139218892484407  0.28483540380378264  0.3871555273150237  1.0000
  H   H58       1.0  0.6355314749728932  0.2673243585356957  0.5147437414852405  1.0000
  H   H59       1.0  0.7987137927238309  0.1444847893872421  0.2589313042013046  1.0000
  H   H60       1.0  0.783354198305638  0.09207031096402571  0.501571050162859  1.0000
  H   H61       1.0  0.4179070554028783  0.2680561123176091  0.0869698896103799  1.0000
  H   H62       1.0  0.18608282442924212  0.38715844387822784  0.2848325306502346  1.0000
  H   H63       1.0  0.36446818320179375  0.5147432398739228  0.2673246021515682  1.0000
  H   H64       1.0  0.2012855848685078  0.2589312257775093  0.1444809486177263  1.0000
  H   H65       1.0  0.21664561656710654  0.501569613924751  0.0920707322826786  1.0000
  H   H66       1.0  0.4179081440314222  0.7319429630237978  0.9130330183082055  1.0000
  H   H67       1.0  0.1860830992554696  0.6128404116408389  0.7151656109155625  1.0000
  H   H68       1.0  0.3644713111058735  0.48525526536025865  0.7326745288880403  1.0000
  H   H69       1.0  0.20129061906599333  0.7410707608261762  0.8555193107594832  1.0000
  H   H70       1.0  0.21664994274317456  0.498427192794729  0.9079280092654898  1.0000
  H   H71       1.0  0.9179073094758295  0.5869668128558488  0.2319403312386896  1.0000
  H   H72       1.0  0.6860843602532896  0.784833791736574  0.11284429395019659  1.0000
  H   H73       1.0  0.8644699551191695  0.7673239111525234  0.9852563612061476  1.0000
  H   H74       1.0  0.7012875672423674  0.6444796853245479  0.2410710704507295  1.0000
  H   H75       1.0  0.716648787987161  0.5920701494373404  0.9984313339303057  1.0000
  H   H76       1.0  0.9179075198839117  0.413030658872458  0.7680571414250963  1.0000
  H   H77       1.0  0.6860823730464533  0.21516397958784236  0.8871562039543053  1.0000
  H   H78       1.0  0.8644697589696904  0.23267610710878017  0.014746684480940101  1.0000
  H   H79       1.0  0.7012847276002533  0.355517061518114  0.7589315452736899  1.0000
  H   H80       1.0  0.7166487606185968  0.4079312869868872  0.0015702833774469  1.0000
  H   H81       1.0  1.0964035297000005e-06  0.9458447813115642  0.3081240537812278  1.0000
  H   H82       1.0  1.2023135554000001e-06  0.05415493662972891  0.6918761946707549  1.0000
  H   H83       1.0  0.49999950560027173  0.1918787134338373  0.44584484428984444  1.0000
  H   H84       1.0  0.4999988840239524  0.8081199203179354  0.5541556827362797  1.0000
  H   H85       1.0  0.4999997485317353  0.5541579515314937  0.8081194269319951  1.0000
  H   H86       1.0  0.4999998207702276  0.44584483778680833  0.19188058064136732  1.0000
  H   H87       1.0  0.9999996465378731  0.30811973436689755  0.9458467279146633  1.0000
  H   H88       1.0  0.9999995526872215  0.6918819707893392  0.0541462860833093  1.0000
  H   H89       1.0  0.8857689233646724  0.7593619030336995  0.24063509643639241  1.0000
  H   H90       1.0  0.8857677148741774  0.24063761599026637  0.7593648887344673  1.0000
  H   H91       1.0  0.385770605260582  0.2593615263072309  0.2593599294764459  1.0000
  H   H92       1.0  0.3857652233641106  0.7406390769095452  0.7406382187952971  1.0000
  H   H93       1.0  0.6142283741917112  0.7406365880195622  0.740634883716858  1.0000
  H   H94       1.0  0.6142337561059534  0.259363712395583  0.2593654248543872  1.0000
  H   H95       1.0  0.11423064593564904  0.24063673071862723  0.7593654305912809  1.0000
  H   H96       1.0  0.11422772556019112  0.7593630955440106  0.24063511884082092  1.0000
  C   C1        1.0  0.9593815831278435  0.8047604240204012  0.39085903842611464  1.0000
  C   C2        1.0  0.7274552042616875  0.8452735663747716  0.2053651548863442  1.0000
  C   C3        1.0  0.8247020130371754  0.0313401663011206  0.2735898051965506  1.0000
  C   C4        1.0  0.7082969751970938  0.7862186490066848  0.4044722460245468  1.0000
  C   C5        1.0  0.7488714021587982  0.0231746448623582  0.3642501223290964  1.0000
  C   C6        1.0  0.959382170940444  0.19524072314345634  0.6091421795831877  1.0000
  C   C7        1.0  0.7274528307462662  0.1547258025175822  0.7946354520204082  1.0000
  C   C8        1.0  0.8247057081544542  0.9686629309475094  0.7264063829852248  1.0000
  C   C9        1.0  0.708296359884912  0.21378174060997418  0.5955283104007095  1.0000
  C   C10       1.0  0.7488736210803212  0.9768242249156884  0.6357448271797638  1.0000
  C   C11       1.0  0.4593806094609434  0.10914399031375413  0.3047632148298832  1.0000
  C   C12       1.0  0.22745764999550747  0.2946361722088682  0.34527490333517363  1.0000
  C   C13       1.0  0.3247021625750079  0.22641314292273043  0.531336455134074  1.0000
  C   C14       1.0  0.20829418066255562  0.09553030892344343  0.2862173807660682  1.0000
  C   C15       1.0  0.2488695649616802  0.13575327106196514  0.5231783584766774  1.0000
  C   C16       1.0  0.4593793858001122  0.8908535660318719  0.6952361662929932  1.0000
  C   C17       1.0  0.2274525245929269  0.7053642808684802  0.6547264638742691  1.0000
  C   C18       1.0  0.32470297949401344  0.7735874023826811  0.4686625711154093  1.0000
  C   C19       1.0  0.20830129400000177  0.904472723216607  0.7137834165167689  1.0000
  C   C20       1.0  0.24886934013363773  0.8642446050948392  0.47682306516681194  1.0000
  C   C21       1.0  0.5406191714036198  0.6952349240985642  0.8908547981107446  1.0000
  C   C22       1.0  0.7725461029395931  0.654725694210555  0.7053644100920452  1.0000
  C   C23       1.0  0.6752936076476389  0.4686610612164516  0.7735912533728212  1.0000
  C   C24       1.0  0.7917061847121047  0.7137823164762482  0.9044716524570476  1.0000
  C   C25       1.0  0.751123345299611  0.4768249009404642  0.8642496346664572  1.0000
  C   C26       1.0  0.5406170227503537  0.3047637481569865  0.1091499914590486  1.0000
  C   C27       1.0  0.7725493492895198  0.34527423690029485  0.2946331989930258  1.0000
  C   C28       1.0  0.6753021584024311  0.5313341026360378  0.2264138910784226  1.0000
  C   C29       1.0  0.7917069166415516  0.2862202300174205  0.0955296431776134  1.0000
  C   C30       1.0  0.7511298101573517  0.5231750098329755  0.1357546706905239  1.0000
  C   C31       1.0  0.04061902568727051  0.39085030867096293  0.8047653792256713  1.0000
  C   C32       1.0  0.2725480204695501  0.20536511178165284  0.8452727606432832  1.0000
  C   C33       1.0  0.17529654832614483  0.27359036704823586  0.0313365318561196  1.0000
  C   C34       1.0  0.2917053917951407  0.40446931602534164  0.7862169935766303  1.0000
  C   C35       1.0  0.25112852851751916  0.3642476995390212  0.023174875618245504  1.0000
  C   C36       1.0  0.0406193080241479  0.6091447728023028  0.19522822355292394  1.0000
  C   C37       1.0  0.2725460323120004  0.7946348646196456  0.1547261281830927  1.0000
  C   C38       1.0  0.1752989979479267  0.7264147115821656  0.9686636590279676  1.0000
  C   C39       1.0  0.2916992320441878  0.5955280813149884  0.21378142629173882  1.0000
  C   C40       1.0  0.251129125862775  0.6357538148863143  0.9768244762072485  1.0000
  C   C41       1.0  0.04061857601441691  0.19524028750874578  0.6091430469137296  1.0000
  C   C42       1.0  0.27254731422981143  0.1547266257155044  0.7946353721397017  1.0000
  C   C43       1.0  0.17530109529729293  0.9686652202409152  0.726411760691029  1.0000
  C   C44       1.0  0.2917049534602612  0.2137836208598572  0.595529839312107  1.0000
  C   C45       1.0  0.2511317061737088  0.9768260666681879  0.6357519630146342  1.0000
  C   C46       1.0  0.04061975771923441  0.8047610272720364  0.3908614640740638  1.0000
  C   C47       1.0  0.27254614871399957  0.8452738701310311  0.20536351668405223  1.0000
  C   C48       1.0  0.17529327130061745  0.031338300050535416  0.27358894963661845  1.0000
  C   C49       1.0  0.2917055687652095  0.7862158542561276  0.40447117775459424  1.0000
  C   C50       1.0  0.2511247685352629  0.023177525531281207  0.3642494665602882  1.0000
  C   C51       1.0  0.5406207293513745  0.8908525656591877  0.6952367927679078  1.0000
  C   C52       1.0  0.7725484075225352  0.7053640198867657  0.654724584816357  1.0000
  C   C53       1.0  0.6752974067269549  0.7735896463955713  0.46866355243928853  1.0000
  C   C54       1.0  0.7917053886316836  0.9044698831801696  0.7137789907393994  1.0000
  C   C55       1.0  0.7511276449939289  0.8642489987968108  0.4768252851725237  1.0000
  C   C56       1.0  0.5406190038229114  0.10914454827622684  0.3047638412953901  1.0000
  C   C57       1.0  0.7725517634071368  0.2946353917881695  0.34527094651843276  1.0000
  C   C58       1.0  0.6752995389939045  0.2264112313765737  0.5313363975973999  1.0000
  C   C59       1.0  0.7917029940087374  0.0955311049912879  0.2862176299382995  1.0000
  C   C60       1.0  0.7511319986786803  0.13575195087810235  0.5231769424309791  1.0000
  C   C61       1.0  0.45937862839101484  0.304763190188993  0.1091509233122991  1.0000
  C   C62       1.0  0.22745405619821213  0.3452734589894107  0.2946355974949811  1.0000
  C   C63       1.0  0.3246982937606191  0.5313360141883268  0.2264113514086219  1.0000
  C   C64       1.0  0.20829397442521014  0.28621891450946896  0.0955273162434409  1.0000
  C   C65       1.0  0.2488691459459603  0.5231752911432181  0.13575141178596084  1.0000
  C   C66       1.0  0.4593795973646735  0.6952343661373774  0.8908536522041005  1.0000
  C   C67       1.0  0.22745022001006282  0.6547275135306593  0.7053657697048479  1.0000
  C   C68       1.0  0.3247044889546373  0.4686619338883843  0.7735876748469579  1.0000
  C   C69       1.0  0.2083003205574983  0.7137851565302568  0.9044708838362326  1.0000
  C   C70       1.0  0.24887506768796197  0.4768220655779559  0.8642479341080219  1.0000
  C   C71       1.0  0.9593799537640708  0.6091462473192805  0.1952294339731537  1.0000
  C   C72       1.0  0.7274521386708913  0.7946340414127919  0.1547288052625078  1.0000
  C   C73       1.0  0.8247047904860665  0.7264103444943686  0.968661917408177  1.0000
  C   C74       1.0  0.708300665724437  0.5955262010514417  0.21378509178939714  1.0000
  C   C75       1.0  0.7488710407796049  0.6357514536661953  0.9768235736492487  1.0000
  C   C76       1.0  0.9593773120714246  0.39085022485579674  0.8047650313295591  1.0000
  C   C77       1.0  0.7274511776326095  0.20536376913893417  0.8452723210831367  1.0000
  C   C78       1.0  0.8247041103909326  0.2735906749506612  0.031340504057539006  1.0000
  C   C79       1.0  0.708292079525279  0.40447211076813977  0.7862196201591232  1.0000
  C   C80       1.0  0.7488733926303867  0.3642505327699369  0.023175531364472608  1.0000
  C   C81       1.0  5.244571994000003e-07  0.8969768055711218  0.3363069411749606  1.0000
  C   C82       1.0  5.945873767000004e-07  0.1030244707006389  0.6636948655886955  1.0000
  C   C83       1.0  0.49999940585055225  0.16369429243058423  0.3969745096598488  1.0000
  C   C84       1.0  0.4999995736099622  0.8363043413251465  0.6030249784878805  1.0000
  C   C85       1.0  0.4999998259055758  0.6030205329768068  0.8363045650779526  1.0000
  C   C86       1.0  0.4999991535652271  0.39697913964970155  0.1637006369015381  1.0000
  C   C87       1.0  0.9999995810988694  0.3362998268613922  0.8969808684335449  1.0000
  C   C88       1.0  0.9999990282885279  0.6636966838320363  0.1030142233404021  1.0000
  C   C89       1.0  0.8311451788261481  0.7802467775895681  0.21975295965231825  1.0000
  C   C90       1.0  0.8311457850213844  0.2197495729464123  0.7802515565598257  1.0000
  C   C91       1.0  0.3311463414828211  0.2802483305564891  0.28024852696877645  1.0000
  C   C92       1.0  0.33114440258253103  0.7197506625238647  0.7197499968228203  1.0000
  C   C93       1.0  0.6688514582945048  0.7197487448750268  0.7197473251058285  1.0000
  C   C94       1.0  0.6688581159012444  0.28024693235172293  0.280246894135324  1.0000
  C   C95       1.0  0.1688532108021477  0.21975133670747485  0.7802501645735802  1.0000
  C   C96       1.0  0.16885142492505176  0.7802506191468696  0.21974741214046392  1.0000
  N   N1        1.0  0.934020883502484  0.8634957978854986  0.3561534797633499  1.0000
  N   N2        1.0  0.7934439892168754  0.8357514965726194  0.24635892824223052  1.0000
  N   N3        1.0  0.7973796102346642  0.985697484475729  0.32345674182824524  1.0000
  N   N4        1.0  0.7563351999529078  0.8438552873771313  0.41011062169847184  1.0000
  N   N5        1.0  0.934021517141126  0.13650636411090034  0.6438502686172073  1.0000
  N   N6        1.0  0.7934432582367564  0.16424585711313713  0.7536423719878729  1.0000
  N   N7        1.0  0.7973802056394349  0.014304028527156702  0.6765388549234218  1.0000
  N   N8        1.0  0.7563339055884698  0.15614410890235328  0.5898900613057664  1.0000
  N   N9        1.0  0.4340230023168915  0.14384117221366918  0.36349505349954825  1.0000
  N   N10       1.0  0.2934439710682071  0.25364159711533324  0.3357538079856114  1.0000
  N   N11       1.0  0.2973760379992996  0.1765449638795928  0.4856975950330026  1.0000
  N   N12       1.0  0.256331275118491  0.0898905073885885  0.3438555193536388  1.0000
  N   N13       1.0  0.43402271757160094  0.8561558406386711  0.6365047802510804  1.0000
  N   N14       1.0  0.2934412870981973  0.7463589185410556  0.6642466942156204  1.0000
  N   N15       1.0  0.29737824956578157  0.8234545166168206  0.5143029175389913  1.0000
  N   N16       1.0  0.2563393801665797  0.9101120508576842  0.6561459239451539  1.0000
  N   N17       1.0  0.5659773943722969  0.6365039518646469  0.8561528393136371  1.0000
  N   N18       1.0  0.706556276876924  0.6642464344524015  0.7463584615065386  1.0000
  N   N19       1.0  0.7026179672825988  0.5143045748891739  0.8234573277960707  1.0000
  N   N20       1.0  0.7436673891777874  0.6561456381254231  0.9101103101880241  1.0000
  N   N21       1.0  0.565976614181082  0.36349578333507543  0.1438504587520555  1.0000
  N   N22       1.0  0.7065576035565684  0.33575343407449054  0.2536405320177764  1.0000
  N   N23       1.0  0.7026262939213623  0.4856937315514145  0.17654684976177756  1.0000
  N   N24       1.0  0.7436687620377783  0.34385790171037206  0.0898893005473411  1.0000
  N   N25       1.0  0.0659762415216605  0.3561501130983231  0.8634985695968213  1.0000
  N   N26       1.0  0.20655694850946565  0.24635767659665933  0.8357527591007639  1.0000
  N   N27       1.0  0.20262302907154614  0.3234553244356989  0.9856954697398025  1.0000
  N   N28       1.0  0.24366672265286848  0.4101087088803156  0.843853407286197  1.0000
  N   N29       1.0  0.06597636757155104  0.6438491479721121  0.1364987360578098  1.0000
  N   N30       1.0  0.2065549426360249  0.7536411983330569  0.1642464752885857  1.0000
  N   N31       1.0  0.2026257310578927  0.6765466634370086  0.0143042737187855  1.0000
  N   N32       1.0  0.24366095104925026  0.5898896818003082  0.15614384712245777  1.0000
  N   N33       1.0  0.06598104515750691  0.13650647197551546  0.6438501638920614  1.0000
  N   N34       1.0  0.2065561699235587  0.1642476566218249  0.7536426376635604  1.0000
  N   N35       1.0  0.20262467777256893  0.014305304842970703  0.6765437851909226  1.0000
  N   N36       1.0  0.24366495919062467  0.15614750193407903  0.5898914636340109  1.0000
  N   N37       1.0  0.06597923184300923  0.8634948668566762  0.3561538944799167  1.0000
  N   N38       1.0  0.2065557212231965  0.8357532960899549  0.24635659671843513  1.0000
  N   N39       1.0  0.20261700430443602  0.9856977219100432  0.323458036013001  1.0000
  N   N40       1.0  0.24366566370851223  0.8438519276260836  0.4101094268519462  1.0000
  N   N41       1.0  0.5659759771449872  0.8561553837544765  0.6365059929743069  1.0000
  N   N42       1.0  0.7065555982256484  0.7463565172043759  0.6642430829668059  1.0000
  N   N43       1.0  0.7026211719560538  0.8234583448720516  0.5143055291729297  1.0000
  N   N44       1.0  0.7436665246645547  0.9101102041541721  0.6561424104664155  1.0000
  N   N45       1.0  0.5659762618897162  0.14384123477682925  0.3634957467813464  1.0000
  N   N46       1.0  0.7065612313874043  0.2536402346692341  0.3357507161765838  1.0000
  N   N47       1.0  0.7026224994085551  0.17654359769423422  0.48569657061290883  1.0000
  N   N48       1.0  0.743666677357112  0.0898902190108117  0.34385616139693553  1.0000
  N   N49       1.0  0.43402158509474736  0.3634967596621054  0.14384976546424613  1.0000
  N   N50       1.0  0.29344388226301993  0.3357547965277873  0.2536420655127145  1.0000
  N   N51       1.0  0.2973757036375488  0.48569457830587487  0.1765431992219959  1.0000
  N   N52       1.0  0.2563345394730377  0.3438545539700969  0.08988865851848261  1.0000
  N   N53       1.0  0.43402059577079655  0.6365018115158989  0.8561526654741272  1.0000
  N   N54       1.0  0.29344255557860077  0.664245719131003  0.7463579172504923  1.0000
  N   N55       1.0  0.29737976359941604  0.5143023049690427  0.823455755041998  1.0000
  N   N56       1.0  0.2563378853274402  0.6561500820590782  0.9101127847752792  1.0000
  N   N57       1.0  0.9340209684191269  0.6438480012221037  0.1364978019129026  1.0000
  N   N58       1.0  0.793443210629775  0.7536409571541114  0.1642482873672719  1.0000
  N   N59       1.0  0.7973783097394789  0.6765448676632246  0.014302460086760501  1.0000
  N   N60       1.0  0.7563405145460751  0.5898878470825368  0.1561502363964635  1.0000
  N   N61       1.0  0.9340220220480334  0.35615052468174474  0.8634986743271186  1.0000
  N   N62       1.0  0.7934404977982723  0.24635795486283027  0.8357540517318115  1.0000
  N   N63       1.0  0.7973803264673835  0.32345820365907235  0.9856978116141021  1.0000
  N   N64       1.0  0.7563315401928038  0.4101105102907426  0.8438551215716146  1.0000
