data_image0
_chemical_formula_structural       Gd2H8C24O16F12
_chemical_formula_sum              "Gd2 H8 C24 O16 F12"
_cell_length_a       8.764488822602777
_cell_length_b       8.766287677175473
_cell_length_c       11.481274716698309
_cell_angle_alpha    105.70427533322405
_cell_angle_beta     111.878324938469
_cell_angle_gamma    99.08354889809125

_space_group_name_H-M_alt    "P 1"
_space_group_IT_number       1

loop_
  _space_group_symop_operation_xyz
  'x, y, z'

loop_
  _atom_site_type_symbol
  _atom_site_label
  _atom_site_symmetry_multiplicity
  _atom_site_fract_x
  _atom_site_fract_y
  _atom_site_fract_z
  _atom_site_occupancy
  Gd  Gd1       1.0  0.85614760242715  0.16113478487581287  0.017153911469897257  1.0000
  Gd  Gd2       1.0  0.14385444628859292  0.8388650190976109  0.9828486962121088  1.0000
  H   H1        1.0  0.66189587403089  0.14732761527282887  0.18884425237480676  1.0000
  H   H2        1.0  0.9584696045083091  0.47284809668587974  0.8110337694069968  1.0000
  H   H3        1.0  0.338098869927876  0.8526649250765101  0.8111538127287757  1.0000
  H   H4        1.0  0.04152959564881797  0.5271542538446709  0.18896948008573838  1.0000
  H   H5        1.0  0.5257941025405587  0.14770382436168458  0.05628352364995952  1.0000
  H   H6        1.0  0.09129086790896676  0.46942181317993453  0.94364794503349  1.0000
  H   H7        1.0  0.4742042954682261  0.8522923889895961  0.9437155155991731  1.0000
  H   H8        1.0  0.9087079404731853  0.530571919916859  0.05634978368627943  1.0000
  C   C1        1.0  0.3765454519431942  0.37651202638732423  0.9998200530246918  1.0000
  C   C2        1.0  0.6234582329246621  0.6234854289399009  0.00017638991261749356  1.0000
  C   C3        1.0  0.36870737474082915  0.3893381894586908  0.8798213078376306  1.0000
  C   C4        1.0  0.5092794757540772  0.4885994243428937  0.11998575321164398  1.0000
  C   C5        1.0  0.6312983281401472  0.6106691423523783  0.12017965077019707  1.0000
  C   C6        1.0  0.4907290800277125  0.5114016159150907  0.8800137277554256  1.0000
  C   C7        1.0  0.24430725464431194  0.24422430877546467  0.9997865269429055  1.0000
  C   C8        1.0  0.7556895216989689  0.7557746102011436  0.00020743513916705308  1.0000
  C   C9        1.0  0.11829921959792243  0.13836764480073063  0.25613373975501463  1.0000
  C   C10       1.0  0.8816987690366389  0.8616272214292663  0.7438683684807684  1.0000
  C   C11       1.0  0.6159320474863677  0.1610259110596672  0.7764898004286918  1.0000
  C   C12       1.0  0.3840622828711772  0.838972882000057  0.22350954627184902  1.0000
  C   C13       1.0  0.24934037033424522  0.1381655182070034  0.38679192033905707  1.0000
  C   C14       1.0  0.7506616719257976  0.861841830678223  0.6132106294781464  1.0000
  C   C15       1.0  0.49246180804198053  0.14836812667126506  0.6402166644149785  1.0000
  C   C16       1.0  0.5075353533901391  0.8516392449795089  0.35978800701472113  1.0000
  C   C17       1.0  0.2071299864086811  0.03491482140378819  0.45015173096571454  1.0000
  C   C18       1.0  0.5839266143892203  0.7563700620702463  0.5497789257897948  1.0000
  C   C19       1.0  0.7928647520935215  0.9650814364815828  0.5498480347303456  1.0000
  C   C20       1.0  0.41606162062041824  0.24363275158177083  0.4502161258944212  1.0000
  C   C21       1.0  0.324927402343377  0.0390054532646715  0.5732936296250912  1.0000
  C   C22       1.0  0.46497577376801047  0.7510723555900114  0.4266415253622141  1.0000
  C   C23       1.0  0.6750689700822361  0.9609884010546279  0.4267017008511614  1.0000
  C   C24       1.0  0.5350246411395291  0.24893370678518778  0.573362894319878  1.0000
  O   O1        1.0  0.10419110207686089  0.0412569673661238  0.1449489655787772  1.0000
  O   O2        1.0  0.8958137886265759  0.9587439801262859  0.8550555656474257  1.0000
  O   O3        1.0  0.6504215594060698  0.18705191261414456  0.1151501474277765  1.0000
  O   O4        1.0  0.07184023836298789  0.535234793095448  0.8848736989443536  1.0000
  O   O5        1.0  0.3495788729855106  0.8129430246128845  0.8848483057144277  1.0000
  O   O6        1.0  0.9281581607601551  0.4647614477157659  0.11512447554233049  1.0000
  O   O7        1.0  0.1171153901834572  0.2855820557858948  0.011116686683621403  1.0000
  O   O8        1.0  0.2744071508274359  0.10578064807298657  0.9885443128281821  1.0000
  O   O9        1.0  0.8828899241503977  0.714412886135527  0.9888787800836454  1.0000
  O   O10       1.0  0.7255993760281285  0.8942179507732176  0.011454053653331363  1.0000
  O   O11       1.0  0.02652439430486449  0.23475700597891347  0.260862385804721  1.0000
  O   O12       1.0  0.9734711562596632  0.7652417813894203  0.7391364304926924  1.0000
  O   O13       1.0  0.7658478788080527  0.2639696074464409  0.8343493761415032  1.0000
  O   O14       1.0  0.4294074567486632  0.9307879368100485  0.1656226147572396  1.0000
  O   O15       1.0  0.2341468619228593  0.736026705358796  0.16564866002967446  1.0000
  O   O16       1.0  0.5705933739888067  0.06921192777463148  0.8343787938030047  1.0000
  F   F1        1.0  0.23995069157361115  0.28390887252943026  0.7615597914227121  1.0000
  F   F2        1.0  0.5217947037904054  0.4778210391209185  0.2380603548480947  1.0000
  F   F3        1.0  0.7600542024728938  0.7160921573427784  0.23844214551616713  1.0000
  F   F4        1.0  0.478204907969662  0.5221827134507748  0.7619380961331075  1.0000
  F   F5        1.0  0.04871251659690048  0.9274864943955947  0.39106048119047193  1.0000
  F   F6        1.0  0.5352268101753734  0.6570863947994067  0.6087012333252985  1.0000
  F   F7        1.0  0.9512871005045086  0.07250968580436988  0.6089388924179743  1.0000
  F   F8        1.0  0.46477034468583156  0.342924666927466  0.39130600345932004  1.0000
  F   F9        1.0  0.2693629303574879  0.9328488276742559  0.6248413710804214  1.0000
  F   F10       1.0  0.3071041270707581  0.64406176747557  0.3749898041495213  1.0000
  F   F11       1.0  0.7306379081804693  0.067151229129955  0.37515398414272727  1.0000
  F   F12       1.0  0.6929007581761156  0.3559428975528718  0.6250164276691734  1.0000
