data_image0
_chemical_formula_structural       Zn2H54C63N6O11
_chemical_formula_sum              "Zn2 H54 C63 N6 O11"
_cell_length_a       10.979570953012747
_cell_length_b       16.099155104714416
_cell_length_c       16.902741215982513
_cell_angle_alpha    88.21413958750581
_cell_angle_beta     88.68375067877844
_cell_angle_gamma    87.7433230999894

_space_group_name_H-M_alt    "P 1"
_space_group_IT_number       1

loop_
  _space_group_symop_operation_xyz
  'x, y, z'

loop_
  _atom_site_type_symbol
  _atom_site_label
  _atom_site_symmetry_multiplicity
  _atom_site_fract_x
  _atom_site_fract_y
  _atom_site_fract_z
  _atom_site_occupancy
  Zn  Zn1       1.0  0.49421661209296264  0.5943878033515377  0.49902212927185735  1.0000
  Zn  Zn2       1.0  0.5097080454446825  0.41036720132750304  0.48915869794794276  1.0000
  H   H1        1.0  0.6501763649174706  0.39360305213309504  0.09246455510726997  1.0000
  H   H2        1.0  0.3759912270444231  0.2761985196222767  0.5691800855388394  1.0000
  H   H3        1.0  0.5131226597448374  0.6009812487757388  0.7352922955175742  1.0000
  H   H4        1.0  0.5687694175134652  0.607664329495819  0.8784523675868101  1.0000
  H   H5        1.0  0.5287843533976042  0.6385687687886019  0.25163514302971624  1.0000
  H   H6        1.0  0.2341138815253032  0.4693278632119232  0.6411036822377908  1.0000
  H   H7        1.0  0.313314225472233  0.370566076134871  0.7437984241709826  1.0000
  H   H8        1.0  0.24590673673685612  0.22425442895868034  0.7504804547137737  1.0000
  H   H9        1.0  0.0979573226948034  0.1786269742236115  0.6520060502474436  1.0000
  H   H10       1.0  0.018426739439547594  0.2776070248256204  0.5496334811062197  1.0000
  H   H11       1.0  0.7744856166432255  0.736733710070162  0.45663458660041556  1.0000
  H   H12       1.0  0.6653240616134822  0.3464804152429863  0.8780412952719345  1.0000
  H   H13       1.0  0.7393105229087878  0.7999324009659149  0.3698840218039122  1.0000
  H   H14       1.0  0.7561780673479459  0.6100790360101627  0.3735304866522924  1.0000
  H   H15       1.0  0.745460152568043  0.6755794940455077  0.288158463941535  1.0000
  H   H16       1.0  0.9531606840666099  0.7335279749706416  0.3191385604619725  1.0000
  H   H17       1.0  0.9625260536028575  0.6247330483137008  0.3057762218227467  1.0000
  H   H18       1.0  0.9612531132943685  0.6641416751303454  0.4029128269227512  1.0000
  H   H19       1.0  0.44498350199876296  0.7782369605382371  0.7392014541377562  1.0000
  H   H20       1.0  0.32850931623823937  0.7093563961729644  0.8483879679913855  1.0000
  H   H21       1.0  0.1630322963290496  0.61425192053796  0.8179350195198438  1.0000
  H   H22       1.0  0.11580437250717067  0.5890510045689936  0.6771292142453261  1.0000
  H   H23       1.0  0.6207840170743991  0.3781314689042148  0.2403243431821593  1.0000
  H   H24       1.0  0.23455929013685758  0.6554684003073632  0.568280108880735  1.0000
  H   H25       1.0  0.9097591198194264  0.2889742349560863  0.4054308091760177  1.0000
  H   H26       1.0  0.04090887516435519  0.3501515025810419  0.41311704161895335  1.0000
  H   H27       1.0  0.7933233158077329  0.41334198735969363  0.3489231207541579  1.0000
  H   H28       1.0  0.9235436439895324  0.47349509179360894  0.35553821281091297  1.0000
  H   H29       1.0  0.03940467405314509  0.3796579546581001  0.2600973678886334  1.0000
  H   H30       1.0  0.9040284183110714  0.42298380904627925  0.2169979327338822  1.0000
  H   H31       1.0  0.9091159925203482  0.3184830502406087  0.2532265834912835  1.0000
  H   H32       1.0  0.9096312345723658  0.5703496372403835  0.6968665428270667  1.0000
  H   H33       1.0  0.7629706054996817  0.584544244697824  0.6541296353183483  1.0000
  H   H34       1.0  0.6100604184120045  0.8892724727511734  0.42918339421536433  1.0000
  H   H35       1.0  0.9578782547969098  0.7155125500208258  0.642337900836381  1.0000
  H   H36       1.0  0.8054408997907743  0.7268411959401747  0.6102497948152674  1.0000
  H   H37       1.0  0.7305816546752408  0.7071712331334794  0.7536091339378643  1.0000
  H   H38       1.0  0.825309526862398  0.7938704680128695  0.7414519011510021  1.0000
  H   H39       1.0  0.8842477642968517  0.6990620811711568  0.7841247104202365  1.0000
  H   H40       1.0  0.6681102986904576  0.7375746380252937  0.17606656562928436  1.0000
  H   H41       1.0  0.6299528462057962  0.8803005821883545  0.1204871336932882  1.0000
  H   H42       1.0  0.4866349180254729  0.9049086867791446  0.00898185620430779  1.0000
  H   H43       1.0  0.38257446837209125  0.7854247087153114  0.9542492761340639  1.0000
  H   H44       1.0  0.422830978123393  0.6423134842216458  0.009011612032445295  1.0000
  H   H45       1.0  0.6782170727001428  0.12384943487426632  0.4030196380871089  1.0000
  H   H46       1.0  0.5035925587272132  0.252248825496217  0.8096776869998834  1.0000
  H   H47       1.0  0.5490488195415749  0.11267435041381903  0.7549208450570289  1.0000
  H   H48       1.0  0.6990838279285326  0.09632621656065513  0.6431037842305471  1.0000
  H   H49       1.0  0.8008493260438099  0.22159423139986967  0.585532691188952  1.0000
  H   H50       1.0  0.7519991316982624  0.3602101149378143  0.6379608406609307  1.0000
  H   H51       1.0  0.6625133642867169  0.2817204631375319  0.4059856152807341  1.0000
  H   H52       1.0  0.3782764915040672  0.11934600506478431  0.5726014005549516  1.0000
  H   H53       1.0  0.3772868882476955  0.8848179807495102  0.6374172227381293  1.0000
  H   H54       1.0  0.08530293070959517  0.5476913591913332  0.4517302215780602  1.0000
  C   C1        1.0  0.5486188229238634  0.4977409224130298  0.3416703592910081  1.0000
  C   C2        1.0  0.5548583960986732  0.4708768454998166  0.7272007823776505  1.0000
  C   C3        1.0  0.6021660282151159  0.3976005154031128  0.7656726099742241  1.0000
  C   C4        1.0  0.7293655429903365  0.5182293059276476  0.5229779101739566  1.0000
  C   C5        1.0  0.6312665250620312  0.4020202493814793  0.8457204932834229  1.0000
  C   C6        1.0  0.4407564516723355  0.2396074982879456  0.5333669171775384  1.0000
  C   C7        1.0  0.4428015994426459  0.1534328083819361  0.5356091031336945  1.0000
  C   C8        1.0  0.5302205616025191  0.11102817106644382  0.4886176426496716  1.0000
  C   C9        1.0  0.6108701354082909  0.15628771847276116  0.44036426502260884  1.0000
  C   C10       1.0  0.6027868993324927  0.24251688751130027  0.4419884756129449  1.0000
  C   C11       1.0  0.5567920027809448  0.8554457917028985  0.4735477256154184  1.0000
  C   C12       1.0  0.6085444415381076  0.4382937105441088  0.20965835082112247  1.0000
  C   C13       1.0  0.5447446684942249  0.7697869702830717  0.4707660389491081  1.0000
  C   C14       1.0  0.49340192932651644  0.8973296430257707  0.5336370468046354  1.0000
  C   C15       1.0  0.417755279717582  0.7662249179840189  0.5835024209981441  1.0000
  C   C16       1.0  0.5058844234538  0.47335561485941474  0.6448750704173631  1.0000
  C   C17       1.0  0.4261911818055068  0.8524074729667321  0.5900977659238719  1.0000
  C   C18       1.0  0.27003403235531204  0.5027824204111229  0.4804499780055166  1.0000
  C   C19       1.0  0.07068382572269627  0.44347190667605224  0.5290286876815882  1.0000
  C   C20       1.0  0.13509870199446536  0.4992665674453463  0.4858069954256763  1.0000
  C   C21       1.0  0.9362740902448079  0.4460005342845507  0.5199073397147771  1.0000
  C   C22       1.0  0.8620113598576536  0.5117117427049751  0.5413028582479598  1.0000
  C   C23       1.0  0.6243226053949654  0.44665423085552197  0.1284870331792121  1.0000
  C   C24       1.0  0.5729957432294341  0.5078834602944087  0.2541203474741067  1.0000
  C   C25       1.0  0.12156645212432687  0.38078525683495473  0.5869561534472395  1.0000
  C   C26       1.0  0.20438681687040364  0.40549820796969993  0.6430957245201796  1.0000
  C   C27       1.0  0.24853353512995105  0.349794548410003  0.7013960991042152  1.0000
  C   C28       1.0  0.2111315882016384  0.2678215515265664  0.7049123296360946  1.0000
  C   C29       1.0  0.1287825394360738  0.2422961275351554  0.6495861675377128  1.0000
  C   C30       1.0  0.0838499574584688  0.2981338186161722  0.5915099210205382  1.0000
  C   C31       1.0  0.7294911004391977  0.7382222902862666  0.3990119683096721  1.0000
  C   C32       1.0  0.7837251795487035  0.6699824918854134  0.3477408935975744  1.0000
  C   C33       1.0  0.9227505041176938  0.6734703429195649  0.3436188049016806  1.0000
  C   C34       1.0  0.6032665550109612  0.5243577187771252  0.08941817817892429  1.0000
  C   C35       1.0  0.3474166297762835  0.7215117149565915  0.6462452040097375  1.0000
  C   C36       1.0  0.3718244043858688  0.7372255629723415  0.7257049910415316  1.0000
  C   C37       1.0  0.3062732231437977  0.6985080505340808  0.7870913564962831  1.0000
  C   C38       1.0  0.21414409163984519  0.6448089898999856  0.7699633380309477  1.0000
  C   C39       1.0  0.18813186621562747  0.6302959985859221  0.6911969188020135  1.0000
  C   C40       1.0  0.25437792984126156  0.6680421057232522  0.6294842571384365  1.0000
  C   C41       1.0  0.9403647135272378  0.3526015783843875  0.412155040974902  1.0000
  C   C42       1.0  0.8935899881786751  0.41022420548107164  0.3456257609327976  1.0000
  C   C43       1.0  0.9392328201525186  0.3813500535071555  0.26459317366953167  1.0000
  C   C44       1.0  0.8580541890065873  0.6036123274048679  0.6493258136135296  1.0000
  C   C45       1.0  0.5704404911065237  0.5958335872628453  0.133505346143771  1.0000
  C   C46       1.0  0.8639419802881745  0.697141726603114  0.6559458916881766  1.0000
  C   C47       1.0  0.8236977611215366  0.725867441511234  0.7382182475279606  1.0000
  C   C48       1.0  0.5482966384386357  0.6797712045732709  0.0965440169852201  1.0000
  C   C49       1.0  0.6050729759484668  0.7480739499572524  0.1274547173356595  1.0000
  C   C50       1.0  0.5838411404624748  0.8284051993585921  0.09600102463948451  1.0000
  C   C51       1.0  0.5040465089730191  0.8421607630151373  0.033406505316953876  1.0000
  C   C52       1.0  0.4462389303251157  0.7748455447332674  0.002508181711036196  1.0000
  C   C53       1.0  0.4683488433239944  0.6944292379787812  0.03333095682079799  1.0000
  C   C54       1.0  0.6247218360366771  0.31583848080744303  0.728060222141309  1.0000
  C   C55       1.0  0.5687882194150333  0.24519756228731646  0.7603868734039594  1.0000
  C   C56       1.0  0.5570105082241595  0.5856561345426953  0.21596973547148218  1.0000
  C   C57       1.0  0.5944631521896255  0.1667695128190587  0.7296309483767087  1.0000
  C   C58       1.0  0.6783170312507422  0.15768831831535127  0.6667969453174079  1.0000
  C   C59       1.0  0.735165464940337  0.22767231807678462  0.6346448700935596  1.0000
  C   C60       1.0  0.7082843249739169  0.3061769076960132  0.6645707091105209  1.0000
  C   C61       1.0  0.5776383858963072  0.5498878745244371  0.846586194179572  1.0000
  C   C62       1.0  0.5475188946342086  0.5459912479485568  0.7679122119843098  1.0000
  C   C63       1.0  0.6159918352123838  0.47604782702791953  0.8869658908741298  1.0000
  N   N1        1.0  0.6068685692427634  0.5343750371035015  0.006362905115203397  1.0000
  N   N2        1.0  0.6313826725862767  0.4680395278459102  0.9694214611998431  1.0000
  N   N3        1.0  0.5193860943447247  0.2828574796477525  0.4874965757467749  1.0000
  N   N4        1.0  0.5409505415285236  0.023485011916186207  0.4843421027564148  1.0000
  N   N5        1.0  0.4884935712295188  0.985019033043308  0.5409475086387302  1.0000
  N   N6        1.0  0.47494250571952523  0.7257147608869517  0.5228728902858819  1.0000
  O   O1        1.0  0.5256856627122416  0.5632518560127124  0.37999791176682857  1.0000
  O   O2        1.0  0.8898306934911201  0.3765396481405077  0.48841961931231026  1.0000
  O   O3        1.0  0.9118234292941593  0.5796427748512586  0.5738616767480025  1.0000
  O   O4        1.0  0.5530019369762725  0.42335980267218093  0.3703339066147677  1.0000
  O   O5        1.0  0.6798193606531483  0.5912274973706673  0.518245808095969  1.0000
  O   O6        1.0  0.6764578729718166  0.45078615494579577  0.513329072956715  1.0000
  O   O7        1.0  0.48361527142468214  0.54553482843356  0.6138237395088596  1.0000
  O   O8        1.0  0.4884914724709048  0.4050436734421369  0.6123089238580589  1.0000
  O   O9        1.0  0.313241379560992  0.5753174560497955  0.47912793789050306  1.0000
  O   O10       1.0  0.33055755171459816  0.434118237846974  0.4761118437560654  1.0000
  O   O11       1.0  0.6006340663927219  0.7237066417615594  0.41442103436718  1.0000
