data_image0
_chemical_formula_structural       Al4H12C28S4O32
_chemical_formula_sum              "Al4 H12 C28 S4 O32"
_cell_length_a       6.68307661142904
_cell_length_b       14.522800410206319
_cell_length_c       16.751234169867
_cell_angle_alpha    94.57016335483632
_cell_angle_beta     90.00042190001196
_cell_angle_gamma    89.99869090324852

_space_group_name_H-M_alt    "P 1"
_space_group_IT_number       1

loop_
  _space_group_symop_operation_xyz
  'x, y, z'

loop_
  _atom_site_type_symbol
  _atom_site_label
  _atom_site_symmetry_multiplicity
  _atom_site_fract_x
  _atom_site_fract_y
  _atom_site_fract_z
  _atom_site_occupancy
  Al  Al1       1.0  0.7495222509998739  0.24937328064876138  0.7476365303452467  1.0000
  Al  Al2       1.0  0.25782690410890297  0.7490641677409754  0.24847495418693907  1.0000
  Al  Al3       1.0  0.24952500286818236  0.2506213566783018  0.752358544904439  1.0000
  Al  Al4       1.0  0.7578241459621964  0.7509324384806034  0.25152636809909973  1.0000
  H   H1        1.0  0.22697321202124238  0.50623332358888  0.8879780446095963  1.0000
  H   H2        1.0  0.7532865893536351  0.4957295219902064  0.11411272930774169  1.0000
  H   H3        1.0  0.726976249591928  0.9937600155630832  0.612019396218919  1.0000
  H   H4        1.0  0.25327912428369354  0.004268651408864298  0.38588616882324794  1.0000
  H   H5        1.0  0.23355571257012994  0.7779973294264193  0.0713746960348374  1.0000
  H   H6        1.0  0.404121987370779  0.36781163686340784  0.9670965878584922  1.0000
  H   H7        1.0  0.7335578123448911  0.7219939545133369  0.4286259679858729  1.0000
  H   H8        1.0  0.9042094643718029  0.13225039807583977  0.5329072916042887  1.0000
  H   H9        1.0  0.49843117230072653  0.36182857769373555  0.7228892721371876  1.0000
  H   H10       1.0  0.5109911842168344  0.6395659508098673  0.20827996637038373  1.0000
  H   H11       1.0  0.9984406904649886  0.1381656540425027  0.7771063438943457  1.0000
  H   H12       1.0  0.010980054625612502  0.8604289744713326  0.291720817020412  1.0000
  C   C1        1.0  0.5017090106384002  0.1415743424102658  0.8512902417652268  1.0000
  C   C2        1.0  0.5129182884736705  0.8533038033503357  0.14138741598492993  1.0000
  C   C3        1.0  0.0017012495160457998  0.35842499763897706  0.6487138813823137  1.0000
  C   C4        1.0  0.012946366641990899  0.646696031251622  0.35861457541708575  1.0000
  C   C5        1.0  0.49500051284745433  0.1391253033403714  0.6337545056312237  1.0000
  C   C6        1.0  0.5036773477180745  0.8643714556406505  0.3614830768872252  1.0000
  C   C7        1.0  0.994965847594777  0.36087335086975253  0.8662363179927082  1.0000
  C   C8        1.0  0.003706298351026799  0.6356243388066287  0.13851888934685516  1.0000
  C   C9        1.0  0.12609360238036518  0.5026663072876402  0.938747462252138  1.0000
  C   C10       1.0  0.8579923253458334  0.49803048371287406  0.06456688425512169  1.0000
  C   C11       1.0  0.6260939945636605  0.9973188648997107  0.5612473537164034  1.0000
  C   C12       1.0  0.3579829284504257  0.001968027335316  0.435432241993567  1.0000
  C   C13       1.0  0.13322482949225636  0.5718165779092954  0.0014948375686003998  1.0000
  C   C14       1.0  0.8528836028883686  0.4284626130434929  0.0024287892624030995  1.0000
  C   C15       1.0  0.633208667749507  0.9281701931348817  0.4985056025831866  1.0000
  C   C16       1.0  0.35288377735560766  0.07154140384712088  0.49756973399435367  1.0000
  C   C17       1.0  0.99950616983822  0.5691184833349182  0.06600601463730979  1.0000
  C   C18       1.0  0.9891396014291374  0.4296883285581145  0.9384040644916138  1.0000
  C   C19       1.0  0.49949561649363255  0.9308765739897777  0.4339976276769803  1.0000
  C   C20       1.0  0.48915698406837993  0.07031224730533127  0.5615921381157846  1.0000
  C   C21       1.0  0.01738061182849999  0.586568132639776  0.4224664680972693  1.0000
  C   C22       1.0  0.0068822943752734995  0.4206370608733038  0.5860969601973663  1.0000
  C   C23       1.0  0.5173527129400526  0.91344109681161  0.07754093400416201  1.0000
  C   C24       1.0  0.5069064191487768  0.07936847955687647  0.9139077808273013  1.0000
  C   C25       1.0  0.015283158628982099  0.5330376534686322  0.47521099185802024  1.0000
  C   C26       1.0  0.011569873853659396  0.4741169348562834  0.5334098611375351  1.0000
  C   C27       1.0  0.5152649679156908  0.9669745675497764  0.024798804675626195  1.0000
  C   C28       1.0  0.5115379009655924  0.02588325233518421  0.9665894940385938  1.0000
  S   S1        1.0  0.3146558350101926  0.6616000940964922  0.9888344173286113  1.0000
  S   S2        1.0  0.6889317663758021  0.33328335703086504  0.017299616271941397  1.0000
  S   S3        1.0  0.8146484922710256  0.838386446842442  0.5111661996617228  1.0000
  S   S4        1.0  0.18901653714785743  0.16673761204877738  0.482677613600181  1.0000
  O   O1        1.0  0.32907214801825546  0.16229549334464366  0.6653986108098308  1.0000
  O   O2        1.0  0.6746110387128681  0.8377420444581958  0.33586880712719847  1.0000
  O   O3        1.0  0.8290410664670773  0.337692682921812  0.8345948328613628  1.0000
  O   O4        1.0  0.17460917962353764  0.6622495144560857  0.16413592069785207  1.0000
  O   O5        1.0  0.6692238364684399  0.16328258884509947  0.8221564023044932  1.0000
  O   O6        1.0  0.3381928068100634  0.8242866225255555  0.16072697151741977  1.0000
  O   O7        1.0  0.16922971748206087  0.3367107798261769  0.6778384967365054  1.0000
  O   O8        1.0  0.8382000785059133  0.6757107652022254  0.33926913726754987  1.0000
  O   O9        1.0  0.6690277631021714  0.1630547532608091  0.6583268306855813  1.0000
  O   O10       1.0  0.3374338329037059  0.8415744935551853  0.3289660192271099  1.0000
  O   O11       1.0  0.16899784375846139  0.33695449661148297  0.841660902153613  1.0000
  O   O12       1.0  0.8374358019101608  0.6584241848924178  0.17103667639463538  1.0000
  O   O13       1.0  0.8297459113662384  0.33193987633688943  0.6700649064088039  1.0000
  O   O14       1.0  0.17798185199453803  0.6651205118484  0.3265358707208391  1.0000
  O   O15       1.0  0.3297394253786122  0.16806309301549757  0.8299399346550588  1.0000
  O   O16       1.0  0.6779762808583313  0.8348771574289342  0.1734682732967627  1.0000
  O   O17       1.0  0.4999875530259742  0.30587255614555175  0.7510078280040486  1.0000
  O   O18       1.0  0.5086514148251665  0.6935867656853175  0.24656902317416038  1.0000
  O   O19       1.0  6.305864772999999e-07  0.19412281717713847  0.7489902983758582  1.0000
  O   O20       1.0  0.008642337566328697  0.8064094520284968  0.25343055914053986  1.0000
  O   O21       1.0  0.48280917523603517  0.6506957564885949  0.041331670358196994  1.0000
  O   O22       1.0  0.3455509735506794  0.6618328569391493  0.9041515183853903  1.0000
  O   O23       1.0  0.193363280063366  0.7523899916884745  0.0161469025331726  1.0000
  O   O24       1.0  0.8026318930717692  0.25054317009436733  0.9995044828589595  1.0000
  O   O25       1.0  0.5901586005372224  0.35335889605586596  0.09311506658001888  1.0000
  O   O26       1.0  0.5249038533018576  0.33475093077394996  0.9478502800065481  1.0000
  O   O27       1.0  0.9828052939019826  0.8492920535686963  0.45867372297280423  1.0000
  O   O28       1.0  0.8455362756148331  0.8381527426616128  0.595849763406825  1.0000
  O   O29       1.0  0.6933561341934577  0.7476034330605329  0.48385008392282447  1.0000
  O   O30       1.0  0.302825931834967  0.24944423897344586  0.5004469861362182  1.0000
  O   O31       1.0  0.09023099183217198  0.14667365383927944  0.4068649570590424  1.0000
  O   O32       1.0  0.024986494362053698  0.16532511741738887  0.5521366246127568  1.0000
