data_image0
_chemical_formula_structural       Cd2H24C30S2N8O12
_chemical_formula_sum              "Cd2 H24 C30 S2 N8 O12"
_cell_length_a       7.6515744814158335
_cell_length_b       8.145809392637327
_cell_length_c       13.967390809717333
_cell_angle_alpha    92.77961250510924
_cell_angle_beta     98.96291872597999
_cell_angle_gamma    91.10811035578473

_space_group_name_H-M_alt    "P 1"
_space_group_IT_number       1

loop_
  _space_group_symop_operation_xyz
  'x, y, z'

loop_
  _atom_site_type_symbol
  _atom_site_label
  _atom_site_symmetry_multiplicity
  _atom_site_fract_x
  _atom_site_fract_y
  _atom_site_fract_z
  _atom_site_occupancy
  Cd  Cd1       1.0  0.6808784925445721  0.7145934588640871  0.805933857062264  1.0000
  Cd  Cd2       1.0  0.319120599548377  0.28540527082960665  0.1940684169592472  1.0000
  H   H1        1.0  0.8260241484535057  0.3596425472605204  0.7273190798828322  1.0000
  H   H2        1.0  0.17397883219702243  0.6403537006493779  0.2726813125935194  1.0000
  H   H3        1.0  0.7255902522321662  0.1689226846920918  0.7552073460770854  1.0000
  H   H4        1.0  0.2744127265122316  0.8310735568841852  0.24479233011422244  1.0000
  H   H5        1.0  0.9568885793024718  0.12768879772758626  0.09599663534245195  1.0000
  H   H6        1.0  0.04310899503662569  0.8723037603298567  0.9040024901959283  1.0000
  H   H7        1.0  0.31214226748486595  0.42835976819467453  0.9835063031864022  1.0000
  H   H8        1.0  0.6878593546158882  0.571635257791371  0.016494659342356516  1.0000
  H   H9        1.0  0.5591644342631953  0.8842445760562827  0.6110645201808039  1.0000
  H   H10       1.0  0.44083224198313786  0.11576155221190021  0.3889398844512541  1.0000
  H   H11       1.0  0.33678847411768936  0.14804331440275578  0.7412257294468885  1.0000
  H   H12       1.0  0.6632105278894826  0.8519529055998094  0.2587707457391416  1.0000
  H   H13       1.0  0.7398614985939105  0.12893379523222143  0.9457258892876151  1.0000
  H   H14       1.0  0.2601389050998009  0.8710648952061393  0.05427219897870828  1.0000
  H   H15       1.0  0.16482367748515964  0.589731643815128  0.4181383059241241  1.0000
  H   H16       1.0  0.8351758262096496  0.4102806105003581  0.5818643451508264  1.0000
  H   H17       1.0  0.10425926384004208  0.4464522341486089  0.8280497075118588  1.0000
  H   H18       1.0  0.8957424311912803  0.5535452445259637  0.17195060728703734  1.0000
  H   H19       1.0  0.11577284076806649  0.10456883960316794  0.5921308722148879  1.0000
  H   H20       1.0  0.8842210916928294  0.8954347561465853  0.40786464453144317  1.0000
  H   H21       1.0  0.0781909912060925  0.3213627464418423  0.4696930399292113  1.0000
  H   H22       1.0  0.9218004918021023  0.6786470310385725  0.5303060057201563  1.0000
  H   H23       1.0  0.346519294389722  0.8536982335859736  0.4542519242538034  1.0000
  H   H24       1.0  0.6534840642565881  0.14631032210188982  0.5457502435684842  1.0000
  C   C1        1.0  0.7723230705963999  0.2929253002701273  0.7827721683783292  1.0000
  C   C2        1.0  0.22767987072965207  0.7070697117950786  0.21722747353540225  1.0000
  C   C3        1.0  0.9865739518776594  0.19633790373691806  0.03532063257680559  1.0000
  C   C4        1.0  0.013427666410819902  0.8036571095818845  0.9646788973818797  1.0000
  C   C5        1.0  0.9049815961645038  0.2866189411535132  0.873628985006256  1.0000
  C   C6        1.0  0.0950212665125747  0.7133735992223011  0.12636915578222124  1.0000
  C   C7        1.0  0.1835822524542081  0.36412903201213004  0.9720495969113327  1.0000
  C   C8        1.0  0.8164206888718438  0.6358659800530762  0.027950045002391708  1.0000
  C   C9        1.0  0.47863591629166535  0.7720273326943715  0.5917884531502222  1.0000
  C   C10       1.0  0.5213634022175242  0.22797878039937566  0.4082147428218405  1.0000
  C   C11       1.0  0.427027828641421  0.38381972193380426  0.7055543106162288  1.0000
  C   C12       1.0  0.5729751798967866  0.6161777238190569  0.294442534712516  1.0000
  C   C13       1.0  0.32203027930961525  0.24158478549903611  0.6875485947329947  1.0000
  C   C14       1.0  0.6779700438289852  0.758411426916311  0.3124472761230307  1.0000
  C   C15       1.0  0.4056878506606623  0.5118940554290959  0.6384072637740841  1.0000
  C   C16       1.0  0.5943100623497273  0.48810957456161236  0.36159288654761196  1.0000
  C   C17       1.0  0.8650348450835067  0.1968936998721419  0.9506475746689416  1.0000
  C   C18       1.0  0.1349707423176696  0.8031013096858788  0.04935229115487519  1.0000
  C   C19       1.0  0.2600401016920202  0.6106218996843966  0.4844723919181887  1.0000
  C   C20       1.0  0.739955318728917  0.38938666352503765  0.5155291041738364  1.0000
  C   C21       1.0  0.0681156331759638  0.37210799583085236  0.8851345875714498  1.0000
  C   C22       1.0  0.9318872669194604  0.6278857740560327  0.11486358749461086  1.0000
  C   C23       1.0  0.2792243176815036  0.4851767374498409  0.55159585243058  1.0000
  C   C24       1.0  0.7207711027394339  0.5148318257595862  0.4484056436614522  1.0000
  C   C25       1.0  0.1965901860933386  0.21765023074805612  0.6022882042537248  1.0000
  C   C26       1.0  0.8034025019789652  0.7823558379446782  0.3977087016628145  1.0000
  C   C27       1.0  0.17643406610686443  0.3370118008130518  0.5351254348292754  1.0000
  C   C28       1.0  0.8235600274642394  0.6629967509827284  0.46487451673763036  1.0000
  C   C29       1.0  0.35938982176644163  0.7544379644170081  0.504206567474675  1.0000
  C   C30       1.0  0.6406108946170123  0.24557060644529127  0.4957968090076007  1.0000
  S   S1        1.0  0.578642289919074  0.40083497637719034  0.8155941153056074  1.0000
  S   S2        1.0  0.4213593245571445  0.5991600242743688  0.18440398208299763  1.0000
  N   N1        1.0  0.5016170651950986  0.6560300522507848  0.6558545968329664  1.0000
  N   N2        1.0  0.49838349770268303  0.3439735878999813  0.3441472099688879  1.0000
  N   N3        1.0  0.1430115714290352  0.2788602155041461  0.04617934641719759  1.0000
  N   N4        1.0  0.8569913362909316  0.7211335797172327  0.9538216937890237  1.0000
  N   N5        1.0  0.9751841113609387  0.7913998813334618  0.7038526943266985  1.0000
  N   N6        1.0  0.024813728718882492  0.20860129596872667  0.2961481037248673  1.0000
  N   N7        1.0  0.4129030390147221  0.9153843945020272  0.8693905657388468  1.0000
  N   N8        1.0  0.5870986560166003  0.08461308417254541  0.13060974906004924  1.0000
  O   O1        1.0  0.949767616194933  0.6408006434067134  0.7216306469879823  1.0000
  O   O2        1.0  0.05023290547222808  0.3592017545657313  0.27836969296621555  1.0000
  O   O3        1.0  0.40461469992587956  0.7641971662739737  0.8876282883507114  1.0000
  O   O4        1.0  0.5953949802798347  0.2358015660582141  0.11237631388122786  1.0000
  O   O5        1.0  0.5379254278718477  0.9634503299195176  0.8232125629568398  1.0000
  O   O6        1.0  0.4620736565965656  0.036548374439682604  0.17678684592451074  1.0000
  O   O7        1.0  0.8678331537120555  0.8978231665931775  0.7309710471263667  1.0000
  O   O8        1.0  0.13215931175627557  0.10217553136675411  0.2690263694096941  1.0000
  O   O9        1.0  0.0981266544565429  0.8341509474416003  0.6609751526753127  1.0000
  O   O10       1.0  0.9018699355162808  0.16585268380270432  0.33902488569133726  1.0000
  O   O11       1.0  0.3068678334676846  0.0169998104043785  0.8939496364406093  1.0000
  O   O12       1.0  0.6931271245900987  0.982993954336827  0.10604643432512258  1.0000
