data_image0
_chemical_formula_structural       Sm4P8H48C24N4O44
_chemical_formula_sum              "Sm4 P8 H48 C24 N4 O44"
_cell_length_a       8.906097715
_cell_length_b       12.627970052317778
_cell_length_c       14.5187
_cell_angle_alpha    113.80741420875798
_cell_angle_beta     90.0
_cell_angle_gamma    90.0

_space_group_name_H-M_alt    "P 1"
_space_group_IT_number       1

loop_
  _space_group_symop_operation_xyz
  'x, y, z'

loop_
  _atom_site_type_symbol
  _atom_site_label
  _atom_site_symmetry_multiplicity
  _atom_site_fract_x
  _atom_site_fract_y
  _atom_site_fract_z
  _atom_site_occupancy
  Sm  Sm1       1.0  0.7523227584529124  0.9102981262854968  0.8315993797466987  1.0000
  Sm  Sm2       1.0  0.2523293671273166  0.089702413900703  0.6684003277735187  1.0000
  Sm  Sm3       1.0  0.2476718839817948  0.0896998172678209  0.16839803857310193  1.0000
  Sm  Sm4       1.0  0.7476798720482023  0.9103007229183717  0.33160235771401153  1.0000
  P   P1        1.0  0.6024636346582  0.17898330773067533  0.8136464696523549  1.0000
  P   P2        1.0  0.1024657520277401  0.8210155013669292  0.6863512525563137  1.0000
  P   P3        1.0  0.3975321306027269  0.8210155013669292  0.18635400762391896  1.0000
  P   P4        1.0  0.8975333817118383  0.1789824421863813  0.3136461657634868  1.0000
  P   P5        1.0  0.1120883727020754  0.3898203765348427  0.7259431662496426  1.0000
  P   P6        1.0  0.6120873781587548  0.610179298107056  0.7740562373817  1.0000
  P   P7        1.0  0.887910761037503  0.610181029195644  0.2740561563925397  1.0000
  P   P8        1.0  0.3879117555808236  0.3898177799019678  0.2259436321168309  1.0000
  H   H1        1.0  0.2318187006327932  0.41013037337168606  0.861547542282338  1.0000
  H   H2        1.0  0.7318188289156922  0.5898718979030946  0.638452084248712  1.0000
  H   H3        1.0  0.7681815559329976  0.5898744945359695  0.1384516183815235  1.0000
  H   H4        1.0  0.2681825504763183  0.4101260456502231  0.3615474003717836  1.0000
  H   H5        1.0  0.5634308268983546  0.8767245287016722  0.640956289406347  1.0000
  H   H6        1.0  0.0634306986154627  0.1232760114845206  0.8590399742793623  1.0000
  H   H7        1.0  0.4365649383625723  0.12327428039593259  0.35904005526852245  1.0000
  H   H8        1.0  0.9365661894716837  0.8767271253345541  0.14095720107295756  1.0000
  H   H9        1.0  0.703509011522229  0.7943948210893268  0.6126526661440935  1.0000
  H   H10       1.0  0.2035100060655495  0.2056065846411599  0.8873494115656939  1.0000
  H   H11       1.0  0.2964889993911299  0.2056065846411599  0.3873494115656939  1.0000
  H   H12       1.0  0.7964902505002414  0.7943948210893268  0.1126519773771903  1.0000
  H   H13       1.0  0.9146935347766957  0.2215178853806279  0.7628497736978588  1.0000
  H   H14       1.0  0.4146978977986677  0.7784791926283888  0.7371487182668659  1.0000
  H   H15       1.0  0.0853044761366633  0.7784809237169767  0.23715070357841475  1.0000
  H   H16       1.0  0.5853046044195551  0.2215187509249219  0.2628500775867337  1.0000
  H   H17       1.0  0.7023536233455729  0.18974115774921776  0.6615362693486517  1.0000
  H   H18       1.0  0.2023579863675451  0.8102585168926809  0.8384638230495938  1.0000
  H   H19       1.0  0.2976455103939983  0.8102576513483868  0.3384655854614279  1.0000
  H   H20       1.0  0.7976456386768973  0.1897420232935119  0.1615345069368175  1.0000
  H   H21       1.0  0.6249033165924588  0.3268130797209494  0.7472083804791582  1.0000
  H   H22       1.0  0.1249031883095597  0.6731883260095373  0.7527916309299201  1.0000
  H   H23       1.0  0.3750969399733322  0.6731883260095373  0.2527909421630241  1.0000
  H   H24       1.0  0.8750970682562311  0.3268122141766554  0.24720945412408923  1.0000
  H   H25       1.0  0.8451883463306444  0.4410372289885629  0.7460417631068524  1.0000
  H   H26       1.0  0.345189340873965  0.5589615801090417  0.7539580254025182  1.0000
  H   H27       1.0  0.1548074189302753  0.5589607145647477  0.2539570327467473  1.0000
  H   H28       1.0  0.6548120385180383  0.4410372289885629  0.24604107433994934  1.0000
  H   H29       1.0  0.8863971912978243  0.3087361871602212  0.6415084135252086  1.0000
  H   H30       1.0  0.3863970630149325  0.6912617563930894  0.858491071095294  1.0000
  H   H31       1.0  0.1136008196155274  0.6912600253045014  0.3584918408513502  1.0000
  H   H32       1.0  0.6136031935508584  0.3087361871602212  0.1415077247583056  1.0000
  H   H33       1.0  0.9592068572986677  0.396207227873397  0.9134218437149999  1.0000
  H   H34       1.0  0.4592056061895562  0.6037907156799207  0.5865790184393092  1.0000
  H   H35       1.0  0.0407933992671232  0.6037933123127956  0.0865806188728229  1.0000
  H   H36       1.0  0.5407935275500152  0.39620636232910306  0.4134208510592217  1.0000
  H   H37       1.0  0.773192729336678  0.44248961231232903  0.8992898814460233  1.0000
  H   H38       1.0  0.2731937238799986  0.5575100623295697  0.6007115884860212  1.0000
  H   H39       1.0  0.22680528157668084  0.5575109278738637  0.10071189237489618  1.0000
  H   H40       1.0  0.7268054098595728  0.44248961231232903  0.39928919267912016  1.0000
  H   H41       1.0  0.8504993143341011  0.226400420737825  0.9407526502986698  1.0000
  H   H42       1.0  0.3505025545298537  0.7735966572711915  0.5592465304329579  1.0000
  H   H43       1.0  0.1494964509268257  0.7735983883597797  0.05924782697760374  1.0000
  H   H44       1.0  0.6494988248621496  0.226400420737825  0.4407526502986698  1.0000
  H   H45       1.0  0.7878568397225365  0.363139973701017  0.0311693848872281  1.0000
  H   H46       1.0  0.2878578342658571  0.6368588353965876  0.4688310923890455  1.0000
  H   H47       1.0  0.2121422940170348  0.6368597009408816  0.9688320850448165  1.0000
  H   H48       1.0  0.7121424222999337  0.363139973701017  0.531168696120325  1.0000
  C   C1        1.0  0.6912791883734712  0.2507577026890573  0.740561868751712  1.0000
  C   C2        1.0  0.1912813057430043  0.7492437030414294  0.7594395201911796  1.0000
  C   C3        1.0  0.3087199453661071  0.7492419719528415  0.25943960118033266  1.0000
  C   C4        1.0  0.8087211964752186  0.2507577026890573  0.24055980245100983  1.0000
  C   C5        1.0  0.9095105689619062  0.360281946445312  0.7215928622227494  1.0000
  C   C6        1.0  0.4095093178527947  0.6397177281965938  0.7784058526416898  1.0000
  C   C7        1.0  0.0904885647776652  0.6397168626522998  0.278406237519718  1.0000
  C   C8        1.0  0.5904886930605642  0.360281946445312  0.22159286222274943  1.0000
  C   C9        1.0  0.8439352722731712  0.3677169719227606  0.8907319513233674  1.0000
  C   C10       1.0  0.3439362668164918  0.632280106086256  0.6092679181751636  1.0000
  C   C11       1.0  0.156061615813968  0.632282702719138  0.10926882984177409  1.0000
  C   C12       1.0  0.656063989749299  0.3677161063784737  0.39073164743449945  1.0000
  C   C13       1.0  0.7839617555779341  0.3038060468669102  0.9515147392686603  1.0000
  C   C14       1.0  0.2839616272950352  0.6961927622307016  0.5484857380076136  1.0000
  C   C15       1.0  0.2160385009878567  0.6961936277749956  0.04848810819719059  1.0000
  C   C16       1.0  0.7160397520969681  0.3038060468669102  0.45151336173485385  1.0000
  C   C17       1.0  0.9808347358784815  0.9493990897248423  0.0150417901131092  1.0000
  C   C18       1.0  0.4808424673791052  0.05059971937276231  0.4849469781258549  1.0000
  C   C19       1.0  0.0191677663397414  0.0506023160056444  0.9849492673262716  1.0000
  C   C20       1.0  0.5191780000585808  0.9493973586362614  0.5150439374029717  1.0000
  C   C21       1.0  0.558456706759813  0.0388837118217893  0.0389206949297858  1.0000
  C   C22       1.0  0.0584599469555656  0.9611202905415722  0.46108436074731435  1.0000
  C   C23       1.0  0.4415401813273263  0.9611150972758153  0.9610804711133839  1.0000
  C   C24       1.0  0.9415403096102254  0.0388845773660833  0.5389230651193628  1.0000
  N   N1        1.0  0.847036518282799  0.2937925649404036  0.7789777178075994  1.0000
  N   N2        1.0  0.3470375128261196  0.706207109701495  0.7210223745906461  1.0000
  N   N3        1.0  0.1529614926305598  0.7062088407900831  0.221025048669091  1.0000
  N   N4        1.0  0.6529616209134517  0.2937908338518156  0.2789757324960505  1.0000
  O   O1        1.0  0.4353522860488823  0.172551448088889  0.7952105144892485  1.0000
  O   O2        1.0  0.9353524143317813  0.8274525542744797  0.7047897198195515  1.0000
  O   O3        1.0  0.564649093343121  0.8274551509073548  0.2047940753206632  1.0000
  O   O4        1.0  0.0646467194077971  0.1725471203674189  0.29520623997728995  1.0000
  O   O5        1.0  0.688298084768995  0.068994266689046  0.7946169444727716  1.0000
  O   O6        1.0  0.1883058162696116  0.9310036768642718  0.705380473847022  1.0000
  O   O7        1.0  0.3116864522297718  0.9310062734971467  0.20538414058123783  1.0000
  O   O8        1.0  0.8116921946437472  0.068994266689046  0.29461556693897256  1.0000
  O   O9        1.0  0.6273252527411799  0.2714996061281383  0.9277811706114676  1.0000
  O   O10       1.0  0.1273273701107129  0.7285009340580544  0.5722199144425489  1.0000
  O   O11       1.0  0.3726727581721789  0.7285017996023483  0.07222090709831969  1.0000
  O   O12       1.0  0.8726740092812904  0.2714987405838443  0.42777948918879366  1.0000
  O   O13       1.0  0.1979419108585461  0.2767318213797338  0.6881130854062435  1.0000
  O   O14       1.0  0.6979420391414379  0.7232669877178708  0.8118867031031272  1.0000
  O   O15       1.0  0.8020594685334643  0.7232704498950397  0.3118872298917168  1.0000
  O   O16       1.0  0.3020615859030045  0.2767300902911529  0.1881159214630017  1.0000
  O   O17       1.0  0.1551229330970827  0.45562944022540103  0.8458994026300743  1.0000
  O   O18       1.0  0.6551275526848386  0.5443676377836226  0.6541004668684565  1.0000
  O   O19       1.0  0.8448694636851997  0.5443693688722107  0.15410038587929617  1.0000
  O   O20       1.0  0.3448771951858163  0.4556285746811071  0.3459011650419086  1.0000
  O   O21       1.0  0.1285344082933193  0.4717294296207585  0.6759371428715114  1.0000
  O   O22       1.0  0.6285334137499987  0.5282676483882582  0.8240620378601164  1.0000
  O   O23       1.0  0.8714568656627435  0.5282693794768463  0.3240633344047623  1.0000
  O   O24       1.0  0.3714634743371477  0.4717285640764644  0.17593821651644254  1.0000
  O   O25       1.0  0.0326562776770487  0.9581618601478682  0.09994593513857103  1.0000
  O   O26       1.0  0.5326597744385992  0.0418378144940306  0.4000507134251734  1.0000
  O   O27       1.0  0.967334996279007  0.0418421422155006  0.9000467227343236  1.0000
  O   O28       1.0  0.4673472190844947  0.9581609946035741  0.5999497638511002  1.0000
  O   O29       1.0  0.9029757203826065  0.8673359697547623  0.9557291176919663  1.0000
  O   O30       1.0  0.4029767149259271  0.1326637048871362  0.544263398270374  1.0000
  O   O31       1.0  0.0970301503142679  0.1326602427099601  0.04425805011348419  1.0000
  O   O32       1.0  0.5970336470758113  0.8673402974762325  0.4557382135722249  1.0000
  O   O33       1.0  0.5143015658008636  0.0891467344645491  0.1294875773338191  1.0000
  O   O34       1.0  0.0143126657801318  0.9108555368102317  0.37052238070074855  1.0000
  O   O35       1.0  0.4856941994600632  0.9108538057216435  0.8705114414194952  1.0000
  O   O36       1.0  0.9856965733953871  0.0891484655531372  0.6294978278481693  1.0000
  O   O37       1.0  0.6874121748842725  0.04615514942785381  0.005883702047462698  1.0000
  O   O38       1.0  0.1874210292111087  0.95385144956839  0.49412364283005417  1.0000
  O   O39       1.0  0.3125869588552987  0.9538436596697507  0.9941160864619079  1.0000
  O   O40       1.0  0.8125927012692813  0.0461560149721478  0.5058881385377347  1.0000
  O   O41       1.0  0.623488555559824  0.822829682205203  0.6625796822061147  1.0000
  O   O42       1.0  0.1234929185817961  0.1771725890695777  0.8374178780242334  1.0000
  O   O43       1.0  0.37650496404867084  0.1771725890695777  0.3374185667911362  1.0000
  O   O44       1.0  0.8765107064626463  0.8228314132937911  0.16258028998385748  1.0000
