data_image0
_chemical_formula_structural       Ag2H16C28N6O6
_chemical_formula_sum              "Ag2 H16 C28 N6 O6"
_cell_length_a       8.381523090994223
_cell_length_b       8.46518292078475
_cell_length_c       10.41415345577121
_cell_angle_alpha    110.35430089677958
_cell_angle_beta     97.1214960830138
_cell_angle_gamma    101.04066138244595

_space_group_name_H-M_alt    "P 1"
_space_group_IT_number       1

loop_
  _space_group_symop_operation_xyz
  'x, y, z'

loop_
  _atom_site_type_symbol
  _atom_site_label
  _atom_site_symmetry_multiplicity
  _atom_site_fract_x
  _atom_site_fract_y
  _atom_site_fract_z
  _atom_site_occupancy
  Ag  Ag1       1.0  0.8098465506360099  0.42719246256213944  0.31983084685076346  1.0000
  Ag  Ag2       1.0  0.19014950502698005  0.5728419779990118  0.6801737336039793  1.0000
  H   H1        1.0  0.08402031825916367  0.2535079087333968  0.22662354066929416  1.0000
  H   H2        1.0  0.9159799201111909  0.746500578579031  0.7734008247549939  1.0000
  H   H3        1.0  0.20392611205973313  0.14152717839259307  0.012372063083688514  1.0000
  H   H4        1.0  0.796062724029909  0.8584756372016143  0.987645679686658  1.0000
  H   H5        1.0  0.07257140745880258  0.16216144059019647  0.788665801428678  1.0000
  H   H6        1.0  0.9274461205543432  0.8378598015709785  0.21133719505841245  1.0000
  H   H7        1.0  0.833514506551161  0.29750567596598637  0.7912826933622911  1.0000
  H   H8        1.0  0.16649564854741775  0.7025103779397809  0.2087228223058729  1.0000
  H   H9        1.0  0.27355482264660214  0.9857238562587155  0.3271717289263306  1.0000
  H   H10       1.0  0.7264390638732721  0.014298558547608302  0.6728326075329747  1.0000
  H   H11       1.0  0.285450166272021  0.1093284968488533  0.5826575734806951  1.0000
  H   H12       1.0  0.7145534668628528  0.8906807309974026  0.41735384476037046  1.0000
  H   H13       1.0  0.5164620566327969  0.3771623236034287  0.7333792288479373  1.0000
  H   H14       1.0  0.4835609917943841  0.6228355476906983  0.26662526657447927  1.0000
  H   H15       1.0  0.7203053732532254  0.5047149597086291  0.6168799350225243  1.0000
  H   H16       1.0  0.2796915864085321  0.4953065589714072  0.3831157042203301  1.0000
  C   C1        1.0  0.03389851068416048  0.26115629223968273  0.1276356454085246  1.0000
  C   C2        1.0  0.9660929391272647  0.7388594418036689  0.8723884388488798  1.0000
  C   C3        1.0  0.0982359073097641  0.19824849124038477  0.007938979907670793  1.0000
  C   C4        1.0  0.9017544391339316  0.8017740622644212  0.9920660749203877  1.0000
  C   C5        1.0  0.026455573279349668  0.21039691516418194  0.8845773928092057  1.0000
  C   C6        1.0  0.9735462984010822  0.7896305660930452  0.1154446321311937  1.0000
  C   C7        1.0  0.8911329249823083  0.28326428360177397  0.8848721920415131  1.0000
  C   C8        1.0  0.10886268112194834  0.7167510942373312  0.11513480300021685  1.0000
  C   C9        1.0  0.8307057055154061  0.341239591613558  0.008442625422738067  1.0000
  C   C10       1.0  0.16928231214741626  0.6587463931560009  0.9915464895593827  1.0000
  C   C11       1.0  0.6904794663341534  0.4108792398582963  0.010673695368701898  1.0000
  C   C12       1.0  0.3094964067270211  0.5890765448186173  0.9893122939900182  1.0000
  C   C13       1.0  0.5671272052709712  0.4679998107471235  0.003467071910279194  1.0000
  C   C14       1.0  0.4328987873525846  0.5319614726297954  0.9964988244854069  1.0000
  C   C15       1.0  0.49725037188162696  0.03600861649452721  0.068229448586429  1.0000
  C   C16       1.0  0.5027226457033861  0.9639794932398119  0.9317600971569038  1.0000
  C   C17       1.0  0.494791579386245  0.10350819807000279  0.1929997522573501  1.0000
  C   C18       1.0  0.5052155873200093  0.896504584803516  0.8070159964942436  1.0000
  C   C19       1.0  0.49273750083117557  0.17620061575850338  0.3374381932437132  1.0000
  C   C20       1.0  0.5072654591885453  0.8237909020307937  0.6625568260236109  1.0000
  C   C21       1.0  0.3713983957358947  0.09977138201340101  0.3944579639179295  1.0000
  C   C22       1.0  0.6285996933128358  0.900228542302173  0.6055365092371616  1.0000
  C   C23       1.0  0.37808473044489693  0.17073132976383218  0.5379350477284888  1.0000
  C   C24       1.0  0.6219096235246298  0.8292517129878192  0.4620526643473469  1.0000
  C   C25       1.0  0.5053935758289257  0.31734862034349476  0.6205962476778311  1.0000
  C   C26       1.0  0.4946175745227777  0.6826466507968688  0.3793968137661423  1.0000
  C   C27       1.0  0.6201719552190711  0.38875290057656997  0.5567655152771565  1.0000
  C   C28       1.0  0.37983283647029253  0.6112454478482051  0.4432270677170252  1.0000
  N   N1        1.0  0.9036081103723177  0.33258143849029415  0.12940331495010332  1.0000
  N   N2        1.0  0.09638510272534968  0.6674087223238416  0.8705991241713776  1.0000
  N   N3        1.0  0.6152325698958093  0.32192280711289095  0.418822245526151  1.0000
  N   N4        1.0  0.38476688541298637  0.6780613266568736  0.5811652757074414  1.0000
  N   N5        1.0  0.03351803892446258  0.7935993925708471  0.5313120248883862  1.0000
  N   N6        1.0  0.966488983994864  0.20639240578150003  0.4686949582480651  1.0000
  O   O1        1.0  0.9226963853075388  0.6708433991299001  0.5409592018050873  1.0000
  O   O2        1.0  0.0773218290386524  0.3291334922190217  0.4590399943019606  1.0000
  O   O3        1.0  0.05495850174717277  0.7868492752817744  0.41230379452392196  1.0000
  O   O4        1.0  0.9450228439672729  0.21312713656808308  0.5876730046593224  1.0000
  O   O5        1.0  0.11825492298314794  0.914546599670416  0.6422269975444763  1.0000
  O   O6        1.0  0.8817381131011998  0.08543732345754051  0.3577493522918331  1.0000
