data_image0
_chemical_formula_structural       Cu6H30C34N16Cl8
_chemical_formula_sum              "Cu6 H30 C34 N16 Cl8"
_cell_length_a       9.882101095908011
_cell_length_b       10.537280644847502
_cell_length_c       11.797203843170156
_cell_angle_alpha    94.13226958458031
_cell_angle_beta     91.93050348895757
_cell_angle_gamma    115.91796904485038

_space_group_name_H-M_alt    "P 1"
_space_group_IT_number       1

loop_
  _space_group_symop_operation_xyz
  'x, y, z'

loop_
  _atom_site_type_symbol
  _atom_site_label
  _atom_site_symmetry_multiplicity
  _atom_site_fract_x
  _atom_site_fract_y
  _atom_site_fract_z
  _atom_site_occupancy
  Cu  Cu1       1.0  0.5604201297272978  0.14220653376659706  0.41162850273236284  1.0000
  Cu  Cu2       1.0  0.4394975868138291  0.8574040247475813  0.5886530671500838  1.0000
  Cu  Cu3       1.0  0.6243787740960515  0.86478249806752  0.2432795236338309  1.0000
  Cu  Cu4       1.0  0.3754570968594421  0.13529546624132394  0.7570483081217962  1.0000
  Cu  Cu5       1.0  0.8519894218879783  0.019487830093893904  0.0006934652229943957  1.0000
  Cu  Cu6       1.0  0.14837256562512396  0.9798367361932637  0.9988159593473686  1.0000
  H   H1        1.0  0.4767361333060477  0.37079546508476113  0.5176717772155899  1.0000
  H   H2        1.0  0.5231306697799312  0.6286692370629368  0.48240499713769236  1.0000
  H   H3        1.0  0.25684559772793153  0.43073622341800905  0.4873994061434247  1.0000
  H   H4        1.0  0.7432681697552184  0.5691519971332685  0.5126618706960999  1.0000
  H   H5        1.0  0.06258964251203031  0.29506231047191994  0.3254367574865001  1.0000
  H   H6        1.0  0.9375829922013778  0.7051220361379507  0.6744178167509818  1.0000
  H   H7        1.0  0.1032078178088156  0.1204478486977862  0.19396139146572017  1.0000
  H   H8        1.0  0.8969019378334694  0.8797037501962921  0.805851873679153  1.0000
  H   H9        1.0  0.461369180647786  0.7817604693873009  0.008124844687628812  1.0000
  H   H10       1.0  0.5389586436161763  0.2182331251261047  0.9918250565157793  1.0000
  H   H11       1.0  0.34733128462775653  0.8410754326857913  0.9295366735576994  1.0000
  H   H12       1.0  0.6532468798276126  0.15915124610988582  0.07037613764583743  1.0000
  H   H13       1.0  0.21310063843255736  0.5829260797658904  0.9410076614047188  1.0000
  H   H14       1.0  0.7870660890449486  0.41715867732922635  0.058850861256779345  1.0000
  H   H15       1.0  0.11691397884977313  0.6726938442956084  0.008089976268919916  1.0000
  H   H16       1.0  0.8834653060286752  0.32774290307445864  0.9916716923987114  1.0000
  H   H17       1.0  0.21604822626700587  0.6550611549919695  0.19934743181776335  1.0000
  H   H18       1.0  0.7837874939023806  0.345145491151449  0.8004773267330382  1.0000
  H   H19       1.0  0.11828993703648656  0.48513772158439394  0.12310451162278474  1.0000
  H   H20       1.0  0.8815555177147658  0.5151028510202097  0.876719478860274  1.0000
  H   H21       1.0  0.7667072272130041  0.46191266832281036  0.2522463458649683  1.0000
  H   H22       1.0  0.23354599294454914  0.5384377512726674  0.7478143995918676  1.0000
  H   H23       1.0  0.02650714233412545  0.6038441344189991  0.35333887993698465  1.0000
  H   H24       1.0  0.9736542959630298  0.39674158294452166  0.6467907456172244  1.0000
  H   H25       1.0  0.11467182958688245  0.8614597706548468  0.40725874224094144  1.0000
  H   H26       1.0  0.8851497056786497  0.13912650319985434  0.5929157673812357  1.0000
  H   H27       1.0  0.9408807386252674  0.9722431002189255  0.36062484996350735  1.0000
  H   H28       1.0  0.05859126020411049  0.028014883260119902  0.6393824359995153  1.0000
  H   H29       1.0  0.2764569133573787  0.3464185773379995  0.07524410632930773  1.0000
  H   H30       1.0  0.7234131152480076  0.6535635329719655  0.924888990649578  1.0000
  C   C1        1.0  0.3920010579406963  0.321463954325182  0.44627579209377205  1.0000
  C   C2        1.0  0.6078982894006657  0.6781315042522139  0.5537482246783301  1.0000
  C   C3        1.0  0.26884962235959625  0.3512377675614787  0.43007519292580565  1.0000
  C   C4        1.0  0.7311854413564947  0.6485859313449681  0.569937894610739  1.0000
  C   C5        1.0  0.16302921766170192  0.278212300191342  0.33889777782327013  1.0000
  C   C6        1.0  0.8370380652665118  0.7217784592741056  0.6610218299636943  1.0000
  C   C7        1.0  0.18464033456965717  0.18024800914879793  0.26515886799987254  1.0000
  C   C8        1.0  0.8153461831514761  0.8197172184175159  0.7347372374165675  1.0000
  C   C9        1.0  0.3125657253564071  0.15888764212722614  0.2849335106902232  1.0000
  C   C10       1.0  0.6872414759322256  0.8408360877295354  0.715026496686548  1.0000
  C   C11       1.0  0.3495976550926514  0.0573061107688204  0.21985054092207434  1.0000
  C   C12       1.0  0.6501196371679044  0.9423332296195356  0.7801647005090832  1.0000
  C   C13       1.0  0.376135024298442  0.9026207739226848  0.10670026659214227  1.0000
  C   C14       1.0  0.62404416737413  0.09728411681700071  0.8932868386408618  1.0000
  C   C15       1.0  0.358671868241423  0.7976331908813494  0.009262737396170537  1.0000
  C   C16       1.0  0.641742636062986  0.2024661506797898  0.9906061962819881  1.0000
  C   C17       1.0  0.2190458016141435  0.6556623947198547  0.014711453352866518  1.0000
  C   C18       1.0  0.7811969150264203  0.34452248590149287  0.9851052565420775  1.0000
  C   C19       1.0  0.21948641152784634  0.586952348184994  0.12543794916394552  1.0000
  C   C20       1.0  0.7804713192013182  0.41321181956076464  0.8744626821091901  1.0000
  C   C21       1.0  0.35476750405118196  0.5618889650924217  0.14565093226374873  1.0000
  C   C22       1.0  0.645099169725256  0.43816856140482946  0.854449157695868  1.0000
  C   C23       1.0  0.5721430232717639  0.5772742908669813  0.19762008680381637  1.0000
  C   C24       1.0  0.4276942625434541  0.4227744423396373  0.8025090962618295  1.0000
  C   C25       1.0  0.7237408491752718  0.6454670238646757  0.2528111387977817  1.0000
  C   C26       1.0  0.2761474124028709  0.3546976986982601  0.7472664677672685  1.0000
  C   C27       1.0  0.8118913764068196  0.5756050477350172  0.2755770485346361  1.0000
  C   C28       1.0  0.18817591309870352  0.4247287683404508  0.7244901153607092  1.0000
  C   C29       1.0  0.9544121031755637  0.6538389967716329  0.3311320396959872  1.0000
  C   C30       1.0  0.04563511323637932  0.3466363603020212  0.6689732074167909  1.0000
  C   C31       1.0  0.004333264894562258  0.7984745760982718  0.36207786253093144  1.0000
  C   C32       1.0  0.995519124210297  0.20200417471303922  0.6380459636711537  1.0000
  C   C33       1.0  0.9090029852667882  0.8603518462815671  0.3376542032960118  1.0000
  C   C34       1.0  0.0907001182453016  0.1399500733916597  0.6623955845252995  1.0000
  N   N1        1.0  0.4132396455625127  0.22794451572078603  0.3755669359836916  1.0000
  N   N2        1.0  0.5865396427569748  0.7715997251945269  0.6244510536108268  1.0000
  N   N3        1.0  0.4567179029011966  0.029735694896736206  0.2686899433495357  1.0000
  N   N4        1.0  0.5427625493565388  0.9697340378958048  0.7315197458585987  1.0000
  N   N5        1.0  0.29531020039944184  0.9797923004878158  0.11738886879649615  1.0000
  N   N6        1.0  0.7048417168284401  0.020091207134029797  0.8824696951398824  1.0000
  N   N7        1.0  0.4725918411517754  0.9314132229343745  0.1988328698782952  1.0000
  N   N8        1.0  0.5271750466474714  0.06828012891732271  0.8013485483395544  1.0000
  N   N9        1.0  0.4896738877127263  0.6532619804930705  0.19607375155393927  1.0000
  N   N10       1.0  0.5101438712331542  0.34676220525313545  0.8040718372959293  1.0000
  N   N11       1.0  0.36168693468471963  0.4386908579560043  0.11698246292733223  1.0000
  N   N12       1.0  0.6381595452633562  0.5613624666944403  0.8831032140059991  1.0000
  N   N13       1.0  0.49763351283410634  0.4449799279589968  0.14911478142414586  1.0000
  N   N14       1.0  0.502213752075356  0.5550858989490097  0.8509989099844762  1.0000
  N   N15       1.0  0.7714649597823353  0.7854105023256823  0.2844736162753564  1.0000
  N   N16       1.0  0.2282673448644275  0.214741157786797  0.7155758814774632  1.0000
  Cl  Cl1       1.0  0.7168001251479267  0.3191380281252307  0.5347266724134487  1.0000
  Cl  Cl2       1.0  0.28312449612094076  0.680754685983395  0.4654932831488738  1.0000
  Cl  Cl3       1.0  0.6671448293429662  0.9927884620920226  0.4426892508575977  1.0000
  Cl  Cl4       1.0  0.3331820008072341  0.006915657589495099  0.5575982621232287  1.0000
  Cl  Cl5       1.0  0.8148260692168776  0.07652968894019102  0.18359468646100655  1.0000
  Cl  Cl6       1.0  0.18525535321274583  0.9231494456236501  0.8155153607814188  1.0000
  Cl  Cl7       1.0  0.8970502876855945  0.8163759906707855  0.025106236738828624  1.0000
  Cl  Cl8       1.0  0.10353530759222451  0.18285603097784534  0.9749971753735739  1.0000
