data_image0
_chemical_formula_structural       Mn2H28C46N6Cl2O8
_chemical_formula_sum              "Mn2 H28 C46 N6 Cl2 O8"
_cell_length_a       8.574870120883663
_cell_length_b       10.439988857617182
_cell_length_c       10.90644063364961
_cell_angle_alpha    79.60953741958866
_cell_angle_beta     88.00838474921296
_cell_angle_gamma    79.69116742018619

_space_group_name_H-M_alt    "P 1"
_space_group_IT_number       1

loop_
  _space_group_symop_operation_xyz
  'x, y, z'

loop_
  _atom_site_type_symbol
  _atom_site_label
  _atom_site_symmetry_multiplicity
  _atom_site_fract_x
  _atom_site_fract_y
  _atom_site_fract_z
  _atom_site_occupancy
  Mn  Mn1       1.0  0.2863315118624429  0.17612648119080626  0.2113933163199775  1.0000
  Mn  Mn2       1.0  0.7136706944271649  0.8238713711250298  0.7886084069191028  1.0000
  H   H1        1.0  0.12153374271758818  0.3505119365402152  0.382733096986101  1.0000
  H   H2        1.0  0.8784629482953152  0.649489832726438  0.6172653254283277  1.0000
  H   H3        1.0  0.5632405780394761  0.041899040980254695  0.4108368688045659  1.0000
  H   H4        1.0  0.4367601492174132  0.9581057354283827  0.5891636359710261  1.0000
  H   H5        1.0  0.8446072197895302  0.9262269021001546  0.4104754376485431  1.0000
  H   H6        1.0  0.1553942528076604  0.0737798649874009  0.5895255989111803  1.0000
  H   H7        1.0  0.9788736717699533  0.9074943101531405  0.20510039391410825  1.0000
  H   H8        1.0  0.021125571083104  0.09250652407013149  0.7949027077190679  1.0000
  H   H9        1.0  0.8314907802340131  0.016550965424905004  0.00806386603422029  1.0000
  H   H10       1.0  0.1685093030730087  0.9834458827945551  0.9919371865444121  1.0000
  H   H11       1.0  0.7135398359758937  0.15753312684833526  0.8600072890771743  1.0000
  H   H12       1.0  0.2864596103215718  0.8424666692532338  0.13999141108988072  1.0000
  H   H13       1.0  0.25128409807770413  0.3672885230913181  0.7359403094079299  1.0000
  H   H14       1.0  0.7487146060178417  0.6327093019175721  0.264059689187917  1.0000
  H   H15       1.0  0.9112437696883903  0.25061545963207993  0.22970456052227917  1.0000
  H   H16       1.0  0.08875959981470771  0.7493823756710966  0.7702952973139575  1.0000
  H   H17       1.0  0.6845616402060771  0.3833321753236945  0.0960988457531258  1.0000
  H   H18       1.0  0.31543780766057955  0.6166676305709943  0.9039007695203981  1.0000
  H   H19       1.0  0.7395547989444395  0.47139790651071684  0.8722763188651187  1.0000
  H   H20       1.0  0.260445182972134  0.5286048792189958  0.12772365412632786  1.0000
  H   H21       1.0  0.015435084066780293  0.4183686142331097  0.7891334048612252  1.0000
  H   H22       1.0  0.9845636200287657  0.5816292107757804  0.21086659373462882  1.0000
  H   H23       1.0  0.3381428569795872  0.30387978188360165  0.560241943632569  1.0000
  H   H24       1.0  0.6618540468929055  0.6961210080200573  0.43975756795454407  1.0000
  H   H25       1.0  0.7285898708040291  0.39036098606994324  0.32221039175185245  1.0000
  H   H26       1.0  0.2714075655491897  0.6096427738756276  0.6777885624467218  1.0000
  H   H27       1.0  0.793761449342327  0.3043452328189885  0.7186731040047221  1.0000
  H   H28       1.0  0.20623683060324535  0.6956545607090091  0.2813256313522388  1.0000
  C   C1        1.0  0.5270754130351704  0.164892458598743  0.9982726732110835  1.0000
  C   C2        1.0  0.4729242445526863  0.8351063483467129  0.0017262010221870208  1.0000
  C   C3        1.0  0.6212818345359351  0.09014058807879619  0.10731532063233122  1.0000
  C   C4        1.0  0.3787178261903108  0.9098582384528983  0.8926853838138772  1.0000
  C   C5        1.0  0.6274266512891272  0.03469235877249589  0.3235390099326239  1.0000
  C   C6        1.0  0.3725733321966516  0.965310436750343  0.6764618781652987  1.0000
  C   C7        1.0  0.7836449686715241  0.9691249781499067  0.3228856582046333  1.0000
  C   C8        1.0  0.21635480509306151  0.0308788163221578  0.677115970933535  1.0000
  C   C9        1.0  0.8578377447709895  0.9606095620439845  0.20802037580597954  1.0000
  C   C10       1.0  0.14216033173017453  0.039391269605708594  0.7919827610171097  1.0000
  C   C11       1.0  0.7763302200392133  0.0220229781554977  0.09893313174440273  1.0000
  C   C12       1.0  0.2236696535466152  0.9779748690132023  0.901068661874483  1.0000
  C   C13       1.0  0.5898727925760312  0.1942554326377959  0.8789729260908603  1.0000
  C   C14       1.0  0.41012665372143436  0.8057443634637806  0.1210257740761946  1.0000
  C   C15       1.0  0.49193693023148916  0.2695543242578323  0.7818510680491215  1.0000
  C   C16       1.0  0.5080629386467521  0.7304434935315102  0.2181479802503574  1.0000
  C   C17       1.0  0.3315911380462495  0.31050264654251697  0.8090273779372413  1.0000
  C   C18       1.0  0.6684079870608741  0.689493190361027  0.1909720536845683  1.0000
  C   C19       1.0  0.27587369677312523  0.2769004064686554  0.9301400288405193  1.0000
  C   C20       1.0  0.7241278725069266  0.7231003937292896  0.06985934198698371  1.0000
  C   C21       1.0  0.10882342212370587  0.3122377452599494  0.9682832990279593  1.0000
  C   C22       1.0  0.8911771920948438  0.6877620632083107  0.031716281055658234  1.0000
  C   C23       1.0  0.9284535891307188  0.2912166306961339  0.1319302210755211  1.0000
  C   C24       1.0  0.07155020452235308  0.7087792360879277  0.8680708999996157  1.0000
  C   C25       1.0  0.803502433849829  0.3640612426948735  0.056936012499797094  1.0000
  C   C26       1.0  0.19649998373017036  0.6359356204648492  0.943065884805499  1.0000
  C   C27       1.0  0.835242163045244  0.4122535143326474  0.9324012339653508  1.0000
  C   C28       1.0  0.16475919494441632  0.5877482750214112  0.0675979627959435  1.0000
  C   C29       1.0  0.9892561136678067  0.3845839600654272  0.8867835263978493  1.0000
  C   C30       1.0  0.010744497412346728  0.6154158288165943  0.11321422347283772  1.0000
  C   C31       1.0  0.5563893920786215  0.3036527638596097  0.6555611484095325  1.0000
  C   C32       1.0  0.4436112190015322  0.6963470250224189  0.3444366014611476  1.0000
  C   C33       1.0  0.46105242637246135  0.3187924431749564  0.5499707028106045  1.0000
  C   C34       1.0  0.5389439450193053  0.6812053766867903  0.45002936616505457  1.0000
  C   C35       1.0  0.5234552506623872  0.35062839512764293  0.43039776091218584  1.0000
  C   C36       1.0  0.4765430308523831  0.6493714081934742  0.5696018895512439  1.0000
  C   C37       1.0  0.42816579397124604  0.3619459055134299  0.3149956078390376  1.0000
  C   C38       1.0  0.5718308970416572  0.6380558637532302  0.6850028145753981  1.0000
  C   C39       1.0  0.6820861055706757  0.3657756098381811  0.4158101780760859  1.0000
  C   C40       1.0  0.31791175336331884  0.6342261717951629  0.5841891242549127  1.0000
  C   C41       1.0  0.77962549120609  0.3467037694564254  0.5198917165731346  1.0000
  C   C42       1.0  0.22037448757209432  0.6532989966870631  0.4801064262053742  1.0000
  C   C43       1.0  0.9529083834629544  0.3485319685566992  0.5070782309186441  1.0000
  C   C44       1.0  0.04709202417279805  0.651468858447025  0.49292392041817124  1.0000
  C   C45       1.0  0.7158317710324696  0.31713957693814615  0.6390625042054979  1.0000
  C   C46       1.0  0.2841688400476841  0.6828602119438756  0.36093524566518914  1.0000
  N   N1        1.0  0.3727917215656262  0.20596351993572173  0.02236543007256129  1.0000
  N   N2        1.0  0.6272058146088357  0.7940342927064775  0.97763368860673  1.0000
  N   N3        1.0  0.5474199186994467  0.0932607373075172  0.2187440146442867  1.0000
  N   N4        1.0  0.4525793194460163  0.9067400675364039  0.7812563416694902  1.0000
  N   N5        1.0  0.07793103726998399  0.26789122453057246  0.08979196263424434  1.0000
  N   N6        1.0  0.9220695738101697  0.7321085643514564  0.9102057872364429  1.0000
  Cl  Cl1       1.0  0.1919669015871861  0.0088336728887484  0.3410381288404807  1.0000
  Cl  Cl2       1.0  0.8080337189081488  0.9911661747519744  0.6589651116690121  1.0000
  O   O1        1.0  0.299385280970796  0.3087143021791761  0.3293062583371622  1.0000
  O   O2        1.0  0.7006127861151938  0.691286470711823  0.6706913878471142  1.0000
  O   O3        1.0  0.47630859037543155  0.4130290714864698  0.21188139358177696  1.0000
  O   O4        1.0  0.5236896895701406  0.5869707220415278  0.7881173417751768  1.0000
  O   O5        1.0  0.042405922538044594  0.33425677836517304  0.5964992548967488  1.0000
  O   O6        1.0  0.9575931090246215  0.6657450450142123  0.4035036726702188  1.0000
  O   O7        1.0  0.0019220484090495737  0.3633330012268914  0.3884243054506983  1.0000
  O   O8        1.0  0.9980771913056118  0.6366678134101419  0.6115769659695474  1.0000
