data_image0
_chemical_formula_structural       Cd3H12C16N2O16
_chemical_formula_sum              "Cd3 H12 C16 N2 O16"
_cell_length_a       6.575804144506326
_cell_length_b       8.358963800111413
_cell_length_c       10.076440971601121
_cell_angle_alpha    109.14084939600365
_cell_angle_beta     98.66542305972902
_cell_angle_gamma    98.6759642130447

_space_group_name_H-M_alt    "P 1"
_space_group_IT_number       1

loop_
  _space_group_symop_operation_xyz
  'x, y, z'

loop_
  _atom_site_type_symbol
  _atom_site_label
  _atom_site_symmetry_multiplicity
  _atom_site_fract_x
  _atom_site_fract_y
  _atom_site_fract_z
  _atom_site_occupancy
  Cd  Cd1       1.0  0.9279638229030384  0.9368961822165288  0.6767440904607157  1.0000
  Cd  Cd2       1.0  0.0720364275705165  0.0631050050989614  0.32325554340399526  1.0000
  Cd  Cd3       1.0  0.5000013567480792  0.50000009703421  0.9999993586383553  1.0000
  H   H1        1.0  0.7111586694138268  0.3290052603403097  0.21531566088653165  1.0000
  H   H2        1.0  0.28883702921832105  0.6709959863413673  0.7846855711634433  1.0000
  H   H3        1.0  0.6227908953289186  0.2798547886335712  0.6175718019573182  1.0000
  H   H4        1.0  0.37721088725233903  0.7201463764998552  0.38242796151744335  1.0000
  H   H5        1.0  0.031114722475337024  0.2633592001119355  0.8749926831238285  1.0000
  H   H6        1.0  0.968887908669643  0.7366393430861182  0.12500841522169281  1.0000
  H   H7        1.0  0.024687986266371812  0.1681105039865827  0.9880377903091003  1.0000
  H   H8        1.0  0.9753157907326153  0.8318867243327758  0.01196205326139217  1.0000
  H   H9        1.0  0.4624613199049605  0.14742912207780282  0.8890989348027958  1.0000
  H   H10       1.0  0.5375385665557532  0.852570768951047  0.11090030818453311  1.0000
  H   H11       1.0  0.7096448770439989  0.2209567201313902  0.9362297940593863  1.0000
  H   H12       1.0  0.2903573678472853  0.7790405303700326  0.06376991990104137  1.0000
  C   C1        1.0  0.7908008897911356  0.5633615369146486  0.4044775607193858  1.0000
  C   C2        1.0  0.20919663823900686  0.43664099464163547  0.5955212112948516  1.0000
  C   C3        1.0  0.7192676808631617  0.3851392688506934  0.3305628814947212  1.0000
  C   C4        1.0  0.2807298916486758  0.6148632555255702  0.6694378775349606  1.0000
  C   C5        1.0  0.6583579593362073  0.28067862092377976  0.4072542641842816  1.0000
  C   C6        1.0  0.3416407590296444  0.7193225885737817  0.5927452400703643  1.0000
  C   C7        1.0  0.6693374240482157  0.3573152593190586  0.5543915855522743  1.0000
  C   C8        1.0  0.33066248465335235  0.6426846281197882  0.44560865094278773  1.0000
  C   C9        1.0  0.7485819932846666  0.5356367147275662  0.6207213740540993  1.0000
  C   C10       1.0  0.2514163833091914  0.4643631948933448  0.37927873283089764  1.0000
  C   C11       1.0  0.7727522443807758  0.6228089253532192  0.781301706572549  1.0000
  C   C12       1.0  0.2272480283336336  0.3771922583722684  0.21869892079987352  1.0000
  C   C13       1.0  0.8611435516531005  0.6819404879757515  0.32732104701993603  1.0000
  C   C14       1.0  0.1388563348076133  0.3180594030530983  0.6726781959674001  1.0000
  C   C15       1.0  0.5847704104301883  0.0880532131449314  0.3319152155771192  1.0000
  C   C16       1.0  0.4152313943919097  0.9119479483984919  0.6680855414053682  1.0000
  N   N1        1.0  0.8084081906510291  0.6357491063558884  0.5470256977496036  1.0000
  N   N2        1.0  0.19159089172766386  0.3642533994283212  0.4529741973824102  1.0000
  O   O1        1.0  0.9632803661220635  0.8340458122987827  0.4052208791278532  1.0000
  O   O2        1.0  0.03671990659233871  0.16595537142670486  0.5947797482445766  1.0000
  O   O3        1.0  0.8200431482112265  0.6185290018303178  0.19067329306891884  1.0000
  O   O4        1.0  0.1799567604903416  0.3814708856085289  0.8093269434261359  1.0000
  O   O5        1.0  0.7025248257874281  0.012671259951886801  0.2522734992685259  1.0000
  O   O6        1.0  0.2974761527118019  0.9873325199368921  0.7477269163509137  1.0000
  O   O7        1.0  0.415542378021712  0.0122955229929218  0.34888627060175287  1.0000
  O   O8        1.0  0.5844593823186911  0.9877056457305143  0.65111249936529  1.0000
  O   O9        1.0  0.7108254632338316  0.52469711922393  0.8459942629811297  1.0000
  O   O10       1.0  0.2891759553345778  0.47530274962285557  0.15400510961626426  1.0000
  O   O11       1.0  0.855507619676892  0.7840946207668509  0.837973073336677  1.0000
  O   O12       1.0  0.14449569501206133  0.21590652218451115  0.16202681974814945  1.0000
  O   O13       1.0  0.9432614345172253  0.1687478507333182  0.8958188532204192  1.0000
  O   O14       1.0  0.05674117438690025  0.8312506960547453  0.10418125161738355  1.0000
  O   O15       1.0  0.5742895379474575  0.23758323219463057  0.9677054275242725  1.0000
  O   O16       1.0  0.4257115388489652  0.7624153367755041  0.03229454770347223  1.0000
