data_image0
_chemical_formula_structural       Cd2H44C36S2N12O18
_chemical_formula_sum              "Cd2 H44 C36 S2 N12 O18"
_cell_length_a       6.48731968522039
_cell_length_b       9.760266572664959
_cell_length_c       19.4313391424331
_cell_angle_alpha    90.00051491062099
_cell_angle_beta     89.99936560746927
_cell_angle_gamma    98.74370441056539

_space_group_name_H-M_alt    "P 1"
_space_group_IT_number       1

loop_
  _space_group_symop_operation_xyz
  'x, y, z'

loop_
  _atom_site_type_symbol
  _atom_site_label
  _atom_site_symmetry_multiplicity
  _atom_site_fract_x
  _atom_site_fract_y
  _atom_site_fract_z
  _atom_site_occupancy
  Cd  Cd1       1.0  0.4458006904245265  0.8311946568575694  0.26263760953530374  1.0000
  Cd  Cd2       1.0  0.554203999802084  0.1687954430551031  0.762634395127371  1.0000
  H   H1        1.0  0.6889952407307334  0.9729060094143379  0.6469151652344465  1.0000
  H   H2        1.0  0.31100555193503965  0.0270988516507629  0.1469234849717722  1.0000
  H   H3        1.0  0.5764110477558618  0.8731619738291345  0.5304779847701225  1.0000
  H   H4        1.0  0.42357052249487037  0.12683577140401786  0.030485310497567798  1.0000
  H   H5        1.0  0.26896679087743547  0.9480252224539572  0.47346257693644833  1.0000
  H   H6        1.0  0.7310121643868825  0.05197094237706071  0.97346178741752  1.0000
  H   H7        1.0  0.2345733760919941  0.22866857773453836  0.6438054286936676  1.0000
  H   H8        1.0  0.7654411617819933  0.7713425697428278  0.1438071966703021  1.0000
  H   H9        1.0  0.7550605565229062  0.46389712989415  0.5828081756095642  1.0000
  H   H10       1.0  0.24494384716084033  0.5361223097552285  0.08281131372032748  1.0000
  H   H11       1.0  0.4723503428163198  0.6098761090966889  0.5786230036506479  1.0000
  H   H12       1.0  0.5276645330225733  0.390148536074868  0.0786285600844963  1.0000
  H   H13       1.0  0.20387340388912636  0.5787712687003366  0.48739811442061404  1.0000
  H   H14       1.0  0.7961434337609958  0.4212461466658937  0.9874023523274004  1.0000
  H   H15       1.0  0.49790367794193463  0.24954587292073432  0.4017429301337855  1.0000
  H   H16       1.0  0.50208051081831  0.7504492520674689  0.901736868724015  1.0000
  H   H17       1.0  0.6541623184220812  0.2406258840035065  0.23373618828715334  1.0000
  H   H18       1.0  0.3458240200936089  0.7593677467238039  0.7337348593245778  1.0000
  H   H19       1.0  0.3283323653425968  0.30418747959009823  0.18445211391581745  1.0000
  H   H20       1.0  0.6716686670217342  0.6958096767952284  0.6844462112307423  1.0000
  H   H21       1.0  0.2532216065766235  0.5487605775058881  0.20038325463550416  1.0000
  H   H22       1.0  0.7467849448940953  0.45122859517319114  0.7003821484786527  1.0000
  H   H23       1.0  0.7935578725001877  0.6560554710595667  0.31537200343118593  1.0000
  H   H24       1.0  0.20644057421203144  0.3439426130527181  0.8153708586745123  1.0000
  H   H25       1.0  0.9406641735615083  0.2978981663685332  0.3015077532152971  1.0000
  H   H26       1.0  0.0593327112942532  0.7020976239788156  0.8015031035918126  1.0000
  H   H27       1.0  0.18177354007470833  0.2902706836523024  0.36102741872460337  1.0000
  H   H28       1.0  0.8182222130319231  0.7097291027508208  0.86102309784615  1.0000
  H   H29       1.0  0.7764516255988311  0.1904652245965934  0.44844879245157176  1.0000
  H   H30       1.0  0.22353490362211662  0.8095337340411322  0.9484460812407177  1.0000
  H   H31       1.0  0.013400858462397  0.0777835450474313  0.4756369522474058  1.0000
  H   H32       1.0  0.9865873323755779  0.9222054960675691  0.9756345133917744  1.0000
  H   H33       1.0  0.9971111724690901  0.8302768699425301  0.2502442405062837  1.0000
  H   H34       1.0  0.0028925596272628995  0.16971406768280425  0.7502420303266533  1.0000
  H   H35       1.0  0.073173742276893  0.7616082240851229  0.1804605804644055  1.0000
  H   H36       1.0  0.9268344513080964  0.2383930758040407  0.6804619691094018  1.0000
  H   H37       1.0  0.26981152564878397  0.0797609878640841  0.29352705968955917  1.0000
  H   H38       1.0  0.7301990671744394  0.9202327384925513  0.7935198947681741  1.0000
  H   H39       1.0  0.510353279059231  0.0794111256332783  0.31852334937562427  1.0000
  H   H40       1.0  0.4896598714859622  0.9205840379767097  0.8185170714547707  1.0000
  H   H41       1.0  0.254704432872046  0.7132537272395965  0.38574552561866676  1.0000
  H   H42       1.0  0.7452952148933393  0.28674646999058945  0.8857441980421541  1.0000
  H   H43       1.0  0.493515213319114  0.7392051528304011  0.4021032554556996  1.0000
  H   H44       1.0  0.5064830485912922  0.2607983833571836  0.9021011460536383  1.0000
  C   C1        1.0  0.5584449957278252  0.004637706744212299  0.6190165352762449  1.0000
  C   C2        1.0  0.44154937316105264  0.9953614993571808  0.11902307853343787  1.0000
  C   C3        1.0  0.49303927345437165  0.948574281846639  0.5553381491200042  1.0000
  C   C4        1.0  0.5069572152377476  0.0514250122928388  0.05534276944036519  1.0000
  C   C5        1.0  0.321765842337193  0.9906269796675032  0.5234086959645552  1.0000
  C   C6        1.0  0.6782203571926433  0.009369666339409801  0.023407864577087892  1.0000
  C   C7        1.0  0.21916626688590676  0.0910812035121467  0.5554149445055498  1.0000
  C   C8        1.0  0.7808240412926323  0.9089180348775017  0.05541418824621759  1.0000
  C   C9        1.0  0.3001693143538731  0.1461913733476905  0.6184110925277152  1.0000
  C   C10       1.0  0.6998362834783408  0.8538172375816803  0.11841192988715932  1.0000
  C   C11       1.0  0.9304693956766742  0.23060342301698003  0.540919838154835  1.0000
  C   C12       1.0  0.06953234067889717  0.7694039768659664  0.040921071194780695  1.0000
  C   C13       1.0  0.6427576003510255  0.3453171841748103  0.49307163379688734  1.0000
  C   C14       1.0  0.3572399181959299  0.6546897941909436  0.9930708201720433  1.0000
  C   C15       1.0  0.6383837987029607  0.4498864115236216  0.5424632238172222  1.0000
  C   C16       1.0  0.36162357171411236  0.5501334779293644  0.042465995602370285  1.0000
  C   C17       1.0  0.4806434220641977  0.5320399734412008  0.5388844297887303  1.0000
  C   C18       1.0  0.5193638394192065  0.46797882619976156  0.0388877944784767  1.0000
  C   C19       1.0  0.328911214416955  0.5163451504523381  0.48743839955307067  1.0000
  C   C20       1.0  0.671094843146136  0.4836649246359956  0.9874408059814357  1.0000
  C   C21       1.0  0.33772379613923686  0.4144496271067056  0.4369269669176958  1.0000
  C   C22       1.0  0.6622784901406433  0.5855565434497976  0.9369278066056949  1.0000
  C   C23       1.0  0.4932262174073827  0.32983399089385307  0.44034159172567644  1.0000
  C   C24       1.0  0.5067689248461916  0.6701680275929576  0.9403387535765971  1.0000
  C   C25       1.0  0.05237774835829609  0.46767621711104107  0.359881970020801  1.0000
  C   C26       1.0  0.9476230714418037  0.5323329092716166  0.8598784316254537  1.0000
  C   C27       1.0  0.7493692616604906  0.44243606924006684  0.2799973042930759  1.0000
  C   C28       1.0  0.2506181351854125  0.5575551693846563  0.7799918135720673  1.0000
  C   C29       1.0  0.6177329422529142  0.3450694695305216  0.24044575556894188  1.0000
  C   C30       1.0  0.38227413878500727  0.6549285919733097  0.7404469094386101  1.0000
  C   C31       1.0  0.43638989735364214  0.38071479444968054  0.21246096515252327  1.0000
  C   C32       1.0  0.5636113772123466  0.6192879616784241  0.712455629876615  1.0000
  C   C33       1.0  0.39288324991165524  0.5148203462062425  0.2212605351856425  1.0000
  C   C34       1.0  0.6071195552091951  0.485176350325048  0.7212528912909375  1.0000
  C   C35       1.0  0.6957219486146968  0.5760903412792616  0.2864053944201785  1.0000
  C   C36       1.0  0.3042782609664982  0.42390421605499995  0.7864027061134633  1.0000
  S   S1        1.0  0.8921963848284095  0.024395809342721  0.3440956442595748  1.0000
  S   S2        1.0  0.10779947584161678  0.9755944104384257  0.8440863882291723  1.0000
  N   N1        1.0  0.523233762420375  0.6096922219506098  0.2566291471246132  1.0000
  N   N2        1.0  0.4767807735942569  0.3903071881609179  0.7566282455631351  1.0000
  N   N3        1.0  0.9222380351325513  0.39962731866690154  0.3103195552922386  1.0000
  N   N4        1.0  0.07775772252949761  0.6003644569030726  0.8103179816608729  1.0000
  N   N5        1.0  0.19164402580982912  0.3860821468577313  0.3836256472995387  1.0000
  N   N6        1.0  0.80834842744099  0.613912779374445  0.8836229893537746  1.0000
  N   N7        1.0  0.789656655330795  0.2539020645483845  0.491290014054222  1.0000
  N   N8        1.0  0.21033717956517967  0.7461017493176672  0.9912891240000973  1.0000
  N   N9        1.0  0.0479204036806493  0.1300543607142473  0.5217300726618959  1.0000
  N   N10       1.0  0.9520660619630591  0.8699432968007343  0.0217290249952597  1.0000
  N   N11       1.0  0.4630749565832489  0.10178570972126981  0.6491388887294319  1.0000
  N   N12       1.0  0.5369341402938445  0.8982223650413418  0.1491436137101658  1.0000
  O   O1        1.0  0.9509257926416838  0.2933808560966114  0.5971466380692618  1.0000
  O   O2        1.0  0.04908794786897627  0.7066264726804974  0.09714972191084567  1.0000
  O   O3        1.0  0.09901123676278438  0.7746962000952778  0.23059143568212193  1.0000
  O   O4        1.0  0.9009978993771314  0.22530276536816268  0.7305938896904465  1.0000
  O   O5        1.0  0.4088448981713456  0.05554545773647131  0.2801601974795815  1.0000
  O   O6        1.0  0.5911639019703543  0.9444449457669892  0.7801515949656376  1.0000
  O   O7        1.0  0.042771134506523395  0.5879808154442543  0.3797218590765751  1.0000
  O   O8        1.0  0.9572397543516901  0.4120131867306824  0.8797244331478852  1.0000
  O   O9        1.0  0.8120895014264846  0.9130218438402267  0.2934908862951318  1.0000
  O   O10       1.0  0.1879133695706088  0.0869718109281408  0.7934860781471328  1.0000
  O   O11       1.0  0.3828044322960338  0.7845019138644888  0.38272146946836466  1.0000
  O   O12       1.0  0.6171988268602603  0.2155003397833682  0.8827213214936617  1.0000
  O   O13       1.0  0.7165567987990257  0.0946171542026377  0.3690290445508565  1.0000
  O   O14       1.0  0.28343325085859317  0.9053713212784162  0.8690188254414435  1.0000
  O   O15       1.0  0.04521025631201071  0.13195407833565304  0.30698729094326177  1.0000
  O   O16       1.0  0.954789769881181  0.8680428585198143  0.8069764908466652  1.0000
  O   O17       1.0  0.9944149513760864  0.9669656962388302  0.4026231404689185  1.0000
  O   O18       1.0  0.005569676054420799  0.03302427349888859  0.9026151578679416  1.0000
