data_image0
_chemical_formula_structural       Cu4H48C28S8N16
_chemical_formula_sum              "Cu4 H48 C28 S8 N16"
_cell_length_a       8.326206350045277
_cell_length_b       9.62945114907829
_cell_length_c       13.486147346058925
_cell_angle_alpha    90.0003195418959
_cell_angle_beta     90.00011485786399
_cell_angle_gamma    89.9996535515472

_space_group_name_H-M_alt    "P 1"
_space_group_IT_number       1

loop_
  _space_group_symop_operation_xyz
  'x, y, z'

loop_
  _atom_site_type_symbol
  _atom_site_label
  _atom_site_symmetry_multiplicity
  _atom_site_fract_x
  _atom_site_fract_y
  _atom_site_fract_z
  _atom_site_occupancy
  Cu  Cu1       1.0  0.17361765630911208  0.9082005493174066  0.9841272989970233  1.0000
  Cu  Cu2       1.0  0.32638193728733  0.091798576103109  0.48413125309020427  1.0000
  Cu  Cu3       1.0  0.8263757246779446  0.40819960489950086  0.5158699671169557  1.0000
  Cu  Cu4       1.0  0.6736265272306525  0.5918014497670754  0.01587643091387749  1.0000
  H   H1        1.0  0.22980495657887454  0.2406892925661879  0.8369171869485823  1.0000
  H   H2        1.0  0.27020381042461133  0.7593034809264408  0.33691999347364987  1.0000
  H   H3        1.0  0.7701991698491711  0.7406979984564401  0.6630764517428671  1.0000
  H   H4        1.0  0.7298047178956325  0.2593052541449197  0.16308093692948936  1.0000
  H   H5        1.0  0.23925982343055813  0.1824943315776295  0.9611423265343289  1.0000
  H   H6        1.0  0.2607517125704817  0.8174973434071832  0.46114683309527027  1.0000
  H   H7        1.0  0.760742296058865  0.6824969174885352  0.5388510823524796  1.0000
  H   H8        1.0  0.7392636268109029  0.317504318174116  0.03885655161443679  1.0000
  H   H9        1.0  0.8645806568528157  0.8866616097773347  0.9771309134465224  1.0000
  H   H10       1.0  0.6354181534225632  0.11333892407466098  0.47713617791225704  1.0000
  H   H11       1.0  0.1354128703847195  0.38665405357173915  0.5228640431000497  1.0000
  H   H12       1.0  0.3645865617641633  0.6133424772044195  0.02286714213614259  1.0000
  H   H13       1.0  0.15242165823123335  0.8843114947806683  0.745939865142162  1.0000
  H   H14       1.0  0.34757843286651274  0.11567744671566524  0.24594320064489483  1.0000
  H   H15       1.0  0.8475790910674872  0.3843226971822205  0.7540595311762246  1.0000
  H   H16       1.0  0.6524130551737954  0.6156750411987773  0.2540660606297109  1.0000
  H   H17       1.0  0.0721598076938434  0.05203885776742111  0.7253689130921612  1.0000
  H   H18       1.0  0.4278450267462759  0.9479519986589364  0.22537416025143386  1.0000
  H   H19       1.0  0.9278455995037971  0.5520507094506186  0.774625463696111  1.0000
  H   H20       1.0  0.572151411583235  0.44794822936721335  0.2746275150385173  1.0000
  H   H21       1.0  0.32032355999515966  0.0078626920281479  0.8360996535693699  1.0000
  H   H22       1.0  0.1796816015261982  0.9921259211119848  0.33610251578721767  1.0000
  H   H23       1.0  0.6796749409670964  0.507873968415204  0.6638989977868021  1.0000
  H   H24       1.0  0.8203217430478277  0.4921303291837803  0.1639082319699909  1.0000
  H   H25       1.0  0.9308137644980973  0.1088668062778027  0.0450225963415818  1.0000
  H   H26       1.0  0.5691921765990243  0.891133439499143  0.5450243659527201  1.0000
  H   H27       1.0  0.06918257388429082  0.608859775172121  0.4549725495037291  1.0000
  H   H28       1.0  0.43082053667261266  0.3911391205911414  0.9549735742970495  1.0000
  H   H29       1.0  0.7739297188019734  0.11365717253654138  0.9556435754088778  1.0000
  H   H30       1.0  0.7260738320926022  0.8863483844545071  0.4556468240190552  1.0000
  H   H31       1.0  0.22606926499434368  0.6136471014942018  0.5443488201357523  1.0000
  H   H32       1.0  0.27393383370420565  0.38634648304389435  0.0443494175201025  1.0000
  H   H33       1.0  0.9409800931240895  0.20347130676054084  0.8276414081235327  1.0000
  H   H34       1.0  0.5590302858554494  0.7965290880796589  0.32764333516722377  1.0000
  H   H35       1.0  0.0590254870436837  0.7034704121393603  0.6723528250909606  1.0000
  H   H36       1.0  0.4409791907798706  0.29652314212886915  0.17235255170071173  1.0000
  H   H37       1.0  0.9826555496970216  0.30419697725251643  0.9332010631238103  1.0000
  H   H38       1.0  0.517359945197491  0.6958021720471025  0.4332025362024225  1.0000
  H   H39       1.0  0.017349346629210102  0.804194436952379  0.566790601810382  1.0000
  H   H40       1.0  0.4826586224466567  0.1958045167335953  0.06678998694679449  1.0000
  H   H41       1.0  0.8289047701177026  0.9782861593549441  0.7978189258953206  1.0000
  H   H42       1.0  0.6710983146235209  0.021711923665428408  0.2978253597100532  1.0000
  H   H43       1.0  0.1710965422194803  0.4782881313441224  0.7021734264616268  1.0000
  H   H44       1.0  0.3288998164817301  0.5217118887266067  0.20217685702276356  1.0000
  H   H45       1.0  0.9157840659303816  0.8131665310112551  0.8203884845862104  1.0000
  H   H46       1.0  0.584214281365192  0.1868317297834636  0.32039322865836783  1.0000
  H   H47       1.0  0.08421356333554542  0.3131667157771502  0.6796084062773246  1.0000
  H   H48       1.0  0.4157827287182343  0.6868320880834987  0.17961260608031887  1.0000
  C   C1        1.0  0.17516815341225817  0.1684248884775528  0.8905928261193521  1.0000
  C   C2        1.0  0.32483596802800463  0.8315683078001613  0.3905952502129962  1.0000
  C   C3        1.0  0.8248328605619406  0.6684297621697511  0.6094005272159959  1.0000
  C   C4        1.0  0.675172069669216  0.3315720291783536  0.10940670704336947  1.0000
  C   C5        1.0  0.09223794279934341  0.9719388073468592  0.7819732683881423  1.0000
  C   C6        1.0  0.40775504854421735  0.0280566488562783  0.281973373094388  1.0000
  C   C7        1.0  0.9077550054390998  0.4719442097126034  0.7180257324210116  1.0000
  C   C8        1.0  0.5922382353868728  0.5280553218094326  0.21803257619373534  1.0000
  C   C9        1.0  0.9039878237747061  0.09611692177750089  0.9657058054061093  1.0000
  C   C10       1.0  0.5960169578861142  0.903883522060653  0.4657089477688244  1.0000
  C   C11       1.0  0.09600767600372961  0.5961137021975916  0.5342887453943205  1.0000
  C   C12       1.0  0.40399178988543827  0.40388395703951835  0.03429032902214858  1.0000
  C   C13       1.0  0.9965037011801597  0.1996373776285196  0.9016114143479539  1.0000
  C   C14       1.0  0.5035020921993478  0.800358407441749  0.40161328159557275  1.0000
  C   C15       1.0  0.0034958998797308  0.6996361991561884  0.5983813207198947  1.0000
  C   C16       1.0  0.4965061573879269  0.3003598879397913  0.09838410341004075  1.0000
  C   C17       1.0  0.9333307082930702  0.9249755962391719  0.8305725003144528  1.0000
  C   C18       1.0  0.5666676690888651  0.07502170629269503  0.3305782622165552  1.0000
  C   C19       1.0  0.0666637598160165  0.42497891065251264  0.6694233490441375  1.0000
  C   C20       1.0  0.43333010009025236  0.5750218899494683  0.16942638952266256  1.0000
  C   C21       1.0  0.023532272795797796  0.6040090103921187  0.945831746399193  1.0000
  C   C22       1.0  0.47646360460180404  0.395987736422633  0.4458304306377838  1.0000
  C   C23       1.0  0.976473982625393  0.10401586786669273  0.5541717336107792  1.0000
  C   C24       1.0  0.5235247793049636  0.8959917193481883  0.05417103947363699  1.0000
  C   C25       1.0  0.06019315355435141  0.7615236766831686  0.17411205467240615  1.0000
  C   C26       1.0  0.439781503692828  0.23849585352725466  0.6741080397923226  1.0000
  C   C27       1.0  0.9397805299909051  0.261501717280332  0.32589259193518655  1.0000
  C   C28       1.0  0.5602250397314564  0.7384955483733648  0.8258989372508763  1.0000
  S   S1        1.0  0.1873593319207956  0.6546052159376927  0.8913501258657417  1.0000
  S   S2        1.0  0.3126399876508046  0.34538590934566576  0.3913498722466428  1.0000
  S   S3        1.0  0.8126441779314746  0.15461338404922026  0.6086505879249485  1.0000
  S   S4        1.0  0.6873535439065536  0.8453904783518312  0.10865139806079327  1.0000
  S   S5        1.0  0.9920850139811178  0.6600110495580155  0.26003917282395145  1.0000
  S   S6        1.0  0.5078591085921288  0.3400500833012785  0.7600260780350748  1.0000
  S   S7        1.0  0.0078641373194941  0.15995292702316993  0.23997693688422564  1.0000
  S   S8        1.0  0.4921431423110931  0.8400401214025595  0.7399783339812485  1.0000
  N   N1        1.0  0.9026927492949781  0.565936088725138  0.9837274457890711  1.0000
  N   N2        1.0  0.597309683534398  0.43406345855171924  0.4837220612326546  1.0000
  N   N3        1.0  0.09731736770356042  0.06594114741045588  0.5162803328932097  1.0000
  N   N4        1.0  0.40268084392793213  0.9340667547889582  0.016280300727956398  1.0000
  N   N5        1.0  0.1127269349020708  0.8372056956232968  0.11254610217434899  1.0000
  N   N6        1.0  0.38726915905105136  0.16279569545906009  0.6125483910577642  1.0000
  N   N7        1.0  0.887261848090027  0.33720735032974863  0.3874529113185402  1.0000
  N   N8        1.0  0.6127403003579133  0.6627987080560231  0.8874590285825544  1.0000
  N   N9        1.0  0.9415626204832321  0.9507105914152587  0.9384788372976229  1.0000
  N   N10       1.0  0.5584372766547928  0.0492885995158758  0.4384852279797256  1.0000
  N   N11       1.0  0.0584316729157734  0.45070998474947993  0.5615141476650007  1.0000
  N   N12       1.0  0.44156667236608643  0.5492878889358508  0.06151709764616699  1.0000
  N   N13       1.0  0.2035356605223626  0.0230394537193916  0.8587687920267725  1.0000
  N   N14       1.0  0.29646716588572997  0.9769545303810078  0.35877101041619136  1.0000
  N   N15       1.0  0.7964627374216988  0.52304473073702  0.6412291777435113  1.0000
  N   N16       1.0  0.7035374827178484  0.4769562728366737  0.14123448691891835  1.0000
