data_image0
_chemical_formula_structural       K2H34C44N4O16
_chemical_formula_sum              "K2 H34 C44 N4 O16"
_cell_length_a       4.619702766315534
_cell_length_b       12.585162505050903
_cell_length_c       16.893385160526666
_cell_angle_alpha    93.41807502289741
_cell_angle_beta     92.57297558859712
_cell_angle_gamma    91.61492196532353

_space_group_name_H-M_alt    "P 1"
_space_group_IT_number       1

loop_
  _space_group_symop_operation_xyz
  'x, y, z'

loop_
  _atom_site_type_symbol
  _atom_site_label
  _atom_site_symmetry_multiplicity
  _atom_site_fract_x
  _atom_site_fract_y
  _atom_site_fract_z
  _atom_site_occupancy
  K   K1        1.0  0.23634714771087326  0.9463921699141623  0.41234971698290207  1.0000
  K   K2        1.0  0.7636502739085317  0.05360869081523842  0.5876504189151601  1.0000
  H   H1        1.0  0.40467901985173443  0.8378311780889122  0.5948225910502458  1.0000
  H   H2        1.0  0.5953185191015253  0.1621712753962541  0.4051776168114713  1.0000
  H   H3        1.0  0.5378429241005876  0.9517422377477659  0.075004831089565  1.0000
  H   H4        1.0  0.4621587142563827  0.048257036410731806  0.924995279659093  1.0000
  H   H5        1.0  0.39171317953670126  0.8975737313052008  0.207642350681617  1.0000
  H   H6        1.0  0.6082862209040555  0.10242474321673  0.7923571085824931  1.0000
  H   H7        1.0  0.22224507594733472  0.4663001510372739  0.17043647594335448  1.0000
  H   H8        1.0  0.7777543367069983  0.5336983236509099  0.8295635754163512  1.0000
  H   H9        1.0  0.38339248855682945  0.523884862148144  0.04196313838931329  1.0000
  H   H10       1.0  0.6166157217877739  0.4761152178317902  0.9580376706581715  1.0000
  H   H11       1.0  0.4629747788158768  0.5024861186271466  0.36642956570565116  1.0000
  H   H12       1.0  0.5370268595410935  0.4975131555313511  0.6335705450430139  1.0000
  H   H13       1.0  0.3572696206548541  0.6337171375661724  0.3952552171524387  1.0000
  H   H14       1.0  0.6427298384528228  0.3662821333336409  0.6047442780934915  1.0000
  H   H15       1.0  0.6564181398487677  0.5651289528794338  0.5020621097253225  1.0000
  H   H16       1.0  0.34358144880634717  0.43487191094239114  0.4979380495798649  1.0000
  H   H17       1.0  0.9321549182020445  0.5307219511757566  0.4368051703170649  1.0000
  H   H18       1.0  0.06784683748877998  0.4692789157385064  0.5631950123952549  1.0000
  H   H19       1.0  0.9998737914426246  0.7300419024276299  0.41498409739129016  1.0000
  H   H20       1.0  0.00012361796319738664  0.26995895813551835  0.5850154464111695  1.0000
  H   H21       1.0  0.09818599277969753  0.6915768214142948  0.5106383722100387  1.0000
  H   H22       1.0  0.9018114752930516  0.30842483552673633  0.4893612075742552  1.0000
  H   H23       1.0  0.4294131970512183  0.807857682907134  0.8580475289198259  1.0000
  H   H24       1.0  0.5705885464260235  0.19214318384089077  0.14195206169689809  1.0000
  H   H25       1.0  0.16418390074957054  0.9084171656802911  0.8585735928565511  1.0000
  H   H26       1.0  0.8358112487138528  0.09158209936715173  0.1414270397663202  1.0000
  H   H27       1.0  0.02494411674157247  0.6763135463813368  0.8017544517267579  1.0000
  H   H28       1.0  0.9750575680687419  0.3236865239887976  0.19824510290813885  1.0000
  H   H29       1.0  0.8031850522447074  0.78783986659073  0.7897310005144575  1.0000
  H   H30       1.0  0.19681447774348018  0.21216020085321932  0.21026912280890286  1.0000
  H   H31       1.0  0.38649520894911404  0.7509170588042057  0.7121801296402379  1.0000
  H   H32       1.0  0.6135045557067828  0.24908619415127492  0.2878201376104385  1.0000
  H   H33       1.0  0.04479968241393101  0.7224787839340082  0.6663023073249477  1.0000
  H   H34       1.0  0.9552020146099665  0.2775212866023722  0.33369783940554487  1.0000
  C   C1        1.0  0.899838616778588  0.8518563652431937  0.9767366827107862  1.0000
  C   C2        1.0  0.10016722610236431  0.14814132217816225  0.023262810792878993  1.0000
  C   C3        1.0  0.8185347117880754  0.8203544437635915  0.05605391247767239  1.0000
  C   C4        1.0  0.1814691522715322  0.17964562986522742  0.9439462576599524  1.0000
  C   C5        1.0  0.6271160151680136  0.8808413532404984  0.09959861278984758  1.0000
  C   C6        1.0  0.37288988637986625  0.11915713055874026  0.9004009166956521  1.0000
  C   C7        1.0  0.5425627666717007  0.8496725593007144  0.17401049206274877  1.0000
  C   C8        1.0  0.4574410265073966  0.15032671778396894  0.8259890499974532  1.0000
  C   C9        1.0  0.645526563657306  0.7568414346394834  0.20439645686799676  1.0000
  C   C10       1.0  0.3544750160327368  0.2431570431411317  0.7956036178988339  1.0000
  C   C11       1.0  0.5443231554859621  0.7212331811605068  0.28061324363073226  1.0000
  C   C12       1.0  0.45567841199049747  0.27876529645386233  0.7193862390405029  1.0000
  C   C13       1.0  0.846421774154976  0.5619329428031109  0.26605652194330526  1.0000
  C   C14       1.0  0.15357763849935682  0.43806553188506575  0.7339435294164004  1.0000
  C   C15       1.0  0.9461787151376201  0.5989184093043038  0.19026596685741737  1.0000
  C   C16       1.0  0.053820697516712805  0.401080065383873  0.8097340845022882  1.0000
  C   C17       1.0  0.13988201441938491  0.5390514262725505  0.14716874236064106  1.0000
  C   C18       1.0  0.8601196117240023  0.4609478477197018  0.8528307762924283  1.0000
  C   C19       1.0  0.23061413093103766  0.571999519555476  0.07417490464230528  1.0000
  C   C20       1.0  0.7693918659245187  0.4279997611203825  0.9258264371118157  1.0000
  C   C21       1.0  0.12728777374342573  0.6643626119730187  0.04340554431650649  1.0000
  C   C22       1.0  0.8727203779342575  0.33563667162903255  0.9565952287491439  1.0000
  C   C23       1.0  0.22649162666533584  0.6986720752538748  0.9665628386065774  1.0000
  C   C24       1.0  0.7735146170715054  0.3013303910997678  0.03343923917045539  1.0000
  C   C25       1.0  0.9304092246842048  0.7267341456482371  0.08641647152678898  1.0000
  C   C26       1.0  0.0695924601261098  0.27326592472189765  0.9135830831081079  1.0000
  C   C27       1.0  0.8408161230629146  0.6941392308787754  0.16097908222791796  1.0000
  C   C28       1.0  0.159181085914966  0.30585924021822564  0.8390191694378615  1.0000
  C   C29       1.0  0.541060942153095  0.5848858087094798  0.3804912860820834  1.0000
  C   C30       1.0  0.4589385756215166  0.41511425856822376  0.619508245145681  1.0000
  C   C31       1.0  0.7672018812333121  0.5894360322122766  0.44958535456753157  1.0000
  C   C32       1.0  0.23279770742180264  0.4105648316095555  0.5504148047376631  1.0000
  C   C33       1.0  0.9113660365488984  0.6989561988088583  0.46855701382281  1.0000
  C   C34       1.0  0.0886313728569235  0.30104466175428973  0.5314425299796495  1.0000
  C   C35       1.0  0.7213366786201406  0.7828591488312143  0.506122456093898  1.0000
  C   C36       1.0  0.27866068433234403  0.21714091552030376  0.4938776438223371  1.0000
  C   C37       1.0  0.19766038212325296  0.8229052453432149  0.8603842310125029  1.0000
  C   C38       1.0  0.8023391356513515  0.17709482193448176  0.1396153002152616  1.0000
  C   C39       1.0  0.02798572842789331  0.7616365458406735  0.7917945011952269  1.0000
  C   C40       1.0  0.9720138015602942  0.23836352160327587  0.20820562212813334  1.0000
  C   C41       1.0  0.16005303773874152  0.7759219351358982  0.7120069534177629  1.0000
  C   C42       1.0  0.8399465509163734  0.22407892868592685  0.2879932058874245  1.0000
  C   C43       1.0  0.14518941971508784  0.8874435979212978  0.6834523495473164  1.0000
  C   C44       1.0  0.8548037264998316  0.11255805300110923  0.3165477755183161  1.0000
  N   N1        1.0  0.10719589983452243  0.7907486630719592  0.9382103387060423  1.0000
  N   N2        1.0  0.8928078346776477  0.20924981763484857  0.06178916737232499  1.0000
  N   N3        1.0  0.6494158982464172  0.6253685550946174  0.3066466292783118  1.0000
  N   N4        1.0  0.3505835730748501  0.3746307159714492  0.6933534580632211  1.0000
  O   O1        1.0  0.7921504484212676  0.9277966828728313  0.9445953637989674  1.0000
  O   O2        1.0  0.2078489984728265  0.07220258786073691  0.055403539351374285  1.0000
  O   O3        1.0  0.36881101284561874  0.7724043536446035  0.31957617179003245  1.0000
  O   O4        1.0  0.6311862792263554  0.2275949141627791  0.6804233000487726  1.0000
  O   O5        1.0  0.9273415442598039  0.47844510461990114  0.29334523328233075  1.0000
  O   O6        1.0  0.07265792706145652  0.5215541664461656  0.7066548540592023  1.0000
  O   O7        1.0  0.4071460284968325  0.6490834797157349  0.9283972517003034  1.0000
  O   O8        1.0  0.5928642657893877  0.35091580664625627  0.07160236058128787  1.0000
  O   O9        1.0  0.742229895335214  0.8771579966527768  0.48419072221458476  1.0000
  O   O10       1.0  0.2577632264525321  0.12284365393713163  0.515808218659849  1.0000
  O   O11       1.0  0.5551565025181732  0.7532053652227975  0.5602751361405962  1.0000
  O   O12       1.0  0.44484314480386905  0.24679629497691744  0.4397250591464256  1.0000
  O   O13       1.0  0.2909663270246128  0.9062865126810636  0.6193779827881938  1.0000
  O   O14       1.0  0.7090310823812088  0.0937143478820843  0.38062156101426575  1.0000
  O   O15       1.0  0.9998227212177114  0.9576797491393878  0.7153570920507518  1.0000
  O   O16       1.0  0.00016811620047719659  0.042320305602324006  0.28464175345289516  1.0000
