data_image0
_chemical_formula_structural       Zn4H56C80N16O16
_chemical_formula_sum              "Zn4 H56 C80 N16 O16"
_cell_length_a       9.743692641091492
_cell_length_b       13.508654389165814
_cell_length_c       21.647894347073958
_cell_angle_alpha    90.00028838631957
_cell_angle_beta     90.00007269834163
_cell_angle_gamma    90.00049079919452

_space_group_name_H-M_alt    "P 1"
_space_group_IT_number       1

loop_
  _space_group_symop_operation_xyz
  'x, y, z'

loop_
  _atom_site_type_symbol
  _atom_site_label
  _atom_site_symmetry_multiplicity
  _atom_site_fract_x
  _atom_site_fract_y
  _atom_site_fract_z
  _atom_site_occupancy
  Zn  Zn1       1.0  0.17812416071834752  0.2910407291720816  0.7500027791324727  1.0000
  Zn  Zn2       1.0  0.8218746935244498  0.7089601804757776  0.2500002508630814  1.0000
  Zn  Zn3       1.0  0.6781233501479278  0.20895878808543958  0.24999943061359892  1.0000
  Zn  Zn4       1.0  0.3218662673338956  0.7910399007259343  0.7500012896823804  1.0000
  H   H1        1.0  0.7262798948281884  0.3082099369187076  0.7500001915716794  1.0000
  H   H2        1.0  0.27371485419451613  0.6917924532225327  0.24999637128330932  1.0000
  H   H3        1.0  0.22628223050104884  0.19179283917411993  0.2500001980672337  1.0000
  H   H4        1.0  0.7737145711360969  0.8082095509866105  0.7499995983591887  1.0000
  H   H5        1.0  0.4327611610133389  0.54471963279056  0.7500000138699009  1.0000
  H   H6        1.0  0.567239745856135  0.4552849781795274  0.2499993206224715  1.0000
  H   H7        1.0  0.9327581419628147  0.955281874337608  0.249997432880491  1.0000
  H   H8        1.0  0.0672345544532291  0.04472051580668079  0.750001439667372  1.0000
  H   H9        1.0  0.6223512122495621  0.6690345993249238  0.7500011858404179  1.0000
  H   H10       1.0  0.37764969463697895  0.33097223245497537  0.2500009202875688  1.0000
  H   H11       1.0  0.12234391010894542  0.8309657286624913  0.2499983924235067  1.0000
  H   H12       1.0  0.8776457073847583  0.16903518094366635  0.7500014039985529  1.0000
  H   H13       1.0  0.8663538459876041  0.6113782416521831  0.7500030137970626  1.0000
  H   H14       1.0  0.1336501397957193  0.38862488881759555  0.2500018639581896  1.0000
  H   H15       1.0  0.3663462017375424  0.8886221145976377  0.25000132391245694  1.0000
  H   H16       1.0  0.6336434157418297  0.11137583395318268  0.7500007821984482  1.0000
  H   H17       1.0  0.32515117135443466  0.9359777250360037  0.6560200895406254  1.0000
  H   H18       1.0  0.6748648665200536  0.06402760249687837  0.1560270157574237  1.0000
  H   H19       1.0  0.8251057996749297  0.5640305192037189  0.3439726760525161  1.0000
  H   H20       1.0  0.17488921287628764  0.43596745303695883  0.8439627197733799  1.0000
  H   H21       1.0  0.6749226032131121  0.06404095110978858  0.3439529144891225  1.0000
  H   H22       1.0  0.32509190911995495  0.9359599821695285  0.8439612321671461  1.0000
  H   H23       1.0  0.17487971255676635  0.4359607669725705  0.6560377449432906  1.0000
  H   H24       1.0  0.8251270885090635  0.5640275345166118  0.1560356908310254  1.0000
  H   H25       1.0  0.19296900839780315  0.9075864114746395  0.6028083655578129  1.0000
  H   H26       1.0  0.807056116962258  0.09241626267875351  0.1028145322351577  1.0000
  H   H27       1.0  0.6929292543915723  0.5924217556905021  0.39718016671536566  1.0000
  H   H28       1.0  0.30707001262008765  0.4075766491573488  0.8971757411064374  1.0000
  H   H29       1.0  0.8071057924538821  0.09242930360021258  0.3971623287741579  1.0000
  H   H30       1.0  0.19291605326944963  0.9075750233530113  0.8971704821287503  1.0000
  H   H31       1.0  0.3070562578775765  0.40757693312882287  0.6028256349050523  1.0000
  H   H32       1.0  0.6929483413619908  0.5924161176040244  0.10282266949509732  1.0000
  H   H33       1.0  0.985644010804869  0.23669165544980333  0.6301866540935065  1.0000
  H   H34       1.0  0.014350402132109297  0.7633023579662744  0.1301852174573384  1.0000
  H   H35       1.0  0.48564547855533396  0.2633038412138617  0.36981480828750796  1.0000
  H   H36       1.0  0.5143506328220513  0.7366987827633975  0.8698152226943847  1.0000
  H   H37       1.0  0.014349711875084404  0.7633018515372781  0.3698205333372684  1.0000
  H   H38       1.0  0.985652557290962  0.23669188929864043  0.8698178125290141  1.0000
  H   H39       1.0  0.5143369547535954  0.7366881851834179  0.6301868358734168  1.0000
  H   H40       1.0  0.4856461688045074  0.26330138660630104  0.1301864214833444  1.0000
  H   H41       1.0  0.028597067566451504  0.055992441404399095  0.5708218946404386  1.0000
  H   H42       1.0  0.9714033366943727  0.9440003491371484  0.0708211084668946  1.0000
  H   H43       1.0  0.5285821015822876  0.44400170960832946  0.4291774576317522  1.0000
  H   H44       1.0  0.4714110973493889  0.5559976956258481  0.9291740507685445  1.0000
  H   H45       1.0  0.9714171812316084  0.9440062474756058  0.4291769779078365  1.0000
  H   H46       1.0  0.028589359672061214  0.055993898075385594  0.9291768401908983  1.0000
  H   H47       1.0  0.4713972528117908  0.555990316779436  0.5708241865282844  1.0000
  H   H48       1.0  0.5285928884275961  0.4440046945721221  0.0708294411694794  1.0000
  H   H49       1.0  0.35290068471810093  0.1086357657546273  0.6970237203980787  1.0000
  H   H50       1.0  0.6471041787893699  0.8913684145433507  0.19702489375055174  1.0000
  H   H51       1.0  0.8528888453925205  0.3913751959070949  0.3029762799918032  1.0000
  H   H52       1.0  0.1470957891855278  0.6086291054608919  0.8029811658586965  1.0000
  H   H53       1.0  0.6471063800056385  0.8913725465729172  0.3029774618565995  1.0000
  H   H54       1.0  0.35289364909822046  0.10862435216770899  0.8029767504159439  1.0000
  H   H55       1.0  0.1470956405998294  0.6086286747648232  0.697027673881621  1.0000
  H   H56       1.0  0.8529061439226526  0.39136292101169795  0.1970241738173542  1.0000
  C   C1        1.0  0.9582419227664047  0.42418001379847675  0.7500027485179573  1.0000
  C   C2        1.0  0.041755905171442016  0.5758208958462133  0.2500002814772984  1.0000
  C   C3        1.0  0.458238777023361  0.0758219758147476  0.25000054589767723  1.0000
  C   C4        1.0  0.5417549456637972  0.9241744922070155  0.7499992505186341  1.0000
  C   C5        1.0  0.8113214284860465  0.45637151498485196  0.7500013706890698  1.0000
  C   C6        1.0  0.18867332057129005  0.5436360570309232  0.2499979638061518  1.0000
  C   C7        1.0  0.3113199533426468  0.043629566158621486  0.2500018393925316  1.0000
  C   C8        1.0  0.6886737693640158  0.9563698629334921  0.7499993428444683  1.0000
  C   C9        1.0  0.7819142906353067  0.5582054010427198  0.7500019828430594  1.0000
  C   C10       1.0  0.2180835373319923  0.4418006904614771  0.2500001232828879  1.0000
  C   C11       1.0  0.28190727737008103  0.9417944330703776  0.249999534764946  1.0000
  C   C12       1.0  0.7180843927159587  0.05820351547740188  0.750000261653085  1.0000
  C   C13       1.0  0.6458911003783001  0.590068257741649  0.7500019934457783  1.0000
  C   C14       1.0  0.354110832790589  0.4099348727086393  0.24999965073804017  1.0000
  C   C15       1.0  0.14589089311881057  0.9099285144962932  0.249998060265348  1.0000
  C   C16       1.0  0.85409975066861  0.0900701743201253  0.7500031219696197  1.0000
  C   C17       1.0  0.5394967347821621  0.5209300285202687  0.7500009313169188  1.0000
  C   C18       1.0  0.46050006685059236  0.47907162137427406  0.2499988651083527  1.0000
  C   C19       1.0  0.0394963216924964  0.9790712676927598  0.24999813745290567  1.0000
  C   C20       1.0  0.9604984273259662  0.020929641929264196  0.750001658970625  1.0000
  C   C21       1.0  0.567451650832709  0.41904654013838893  0.7500003186688603  1.0000
  C   C22       1.0  0.4325482297059723  0.5809543694863563  0.2499962441852972  1.0000
  C   C23       1.0  0.0674547238365477  0.08095525384525358  0.2499985939844578  1.0000
  C   C24       1.0  0.9325451566928393  0.9190434349922112  0.7500007404983932  1.0000
  C   C25       1.0  0.7041645181856141  0.38721255594531084  0.7499984605542949  1.0000
  C   C26       1.0  0.29583228345629214  0.6127920549895478  0.24999533067258992  1.0000
  C   C27       1.0  0.20416489006610314  0.11279230419075498  0.2500019163929679  1.0000
  C   C28       1.0  0.7958329378698039  0.8872086054482933  0.7499997277862107  1.0000
  C   C29       1.0  0.4519416158463729  0.3450513963291542  0.7500020179889547  1.0000
  C   C30       1.0  0.548055185792066  0.6549509938353352  0.2499987023148549  1.0000
  C   C31       1.0  0.9519442695793289  0.15495055433500227  0.2499989631184221  1.0000
  C   C32       1.0  0.048049453095941906  0.8450436928919699  0.750001757171816  1.0000
  C   C33       1.0  0.25939921144165373  0.12143901425846342  0.670876135786088  1.0000
  C   C34       1.0  0.7406045524075824  0.8785619923979692  0.1708782467865788  1.0000
  C   C35       1.0  0.7593852408720994  0.3785661873646048  0.329121963169122  1.0000
  C   C36       1.0  0.24060254596192013  0.6214405473625602  0.8291241709924718  1.0000
  C   C37       1.0  0.7406099058718285  0.8785663370031924  0.3291231987097873  1.0000
  C   C38       1.0  0.25939019657768375  0.12143299510023545  0.8291229354437989  1.0000
  C   C39       1.0  0.24059411357274033  0.6214347222117026  0.670878295188686  1.0000
  C   C40       1.0  0.7594065713046805  0.3785559207218156  0.1708793209378001  1.0000
  C   C41       1.0  0.2735897050550237  0.9618933724141173  0.6137190032725641  1.0000
  C   C42       1.0  0.7264364772558312  0.03811605285470419  0.11372864997519372  1.0000
  C   C43       1.0  0.7735523549919422  0.5381271375404565  0.386271884990677  1.0000
  C   C44       1.0  0.22644072360348133  0.46187265913602  0.8862671203453161  1.0000
  C   C45       1.0  0.726469701375251  0.0381460311666189  0.3862604679270447  1.0000
  C   C46       1.0  0.27354698227495794  0.9618633889962493  0.8862669889634206  1.0000
  C   C47       1.0  0.22643007837876186  0.4618737720772899  0.61373622632577  1.0000
  C   C48       1.0  0.7735704462390417  0.5381186270820422  0.11373406188400281  1.0000
  C   C49       1.0  0.3706904664684886  0.9733468663824142  0.5633866710394315  1.0000
  C   C50       1.0  0.6293345484176529  0.026672513376496496  0.0633874494971209  1.0000
  C   C51       1.0  0.8706644111417817  0.5266942312375491  0.43661074013714096  1.0000
  C   C52       1.0  0.12933496640651043  0.4732948707210554  0.9366073411746925  1.0000
  C   C53       1.0  0.629370992867699  0.026739914283460595  0.4366034248244972  1.0000
  C   C54       1.0  0.3706540424758843  0.9732802788965315  0.9366054177693002  1.0000
  C   C55       1.0  0.129331364185802  0.4733051978928415  0.5633982950582137  1.0000
  C   C56       1.0  0.8706659403075819  0.5266823504209768  0.0633970746006227  1.0000
  C   C57       1.0  0.4537308982158665  0.9906617833080629  0.5226003069738638  1.0000
  C   C58       1.0  0.5462898971528249  0.009372810453186303  0.0226046793453492  1.0000
  C   C59       1.0  0.9537098835434109  0.5094138800572239  0.4773994616170896  1.0000
  C   C60       1.0  0.04629473999950311  0.49058739777909466  0.9773946830354205  1.0000
  C   C61       1.0  0.5463131141142911  0.0094553482116808  0.4773884031162652  1.0000
  C   C62       1.0  0.4537140882612647  0.9905696181634269  0.9773937311736418  1.0000
  C   C63       1.0  0.04628589182046031  0.4905922114594077  0.5226072638951891  1.0000
  C   C64       1.0  0.9537123245139087  0.5093861220266617  0.0226037275328892  1.0000
  C   C65       1.0  0.08895126435984933  0.09539343391793408  0.6048719362769432  1.0000
  C   C66       1.0  0.9110492354064665  0.9046003737128601  0.1048709926894276  1.0000
  C   C67       1.0  0.588939840546928  0.40460257084063767  0.395128836458845  1.0000
  C   C68       1.0  0.4110491576602371  0.5953950770404288  0.8951264415896176  1.0000
  C   C69       1.0  0.9110516950807936  0.9046037744117044  0.3951310937140207  1.0000
  C   C70       1.0  0.08895269770402342  0.095393133273312  0.8951297276020185  1.0000
  C   C71       1.0  0.4110405401459048  0.5953879750254387  0.6048746554539477  1.0000
  C   C72       1.0  0.5889548281022812  0.4046050923552329  0.10487612646755909  1.0000
  C   C73       1.0  0.06961624858055872  0.1844793458188576  0.634051812820438  1.0000
  C   C74       1.0  0.9303812541198229  0.8155161795596512  0.1340496788674983  1.0000
  C   C75       1.0  0.5696139488269765  0.3155172796977439  0.365954030146149  1.0000
  C   C76       1.0  0.4303790728118457  0.6844860531494202  0.8659546955985675  1.0000
  C   C77       1.0  0.9303805530337572  0.8155171222480958  0.36595676043190656  1.0000
  C   C78       1.0  0.06962067900023781  0.1844780677077225  0.8659547369346328  1.0000
  C   C79       1.0  0.43036951080087255  0.6844762272500945  0.6340513095269102  1.0000
  C   C80       1.0  0.569621834025739  0.3155126357006067  0.13404694857803887  1.0000
  N   N1        1.0  0.17655737249095443  0.19973228752198932  0.6750535455817683  1.0000
  N   N2        1.0  0.8234402452391338  0.800268012806626  0.1750545362948301  1.0000
  N   N3        1.0  0.6765568293655805  0.3002687005730563  0.3249468155125612  1.0000
  N   N4        1.0  0.32343915619583197  0.6997372599765653  0.8249507006689925  1.0000
  N   N5        1.0  0.8234342976173326  0.8002678818506154  0.3249527179814109  1.0000
  N   N6        1.0  0.17656271421792274  0.1997314163309483  0.824950803393058  1.0000
  N   N7        1.0  0.32343278810875387  0.6997285077097074  0.6750548286584959  1.0000
  N   N8        1.0  0.6765555928309085  0.3002643899229084  0.1750518673878361  1.0000
  N   N9        1.0  0.20835856937441125  0.05639445916217059  0.6293010755771533  1.0000
  N   N10       1.0  0.7916481567805463  0.9436054692427616  0.1293048043667824  1.0000
  N   N11       1.0  0.7083434346651033  0.4436104268483803  0.37069653214095416  1.0000
  N   N12       1.0  0.29164652134892327  0.5563914640054293  0.8706953330094577  1.0000
  N   N13       1.0  0.7916556794762075  0.9436138531650541  0.3706945634152774  1.0000
  N   N14       1.0  0.20834967109126987  0.056385076662238  0.8706949920414785  1.0000
  N   N15       1.0  0.29163797236911654  0.5563860411540842  0.6293078836587469  1.0000
  N   N16       1.0  0.7083595170103153  0.4436064845980353  0.1293072350448483  1.0000
  O   O1        1.0  0.9811885122611984  0.32930979171580077  0.7499975259721054  1.0000
  O   O2        1.0  0.018814447186002805  0.6706903776466431  0.24999765106570493  1.0000
  O   O3        1.0  0.4811905975483982  0.17069308003684108  0.24999792866010037  1.0000
  O   O4        1.0  0.5188082566677609  0.8293048685200047  0.749998634189147  1.0000
  O   O5        1.0  0.052907910756260904  0.4873056341869458  0.7500062825428557  1.0000
  O   O6        1.0  0.9470899171969906  0.5126960157558429  0.2500046004113159  1.0000
  O   O7        1.0  0.5528986133630839  0.012699030945327597  0.250005556046581  1.0000
  O   O8        1.0  0.44709100411643027  0.9872981773524502  0.7499997836340172  1.0000
  O   O9        1.0  0.3294739102416174  0.3851490159319865  0.7500001975569646  1.0000
  O   O10       1.0  0.670518786170682  0.61485263394799  0.2499991369284373  1.0000
  O   O11       1.0  0.8294801933775562  0.1148543982638799  0.24999932744057668  1.0000
  O   O12       1.0  0.17051558192195423  0.8851428100247742  0.7499990831613985  1.0000
  O   O13       1.0  0.4738506334100876  0.25395060646044954  0.7500032681597091  1.0000
  O   O14       1.0  0.5261523260751276  0.7460540045328868  0.2500002237814769  1.0000
  O   O15       1.0  0.9738523156005815  0.24605073941900454  0.2500004971544811  1.0000
  O   O16       1.0  0.0261444859916296  0.7539427675700808  0.7500048425224081  1.0000
