data_image0
_chemical_formula_structural       Ag4H24C36Cl4O8
_chemical_formula_sum              "Ag4 H24 C36 Cl4 O8"
_cell_length_a       5.736212476686304
_cell_length_b       8.343769988176852
_cell_length_c       18.19231895224269
_cell_angle_alpha    89.99985532109918
_cell_angle_beta     89.228773461861
_cell_angle_gamma    89.99933614554028

_space_group_name_H-M_alt    "P 1"
_space_group_IT_number       1

loop_
  _space_group_symop_operation_xyz
  'x, y, z'

loop_
  _atom_site_type_symbol
  _atom_site_label
  _atom_site_symmetry_multiplicity
  _atom_site_fract_x
  _atom_site_fract_y
  _atom_site_fract_z
  _atom_site_occupancy
  Ag  Ag1       1.0  0.9322096768562103  0.8666445688508302  0.5391968925065173  1.0000
  Ag  Ag2       1.0  0.5677827996725355  0.36663814760287033  0.4608060820975908  1.0000
  Ag  Ag3       1.0  0.06778678651754431  0.13336306560306346  0.46080488907337974  1.0000
  Ag  Ag4       1.0  0.43220851442754327  0.6333694868695401  0.5391935036520579  1.0000
  H   H1        1.0  0.2763519828324447  0.8610979744433106  0.386311727996393  1.0000
  H   H2        1.0  0.2236638958558856  0.36112412349628176  0.6136849658689698  1.0000
  H   H3        1.0  0.7236586293573737  0.13890366745579993  0.6136845480236204  1.0000
  H   H4        1.0  0.7763168976100941  0.6388763200246784  0.3863162752744529  1.0000
  H   H5        1.0  0.4744739929957404  0.14966692396738063  0.2992182382796429  1.0000
  H   H6        1.0  0.025540066323294794  0.6496863742594382  0.7007839493237213  1.0000
  H   H7        1.0  0.5255348959563051  0.8503443059300932  0.7007774890284254  1.0000
  H   H8        1.0  0.9744564778824057  0.35031526769743226  0.299215633338406  1.0000
  H   H9        1.0  0.9384856277022137  0.879145919103159  0.3209979820784596  1.0000
  H   H10       1.0  0.5615327461047243  0.37916265490163426  0.6790060443733594  1.0000
  H   H11       1.0  0.06152640463358949  0.12086531078917052  0.67900708859937  1.0000
  H   H12       1.0  0.43845856803609  0.6208401855747708  0.3209935413824497  1.0000
  H   H13       1.0  0.6656731546989575  0.8272626909383474  0.2191612644268019  1.0000
  H   H14       1.0  0.8343461612896589  0.32727264851109783  0.7808412460995414  1.0000
  H   H15       1.0  0.3343405807302632  0.17273295846113257  0.780844904702036  1.0000
  H   H16       1.0  0.1656625863363033  0.6727337873938806  0.2191583293342561  1.0000
  H   H17       1.0  0.0896365693332299  0.11656451933173166  0.0735580793505264  1.0000
  H   H18       1.0  0.4103624028244468  0.6165633196234167  0.9264431031244271  1.0000
  H   H19       1.0  0.9103653667437897  0.88340716012555  0.9264371024039236  1.0000
  H   H20       1.0  0.5896358443728501  0.38343472683061447  0.07355757797331111  1.0000
  H   H21       1.0  0.35911766509017434  0.17289778805519518  0.17629280546647408  1.0000
  H   H22       1.0  0.14088381644116768  0.6728949495335923  0.823708779988813  1.0000
  H   H23       1.0  0.6408826082228529  0.8270966628879459  0.8237001783650015  1.0000
  H   H24       1.0  0.8591073563735634  0.3271030969503172  0.17629465389272528  1.0000
  C   C1        1.0  0.5985494062838511  0.9835353905741612  0.4155644109473898  1.0000
  C   C2        1.0  0.901458578082881  0.4835517095436685  0.5844366038868003  1.0000
  C   C3        1.0  0.40146459161245207  0.0164686483117862  0.584434611662907  1.0000
  C   C4        1.0  0.0985291281425091  0.5164559249454397  0.4155662823145292  1.0000
  C   C5        1.0  0.3832108327844423  0.965262687879644  0.3721271608380619  1.0000
  C   C6        1.0  0.1168032559597663  0.4652777125251715  0.6278698152302127  1.0000
  C   C7        1.0  0.6168015833019851  0.03474374800712348  0.6278674649499507  1.0000
  C   C8        1.0  0.8831898621794777  0.5347179369488656  0.3721281203089859  1.0000
  C   C9        1.0  0.34838889707607723  0.054428704625806276  0.3109123992228788  1.0000
  C   C10       1.0  0.1516285641889183  0.5544447502684802  0.689088932505804  1.0000
  C   C11       1.0  0.6516286481091385  0.9455753342449494  0.6890849721298338  1.0000
  C   C12       1.0  0.8483555342228755  0.4455556932433209  0.3109172541564504  1.0000
  C   C13       1.0  0.17124731652609876  0.028667621215447494  0.25572868729477705  1.0000
  C   C14       1.0  0.3287619061251802  0.5286775676366061  0.744271616303962  1.0000
  C   C15       1.0  0.8287667621410505  0.9713376161674954  0.7442681363885058  1.0000
  C   C16       1.0  0.671229387810193  0.4713264713392957  0.2557285191816661  1.0000
  C   C17       1.0  0.9725282387312575  0.931912059501158  0.2670997672573421  1.0000
  C   C18       1.0  0.5274805823914477  0.43192555012753775  0.732902479635591  1.0000
  C   C19       1.0  0.02747167096531199  0.06809437644105287  0.7329031117233527  1.0000
  C   C20       1.0  0.47252451695913317  0.5680820842941541  0.2671014957110813  1.0000
  C   C21       1.0  0.8187760621250532  0.9020687954365907  0.21027339979735163  1.0000
  C   C22       1.0  0.6812350700465968  0.4020763729093203  0.789727273528527  1.0000
  C   C23       1.0  0.18123246344470792  0.09792685398291207  0.789732222695342  1.0000
  C   C24       1.0  0.31875456132841146  0.5979264675724137  0.2102706640649146  1.0000
  C   C25       1.0  0.8635966267085209  0.9676168732990781  0.1406907922278862  1.0000
  C   C26       1.0  0.6364046346567064  0.46761771888070286  0.8593108173705488  1.0000
  C   C27       1.0  0.1363997964885399  0.032365592676789796  0.8593120888470693  1.0000
  C   C28       1.0  0.3635954164473957  0.5323839230619853  0.14068821349673755  1.0000
  C   C29       1.0  0.05690186297555751  0.06590773240044707  0.1279189308836663  1.0000
  C   C30       1.0  0.4430910570747741  0.5659049934790372  0.8720807366359722  1.0000
  C   C31       1.0  0.9430930188225091  0.9340747335772331  0.8720784539093601  1.0000
  C   C32       1.0  0.556891479793677  0.43408945754007505  0.1279205034834021  1.0000
  C   C33       1.0  0.2072171006915369  0.09678531530424546  0.1856703099358654  1.0000
  C   C34       1.0  0.2927840114313581  0.5967884610922524  0.8143292731097348  1.0000
  C   C35       1.0  0.7927779425871363  0.903206738661417  0.8143226769939034  1.0000
  C   C36       1.0  0.707208965310535  0.403210783882315  0.1856725105444212  1.0000
  Cl  Cl1       1.0  0.674924294301654  0.9259577336417376  0.06962648402473089  1.0000
  Cl  Cl2       1.0  0.8250829250970143  0.425963200419737  0.9303746797409572  1.0000
  Cl  Cl3       1.0  0.3250773792879258  0.07400795332706879  0.9303758442451908  1.0000
  Cl  Cl4       1.0  0.1749187078373211  0.5740336475241248  0.0696287479516826  1.0000
  O   O1        1.0  0.6538782372493515  0.8633988626012437  0.45522925935154035  1.0000
  O   O2        1.0  0.8461298429970225  0.36341915017968046  0.5447775623886528  1.0000
  O   O3        1.0  0.34613063154816354  0.13660757330072218  0.5447670176940491  1.0000
  O   O4        1.0  0.15385601889033038  0.6365896828177853  0.4552280734997183  1.0000
  O   O5        1.0  0.7202315500877745  0.11172516090385189  0.4085379220259782  1.0000
  O   O6        1.0  0.7797672027914544  0.6117472412249824  0.5914602089460388  1.0000
  O   O7        1.0  0.2797912655019417  0.8882836719413728  0.5914583467626217  1.0000
  O   O8        1.0  0.22022753738526285  0.3882651872312621  0.4085410239280804  1.0000
