data_image0
_chemical_formula_structural       Cd4H44C40S4N8O22
_chemical_formula_sum              "Cd4 H44 C40 S4 N8 O22"
_cell_length_a       9.54937765
_cell_length_b       13.217393902675827
_cell_length_c       13.5956
_cell_angle_alpha    118.36279290017006
_cell_angle_beta     90.0
_cell_angle_gamma    111.17632388121389

_space_group_name_H-M_alt    "P 1"
_space_group_IT_number       1

loop_
  _space_group_symop_operation_xyz
  'x, y, z'

loop_
  _atom_site_type_symbol
  _atom_site_label
  _atom_site_symmetry_multiplicity
  _atom_site_fract_x
  _atom_site_fract_y
  _atom_site_fract_z
  _atom_site_occupancy
  Cd  Cd1       1.0  0.1790513642404292  0.5044083258166197  0.8546110657770073  1.0000
  Cd  Cd2       1.0  0.6746912416938782  0.4955516129505924  0.14536388619875854  1.0000
  Cd  Cd3       1.0  0.6808957160963303  0.4927134669134644  0.614319974324374  1.0000
  Cd  Cd4       1.0  0.1881764803357981  0.5072691015895927  0.3856624867888243  1.0000
  H   H1        1.0  0.42572859450587686  0.8023184262434597  0.9835907284683285  1.0000
  H   H2        1.0  0.623268194806755  0.19761133954263235  0.016507097454024178  1.0000
  H   H3        1.0  0.434585428952559  0.014759302298728  0.10422144543241531  1.0000
  H   H4        1.0  0.4197145856948267  0.9851572628081156  0.8958217388007128  1.0000
  H   H5        1.0  0.9451385312465277  0.8368721470662521  0.08068474899344837  1.0000
  H   H6        1.0  0.1081482686039408  0.16302555992739087  0.9192717594506519  1.0000
  H   H7        1.0  0.9611134197596696  0.6314431766951074  0.9715207184813224  1.0000
  H   H8        1.0  0.32952659629365394  0.368453587392878  0.02843976768586739  1.0000
  H   H9        1.0  0.4356950180032371  0.18228723675346  0.209390129922383  1.0000
  H   H10       1.0  0.2531801951406791  0.8176745878250812  0.7906805766310256  1.0000
  H   H11       1.0  0.418070484320033  0.386519659841845  0.2947484384565726  1.0000
  H   H12       1.0  0.03128660650168066  0.6134402789253741  0.7052831494896524  1.0000
  H   H13       1.0  0.9416192609302527  0.2205522342547042  0.22004096011563948  1.0000
  H   H14       1.0  0.7208500889603471  0.779451078172876  0.7799635853699343  1.0000
  H   H15       1.0  0.9364125300739516  0.005733809319529799  0.1226655951262714  1.0000
  H   H16       1.0  0.9305028709077732  0.9942930757495603  0.8773432173057146  1.0000
  H   H17       1.0  0.42267710518393636  0.3790490182962714  0.7787110537946519  1.0000
  H   H18       1.0  0.04399964867289443  0.6211438181690099  0.22132806273164354  1.0000
  H   H19       1.0  0.4359059627433836  0.1757557292454237  0.6952104629040718  1.0000
  H   H20       1.0  0.260354405972393  0.8245021677104132  0.3048932710192389  1.0000
  H   H21       1.0  0.9361330919189683  0.0045947792820371  0.6210664067724494  1.0000
  H   H22       1.0  0.9314306560863201  0.995344415560659  0.37870772653455026  1.0000
  H   H23       1.0  0.9442219038227648  0.2187559989720711  0.7107689536365953  1.0000
  H   H24       1.0  0.7254894558474588  0.7811021059838479  0.2890192165472951  1.0000
  H   H25       1.0  0.9461555969727158  0.628712521903239  0.46726966115817703  1.0000
  H   H26       1.0  0.31748438784087096  0.3714180827884661  0.5328230939806673  1.0000
  H   H27       1.0  0.9354302424214466  0.835429501406189  0.5615544188986803  1.0000
  H   H28       1.0  0.0999104736097536  0.16473127626665018  0.4385647753066095  1.0000
  H   H29       1.0  0.43373368666219386  0.0033671161124857  0.6166467085492968  1.0000
  H   H30       1.0  0.4301763539142271  0.9966729696358456  0.383278465540151  1.0000
  H   H31       1.0  0.4212149971796748  0.7860947914544738  0.5210736221899596  1.0000
  H   H32       1.0  0.6350008064205992  0.2138783479919795  0.4788662365608046  1.0000
  H   H33       1.0  0.20129651217439457  0.5091850858910759  0.08368687634909112  1.0000
  H   H34       1.0  0.6919804987415147  0.49075788057425734  0.9162706752602645  1.0000
  H   H35       1.0  0.036347952097081325  0.4387764344344376  0.011262476060849716  1.0000
  H   H36       1.0  0.5972943081548436  0.561034525238469  0.9886385230240577  1.0000
  H   H37       1.0  0.4930904681876811  0.6812483965712488  0.9892797753231477  1.0000
  H   H38       1.0  0.8118013726461655  0.3186747688752263  0.01073630038038688  1.0000
  H   H39       1.0  0.49595622834679887  0.6001085357961529  0.8563386751619005  1.0000
  H   H40       1.0  0.8958541285050714  0.39992306380123915  0.14367966993795986  1.0000
  H   H41       1.0  0.6598884071629243  0.5465401794302522  0.4341746205813308  1.0000
  H   H42       1.0  0.11351316314253519  0.4534706762426168  0.5658885735657861  1.0000
  H   H43       1.0  0.5636555108168295  0.6042818362480844  0.5248250965614005  1.0000
  H   H44       1.0  0.9595104073575697  0.39568564576440923  0.47525704919345907  1.0000
  C   C1        1.0  0.32264002650530443  0.8133513653731725  0.011567088063408459  1.0000
  C   C2        1.0  0.5091195107998486  0.1865510561487724  0.988489423494876  1.0000
  C   C3        1.0  0.3259452994588371  0.9331579014607526  0.07635647342625156  1.0000
  C   C4        1.0  0.39261466216892416  0.0667454629668569  0.9236754655105912  1.0000
  C   C5        1.0  0.1886014962174585  0.9466546530805076  0.10025432104217911  1.0000
  C   C6        1.0  0.2417930937890702  0.053267569460302894  0.8997708811090348  1.0000
  C   C7        1.0  0.055717892033158106  0.8354493024250473  0.06283603426138747  1.0000
  C   C8        1.0  0.2201364711786837  0.1644785775497226  0.9371476487812345  1.0000
  C   C9        1.0  0.0630173937786509  0.7188825901858351  0.0016708160990219151  1.0000
  C   C10       1.0  0.3440061939847537  0.2810273745813916  0.998336220904477  1.0000
  C   C11       1.0  0.1857186032561557  0.0727168845127437  0.1576566302257376  1.0000
  C   C12       1.0  0.11279557105797983  0.9272543691223945  0.8423610595191917  1.0000
  C   C13       1.0  0.3219408573014491  0.1830095024891492  0.20731483191318031  1.0000
  C   C14       1.0  0.13868063336806813  0.8169542079007073  0.7927192334427603  1.0000
  C   C15       1.0  0.3140363848547024  0.2995328410680003  0.2573034678340917  1.0000
  C   C16       1.0  0.014267065288308286  0.7004591564916609  0.7427318930907064  1.0000
  C   C17       1.0  0.048121009090422724  0.2070177664085406  0.2148589603685309  1.0000
  C   C18       1.0  0.8408853206634603  0.7929959179813011  0.7851364001709199  1.0000
  C   C19       1.0  0.0466809121193279  0.08710468198136569  0.1613799244666225  1.0000
  C   C20       1.0  0.9593779675537277  0.9129108882197982  0.8386266044608207  1.0000
  C   C21       1.0  0.3163822127774907  0.2945316694464282  0.7444793069610042  1.0000
  C   C22       1.0  0.022083181732412478  0.7055734767924591  0.2554994515441962  1.0000
  C   C23       1.0  0.3225732108244159  0.1774925614714604  0.696425966582531  1.0000
  C   C24       1.0  0.14522921229866634  0.8226729307296735  0.30360272792722043  1.0000
  C   C25       1.0  0.18536177683969157  0.0681013613061836  0.6508161310783221  1.0000
  C   C26       1.0  0.11724881652904183  0.9319868126308107  0.3491592021700569  1.0000
  C   C27       1.0  0.0475743767477184  0.0845729802837951  0.6561071556132632  1.0000
  C   C28       1.0  0.9629605501548822  0.9154265605211477  0.34375221923831123  1.0000
  C   C29       1.0  0.050628426803065486  0.20483211108825825  0.7061198356137907  1.0000
  C   C30       1.0  0.8458630318688448  0.7950995405091561  0.29370818544050076  1.0000
  C   C31       1.0  0.05150633517426677  0.714278381847201  0.501992269760926  1.0000
  C   C32       1.0  0.3372057371426179  0.2858277072973436  0.4980773946599939  1.0000
  C   C33       1.0  0.047360391556466735  0.8320105254823886  0.5551995970088441  1.0000
  C   C34       1.0  0.2152451419392918  0.1681125359640347  0.4448852611822431  1.0000
  C   C35       1.0  0.18490891790962397  0.9409491309307825  0.5978193603885275  1.0000
  C   C36       1.0  0.24388241890142837  0.059172044704325785  0.4022028421686912  1.0000
  C   C37       1.0  0.32218835353822334  0.9239013965948075  0.5864508250510738  1.0000
  C   C38       1.0  0.39816846365414443  0.07616509051200639  0.4135417070880578  1.0000
  C   C39       1.0  0.31726075381453717  0.8028398530735359  0.532966557319611  1.0000
  C   C40       1.0  0.5143449308974438  0.1972030613917752  0.46702391446935826  1.0000
  S   S1        1.0  0.3963407269455245  0.6255500163190106  0.6987241575227614  1.0000
  S   S2        1.0  0.770866152774211  0.3745164707878033  0.30133089484350245  1.0000
  S   S3        1.0  0.784727855270404  0.36601334754433873  0.7285469956978972  1.0000
  S   S4        1.0  0.4187148180968093  0.6339503628455175  0.2714179296421548  1.0000
  N   N1        1.0  0.19402705068171144  0.7073970563392393  0.9740194274816005  1.0000
  N   N2        1.0  0.4864756177177156  0.2925223374845913  0.026023592095576503  1.0000
  N   N3        1.0  0.18007488228074206  0.311810415669143  0.2620660683883287  1.0000
  N   N4        1.0  0.8680296150633992  0.6881966683810816  0.7379497808919596  1.0000
  N   N5        1.0  0.18350977141014366  0.3088261192546895  0.7502160374372266  1.0000
  N   N6        1.0  0.8748801629545894  0.6911913367577966  0.2496913300656161  1.0000
  N   N7        1.0  0.18393687763570202  0.699586025850344  0.4902301753846316  1.0000
  N   N8        1.0  0.48428700784072015  0.30045594570930934  0.5097856045578624  1.0000
  O   O1        1.0  0.23686320086230236  0.5507295092784119  0.7050824612601332  1.0000
  O   O2        1.0  0.6860585695813268  0.4492153429982436  0.29492229980932183  1.0000
  O   O3        1.0  0.4465326685393122  0.7608673505164774  0.78115540469463  1.0000
  O   O4        1.0  0.6858611499070831  0.23916707779789448  0.2189194117197459  1.0000
  O   O5        1.0  0.5048466339673608  0.5789714196119959  0.728776145507247  1.0000
  O   O6        1.0  0.9259239854637329  0.4211808719098967  0.27125674987998133  1.0000
  O   O7        1.0  0.3932770905011651  0.5969309437213609  0.5788428694077224  1.0000
  O   O8        1.0  0.7964842514351743  0.40317137380054646  0.4212206399430727  1.0000
  O   O9        1.0  0.8393484498153114  0.3998928908201123  0.6398358193560227  1.0000
  O   O10       1.0  0.4394506124678231  0.6001245651923739  0.3601620185931367  1.0000
  O   O11       1.0  0.7126978063167114  0.2286895101020221  0.6795818143399117  1.0000
  O   O12       1.0  0.4840308690930755  0.7712732573821767  0.3203473699907065  1.0000
  O   O13       1.0  0.673623241557209  0.424845003305343  0.7761331023859981  1.0000
  O   O14       1.0  0.2487697614231266  0.5751460513486606  0.22384003837434113  1.0000
  O   O15       1.0  0.918384136198625  0.4247139394185737  0.8250641576514184  1.0000
  O   O16       1.0  0.4936598700844073  0.5752063973109145  0.17491015737928003  1.0000
  O   O17       1.0  0.14345638482917877  0.45700374375129366  0.001953476409155924  1.0000
  O   O18       1.0  0.6862126424989512  0.5428666189782091  0.9979911389542195  1.0000
  O   O19       1.0  0.4611331357387556  0.5955429865895779  0.925507604417568  1.0000
  O   O20       1.0  0.865573013512531  0.40441223764933193  0.07446517021116249  1.0000
  O   O21       1.0  0.6624272734030825  0.5954222946650773  0.5169711794060206  1.0000
  O   O22       1.0  0.06715552169779221  0.4045734745172282  0.48308504723058826  1.0000
