data_image0
_chemical_formula_structural       Zr6H30C57S2O48
_chemical_formula_sum              "Zr6 H30 C57 S2 O48"
_cell_length_a       14.7258122973501
_cell_length_b       14.730185014661451
_cell_length_c       14.742649840219697
_cell_angle_alpha    60.314111047300415
_cell_angle_beta     60.08993730649496
_cell_angle_gamma    60.11546609976382

_space_group_name_H-M_alt    "P 1"
_space_group_IT_number       1

loop_
  _space_group_symop_operation_xyz
  'x, y, z'

loop_
  _atom_site_type_symbol
  _atom_site_label
  _atom_site_symmetry_multiplicity
  _atom_site_fract_x
  _atom_site_fract_y
  _atom_site_fract_z
  _atom_site_occupancy
  Zr  Zr1       1.0  0.8863840506054216  0.8801415739626108  0.6161415456503647  1.0000
  Zr  Zr2       1.0  0.1295876535378113  0.11624534015655995  0.38009100816566393  1.0000
  Zr  Zr3       1.0  0.12861853234441864  0.8752183238906569  0.6181791908860886  1.0000
  Zr  Zr4       1.0  0.8880820987553263  0.11828453150768331  0.3794326899605878  1.0000
  Zr  Zr5       1.0  0.12875604312551273  0.8785997147105676  0.37690532512969094  1.0000
  Zr  Zr6       1.0  0.8894945468143262  0.11631954974864567  0.6190842311559805  1.0000
  H   H1        1.0  0.10441508323660248  0.7142240092822406  0.590366366398868  1.0000
  H   H2        1.0  0.1053935452319337  0.0927743883972454  0.2160282099640582  1.0000
  H   H3        1.0  0.10813827220437838  0.08707662504465924  0.5921966025189819  1.0000
  H   H4        1.0  0.7254961776378507  0.09334761511547655  0.5915893941449966  1.0000
  H   H5        1.0  0.8284766285251874  0.6277146061593301  0.5851554751406881  1.0000
  H   H6        1.0  0.17759532825223784  0.5516207196614573  0.3978138536074169  1.0000
  H   H7        1.0  0.8333151158242629  0.4535174419450526  0.5875555717108584  1.0000
  H   H8        1.0  0.5920815833346607  0.8548761134216605  0.9125000658731609  1.0000
  H   H9        1.0  0.6054335467113745  0.134885654398353  0.9223766587415484  1.0000
  H   H10       1.0  0.4240888939229421  0.8545510849184267  0.08442850488491864  1.0000
  H   H11       1.0  0.15664254549739795  0.8553220547969644  0.0805087657717606  1.0000
  H   H12       1.0  0.8535929786483507  0.13372185325983574  0.09212610069972255  1.0000
  H   H13       1.0  0.1545627254083611  0.8528672372110577  0.912156301887869  1.0000
  H   H14       1.0  0.6017466784524784  0.4266900406981265  0.6357225315974944  1.0000
  H   H15       1.0  0.6128986123828637  0.4209445649952955  0.34191299364854183  1.0000
  H   H16       1.0  0.43237591202581144  0.5965291178978802  0.630903747073276  1.0000
  H   H17       1.0  0.0421534265803488  0.5648165048962283  0.735281305906746  1.0000
  H   H18       1.0  0.10255054203819458  0.3815306590795799  0.7229581528809845  1.0000
  H   H19       1.0  0.05252493530037576  0.23056507852008679  0.0718156125596252  1.0000
  H   H20       1.0  0.10813709798737389  0.21320055445246297  0.8926710190001899  1.0000
  H   H21       1.0  0.6053467804757486  0.12972050688462394  0.3356590282989984  1.0000
  H   H22       1.0  0.6084129259148625  0.843500138698651  0.6298337067269983  1.0000
  H   H23       1.0  0.4366930945005547  0.12443331215252576  0.33902279588695444  1.0000
  H   H24       1.0  0.225611825187798  0.40147825947622096  0.2648242052480612  1.0000
  H   H25       1.0  0.3261026128822734  0.2565402529275219  0.019349738892358845  1.0000
  H   H26       1.0  0.9016152212607692  0.23361237317430292  0.778495517295589  1.0000
  H   H27       1.0  0.37119385470629135  0.4856064965043174  0.3893068769607667  1.0000
  H   H28       1.0  0.32810701663034064  0.9082841859654566  0.7426108445336439  1.0000
  H   H29       1.0  0.9332702052411292  0.6600557710046361  0.2057449919612182  1.0000
  H   H30       1.0  0.7273301399596118  0.7197179947530685  0.16415077875295472  1.0000
  C   C1        1.0  0.0029807979661455493  0.7002986535941318  0.4906707120165663  1.0000
  C   C2        1.0  0.3155438782554467  0.9969064251928188  0.19591709645840888  1.0000
  C   C3        1.0  0.009700955534448434  0.30039923601182744  0.50131601295913  1.0000
  C   C4        1.0  0.7064786805593286  0.9969790479138679  0.8039324564868052  1.0000
  C   C5        1.0  0.9905628847483496  0.7055616883779975  0.8113012301042489  1.0000
  C   C6        1.0  0.7107248183309806  0.993845647410943  0.4884538211807766  1.0000
  C   C7        1.0  0.9944412077207758  0.31284530262639976  0.20863867729710245  1.0000
  C   C8        1.0  0.32089602253775223  0.9875998134588783  0.491762450608398  1.0000
  C   C9        1.0  0.3183060938943425  0.6970977550972747  0.49200867681604155  1.0000
  C   C10       1.0  0.00854202258554431  0.9905171726557711  0.8054948733366842  1.0000
  C   C11       1.0  0.7117122683878063  0.3074600304239327  0.4951568032844378  1.0000
  C   C12       1.0  0.006174793314869413  0.9979051946058917  0.19480649054678875  1.0000
  C   C13       1.0  0.00874454953304849  0.4029843976690016  0.49917369984436283  1.0000
  C   C14       1.0  0.0027878271738188158  0.599259179932666  0.49038042785356584  1.0000
  C   C15       1.0  0.10727490953855313  0.42851477177221403  0.4468441178724661  1.0000
  C   C16       1.0  0.9054530556996311  0.5721320997752315  0.5454405666819895  1.0000
  C   C17       1.0  0.1030253632385649  0.5285340380742128  0.43976451871007793  1.0000
  C   C18       1.0  0.9083789278003138  0.4751752049656374  0.5478681356940741  1.0000
  C   C19       1.0  0.41694279981303556  0.998236109123383  0.09537664140042779  1.0000
  C   C20       1.0  0.6062941435834972  0.9967878218597903  0.9059381691927937  1.0000
  C   C21       1.0  0.4677585852724632  0.07822868902275099  0.05007937845787316  1.0000
  C   C22       1.0  0.5560433974286308  0.9172257378452219  0.9513234850719599  1.0000
  C   C23       1.0  0.5630649998152252  0.07614993010049896  0.9560003311770942  1.0000
  C   C24       1.0  0.46243060647759643  0.9176337494440715  0.04589036663360698  1.0000
  C   C25       1.0  0.005812551760499302  0.9943537357848907  0.9059314068515077  1.0000
  C   C26       1.0  0.006351692744090099  0.9963766150841521  0.09415919320412762  1.0000
  C   C27       1.0  0.919349968298725  0.07461117515178736  0.9561268217754632  1.0000
  C   C28       1.0  0.0914918142823635  0.9162483453245045  0.04449476900356317  1.0000
  C   C29       1.0  0.9206373851002424  0.07406323996456625  0.05064225219781081  1.0000
  C   C30       1.0  0.09048606761282924  0.9153636936221119  0.9513074457426781  1.0000
  C   C31       1.0  0.42477168735142357  0.6017046926521772  0.48642666305113375  1.0000
  C   C32       1.0  0.61509980601069  0.4127065057217506  0.49047136928547264  1.0000
  C   C33       1.0  0.47705031017282795  0.554015308474611  0.4023901010382076  1.0000
  C   C34       1.0  0.5660569571665731  0.46270130017185107  0.5711110530047918  1.0000
  C   C35       1.0  0.5716811209863335  0.4596925768136018  0.40541320116997065  1.0000
  C   C36       1.0  0.4714506303889504  0.5565779948309811  0.5688471110775524  1.0000
  C   C37       1.0  0.9781831689165159  0.6107922505248882  0.9202741140721146  1.0000
  C   C38       1.0  0.017117637564851452  0.5042081923686511  0.9107883843032596  1.0000
  C   C39       1.0  0.9322779634951955  0.6220363967048996  0.023730241400307994  1.0000
  C   C40       1.0  0.04900285444605132  0.4915664424558344  0.808370274626988  1.0000
  C   C41       1.0  0.08131078198859855  0.3889526981798638  0.801808403144925  1.0000
  C   C42       1.0  0.9824128201247648  0.4204517213503535  0.11246260971185516  1.0000
  C   C43       1.0  0.9346715438065515  0.5251069249042927  0.12152436618495674  1.0000
  C   C44       1.0  0.019625472670078536  0.4082092088007769  0.007680665664203317  1.0000
  C   C45       1.0  0.054859600536531154  0.3035052868227908  0.9978470694118188  1.0000
  C   C46       1.0  0.08455789484386135  0.2940521849216181  0.8973903845568716  1.0000
  C   C47       1.0  0.4257686718551596  0.9833937776461287  0.48811790591731335  1.0000
  C   C48       1.0  0.6145939895219071  0.9884342294478686  0.48434575137665103  1.0000
  C   C49       1.0  0.4749636537412483  0.9017880343330377  0.5699634117761148  1.0000
  C   C50       1.0  0.5680567952787355  0.06672937144133337  0.4009610693471545  1.0000
  C   C51       1.0  0.5693699139477812  0.9050564179457582  0.5671496240968709  1.0000
  C   C52       1.0  0.4740057829029141  0.06407128752539387  0.4030868096099595  1.0000
  C   C53       1.0  0.2203902024221874  0.34407926894910196  0.41557633070944183  1.0000
  C   C54       1.0  0.42901792151531737  0.16458032192264943  0.10023344264578779  1.0000
  C   C55       1.0  0.8171457661227353  0.157950026639334  0.9238470116584523  1.0000
  C   C56       1.0  0.4386088840969292  0.5991120149063746  0.306143409011895  1.0000
  C   C57       1.0  0.4348849741658327  0.807195657766371  0.66123188764292  1.0000
  S   S1        1.0  0.8708681593119677  0.5344932952523819  0.2588755460232332  1.0000
  S   S2        1.0  0.8662720448452955  0.7607093073115934  0.030791029955153548  1.0000
  O   O1        1.0  0.9260955423307067  0.7387758778429615  0.5685761667612115  1.0000
  O   O2        1.0  0.2735528017364429  0.07524684321533213  0.23511964706449356  1.0000
  O   O3        1.0  0.08707022238023397  0.26071406425563026  0.4243112275375723  1.0000
  O   O4        1.0  0.7426891542258004  0.9226601299458891  0.7616779122859824  1.0000
  O   O5        1.0  0.07591904101042964  0.7324526364689418  0.7707214843953595  1.0000
  O   O6        1.0  0.7482803529463665  0.0727812288330868  0.41428179701725304  1.0000
  O   O7        1.0  0.922622430000999  0.26898434409238087  0.2429516957832263  1.0000
  O   O8        1.0  0.27880864283629575  0.913037060794224  0.570974707494166  1.0000
  O   O9        1.0  0.2763814371579303  0.7343164246399354  0.4173507204881872  1.0000
  O   O10       1.0  0.932361205911448  0.06751103250897446  0.7649831858968454  1.0000
  O   O11       1.0  0.750358072546298  0.26688786977088347  0.5729564290495192  1.0000
  O   O12       1.0  0.08306560737090507  0.9208985439336104  0.2343321730134916  1.0000
  O   O13       1.0  0.08713087361967796  0.9145552061341249  0.7653163590510773  1.0000
  O   O14       1.0  0.7461889133296254  0.2639400423075032  0.42240757086375424  1.0000
  O   O15       1.0  0.9305553396233393  0.07668964095834961  0.23270680506921346  1.0000
  O   O16       1.0  0.27481793427256207  0.732866800423601  0.5728265653077074  1.0000
  O   O17       1.0  0.919309032175491  0.7402657815646235  0.7667023140619235  1.0000
  O   O18       1.0  0.27866579617671045  0.06651294689113021  0.41791134674453195  1.0000
  O   O19       1.0  0.07879233015411562  0.2722749538809524  0.2369325258136072  1.0000
  O   O20       1.0  0.7474254854482533  0.9198512703392652  0.5680236907795899  1.0000
  O   O21       1.0  0.7472817628996395  0.07317905456589802  0.7642851379636895  1.0000
  O   O22       1.0  0.08188412221224407  0.7376848020235302  0.41558857299574464  1.0000
  O   O23       1.0  0.2759882243287494  0.9201048298879329  0.23489296219213426  1.0000
  O   O24       1.0  0.9341316308130843  0.25996003547300034  0.5801151020774995  1.0000
  O   O25       1.0  0.8060705214430683  0.06619048037978803  0.564740965976725  1.0000
  O   O26       1.0  0.07872618820828577  0.06145441778728871  0.5665771652593891  1.0000
  O   O27       1.0  0.07567831600748322  0.067461421409952  0.2962274876431366  1.0000
  O   O28       1.0  0.07478996393612652  0.7945060814892244  0.5655207515293128  1.0000
  O   O29       1.0  0.1587315811494888  0.9464989921663475  0.44845791042832417  1.0000
  O   O30       1.0  0.959322398854034  0.9489591772241824  0.44695556441250517  1.0000
  O   O31       1.0  0.9599043595738053  0.14672147941982422  0.44981210735510047  1.0000
  O   O32       1.0  0.9592454450060683  0.947056678924426  0.6466198976648059  1.0000
  O   O33       1.0  0.2756499561091131  0.35129372514211343  0.3081133395160832  1.0000
  O   O34       1.0  0.2650543824781622  0.27601449497022656  0.4853610367877507  1.0000
  O   O35       1.0  0.35213091422261306  0.2634114609649458  0.06425696071434572  1.0000
  O   O36       1.0  0.46879492456452  0.1534949690910778  0.16132252764989372  1.0000
  O   O37       1.0  0.826763315071581  0.249559377684207  0.8325331062572304  1.0000
  O   O38       1.0  0.7257409216958165  0.1506276981733804  0.9853383903583081  1.0000
  O   O39       1.0  0.3780183769663876  0.5450658570238645  0.317793558559906  1.0000
  O   O40       1.0  0.4655684774980174  0.6704217349949033  0.21974028178071578  1.0000
  O   O41       1.0  0.35539650093977576  0.8286767858012283  0.756274973418698  1.0000
  O   O42       1.0  0.4772073370403047  0.7135033599639301  0.6579448635999298  1.0000
  O   O43       1.0  0.943678061221398  0.5820559437000341  0.26205685695802566  1.0000
  O   O44       1.0  0.8822818159441395  0.426412171019777  0.3400038523327709  1.0000
  O   O45       1.0  0.7588956166690008  0.6142106404326454  0.26826035065414516  1.0000
  O   O46       1.0  0.7395694616737245  0.7743748126908372  0.08592674342188628  1.0000
  O   O47       1.0  0.8801008913924805  0.8400094312292549  0.9218238363012502  1.0000
  O   O48       1.0  0.9037748599274166  0.7646746179633368  0.10319202645720052  1.0000
