data_image0
_chemical_formula_structural       Cu2H44C32N4O14
_chemical_formula_sum              "Cu2 H44 C32 N4 O14"
_cell_length_a       8.7933412263398
_cell_length_b       9.941209949287986
_cell_length_c       10.446852276920783
_cell_angle_alpha    75.15543012250056
_cell_angle_beta     81.51055851404928
_cell_angle_gamma    85.96208405649683

_space_group_name_H-M_alt    "P 1"
_space_group_IT_number       1

loop_
  _space_group_symop_operation_xyz
  'x, y, z'

loop_
  _atom_site_type_symbol
  _atom_site_label
  _atom_site_symmetry_multiplicity
  _atom_site_fract_x
  _atom_site_fract_y
  _atom_site_fract_z
  _atom_site_occupancy
  Cu  Cu1       1.0  0.44239951489003454  0.9057650777160903  0.45892162624063804  1.0000
  Cu  Cu2       1.0  0.5576017346090295  0.09424221500018602  0.5410780673134852  1.0000
  H   H1        1.0  0.42563954201780524  0.5887769737687306  0.4983618401935885  1.0000
  H   H2        1.0  0.5743677083566538  0.4112240837669746  0.5016347995101996  1.0000
  H   H3        1.0  0.3276395667833113  0.41859797485501116  0.39153696094054163  1.0000
  H   H4        1.0  0.6723594329931899  0.5814082813137702  0.6084594303787085  1.0000
  H   H5        1.0  0.1483085186456918  0.773456922913944  0.11188397943448784  1.0000
  H   H6        1.0  0.8516891959560837  0.22655244559945942  0.888117558858852  1.0000
  H   H7        1.0  0.2617099160806333  0.926043467092221  0.2285696278385316  1.0000
  H   H8        1.0  0.7382925165730185  0.07396278030452662  0.7714330456445282  1.0000
  H   H9        1.0  0.02893314043158309  0.37251551621499607  0.03114739580372119  1.0000
  H   H10       1.0  0.9710742194758879  0.6274824089763058  0.9688547753251767  1.0000
  H   H11       1.0  0.8811249889793018  0.30837609382309955  0.16486774715206562  1.0000
  H   H12       1.0  0.1188813114137872  0.6916197546590369  0.8351312278687857  1.0000
  H   H13       1.0  0.9866207956510635  0.509348998649955  0.37529230892389626  1.0000
  H   H14       1.0  0.013377484966078204  0.49064579237285244  0.6247126908924372  1.0000
  H   H15       1.0  0.8788729824082607  0.3628254416652368  0.38041054778519623  1.0000
  H   H16       1.0  0.12112645268980056  0.6371693538837919  0.6195923950382606  1.0000
  H   H17       1.0  0.7400631123425327  0.504239516050788  0.1959579876742694  1.0000
  H   H18       1.0  0.2599397340126047  0.4957563257298079  0.8040433265890812  1.0000
  H   H19       1.0  0.7157919636431201  0.574096274573165  0.33935392395415687  1.0000
  H   H20       1.0  0.2842073952979972  0.42590060691309634  0.6606466084979488  1.0000
  H   H21       1.0  0.6539423157399185  0.7951868458580478  0.1840099111582774  1.0000
  H   H22       1.0  0.34605827619025586  0.20480795593648793  0.8159900167382689  1.0000
  H   H23       1.0  0.6960739113292503  0.7103085772775658  0.050263902877667056  1.0000
  H   H24       1.0  0.3039301703661436  0.28968518653060477  0.949735848896097  1.0000
  H   H25       1.0  0.9298681953397718  0.7126507405845147  0.4738992531063743  1.0000
  H   H26       1.0  0.07012447413219292  0.2873409332870409  0.5261004885507037  1.0000
  H   H27       1.0  0.016311912284564287  0.8738296705504356  0.46839432212472326  1.0000
  H   H28       1.0  0.9836784670351617  0.12616200802295205  0.5316018700458329  1.0000
  H   H29       1.0  0.9541965624890951  0.8422803297969566  0.3230670171944752  1.0000
  H   H30       1.0  0.0458030103563729  0.1577113540390798  0.6769299618456799  1.0000
  H   H31       1.0  0.32290718523467626  0.6991605089897207  0.9038531430367345  1.0000
  H   H32       1.0  0.6770885555986227  0.3008405290730352  0.09614969758532503  1.0000
  H   H33       1.0  0.4434590356297932  0.8114289973556552  0.9510149855364176  1.0000
  H   H34       1.0  0.556539014165331  0.18857204975955005  0.04898374109988882  1.0000
  H   H35       1.0  0.5224277078442512  0.6659647524507764  0.889646842435546  1.0000
  H   H36       1.0  0.47757117769684504  0.33404463262384354  0.11034593332667698  1.0000
  H   H37       1.0  0.2177150962736008  0.2016740145490132  0.1637874998583158  1.0000
  H   H38       1.0  0.7822889022112561  0.7983218300385249  0.8362127153461927  1.0000
  H   H39       1.0  0.054537751951826904  0.1250102353769265  0.2730419243127074  1.0000
  H   H40       1.0  0.9454696507365057  0.8749866502843276  0.7269595361337905  1.0000
  H   H41       1.0  0.8611040834266034  0.9609055833105559  0.08441058642520002  1.0000
  H   H42       1.0  0.13889646337150197  0.03909025629474171  0.9155910100877734  1.0000
  H   H43       1.0  0.714133320514847  0.9670546016563295  0.98170343760831  1.0000
  H   H44       1.0  0.2858684188426396  0.03294019950657661  0.01829730709746259  1.0000
  C   C1        1.0  0.36568911526517667  0.6241194869914681  0.41086806269996157  1.0000
  C   C2        1.0  0.6343134908631498  0.37588260400438867  0.5891308101194994  1.0000
  C   C3        1.0  0.3092467015949012  0.5304587843226473  0.3520782406114834  1.0000
  C   C4        1.0  0.690751186481549  0.46954642778986516  0.6479194970182505  1.0000
  C   C5        1.0  0.2297854807644057  0.5837101144346306  0.24205944171622926  1.0000
  C   C6        1.0  0.7702147092202764  0.416295101572473  0.7579370557298546  1.0000
  C   C7        1.0  0.2120613072093818  0.7281385445503548  0.19539051831482365  1.0000
  C   C8        1.0  0.7879364929541309  0.27186874490296026  0.8046095986137304  1.0000
  C   C9        1.0  0.2734675060233869  0.8130507017179058  0.26043430760639547  1.0000
  C   C10       1.0  0.726533783905346  0.18695554974903672  0.7395656331993692  1.0000
  C   C11       1.0  0.17922943055179985  0.4880088795726394  0.1673527661006844  1.0000
  C   C12       1.0  0.8207650368627667  0.5119952794311686  0.8326504318252929  1.0000
  C   C13       1.0  0.004861468313919201  0.3253434262200869  0.13888077816676514  1.0000
  C   C14       1.0  0.9951459748040818  0.6746524181918402  0.8611209295313815  1.0000
  C   C15       1.0  0.9292840753518873  0.45848373584718166  0.31472650877081776  1.0000
  C   C16       1.0  0.0707153193164984  0.5415121009511737  0.6852761868010049  1.0000
  C   C17       1.0  0.8003578549604667  0.5540495979637683  0.25643420466614947  1.0000
  C   C18       1.0  0.199642729916107  0.44594519867291643  0.7435685970324998  1.0000
  C   C19       1.0  0.7464858398750138  0.7682753742732373  0.10981535592080151  1.0000
  C   C20       1.0  0.2535171254179289  0.2317173420400921  0.8901876580315076  1.0000
  C   C21       1.0  0.7699820653358813  0.8868668365688137  0.4631373026890487  1.0000
  C   C22       1.0  0.230013815596017  0.11313109150024303  0.5368586162156674  1.0000
  C   C23       1.0  0.9287301096660983  0.8256848374389636  0.4319897859375672  1.0000
  C   C24       1.0  0.07126379984851637  0.17430476189872482  0.5680064773618483  1.0000
  C   C25       1.0  0.4533719367824887  0.8400486383822712  0.7386186598736728  1.0000
  C   C26       1.0  0.5466258586786238  0.15995864763247883  0.2613833729229498  1.0000
  C   C27       1.0  0.43344223739737936  0.7501291689521707  0.8795272401429771  1.0000
  C   C28       1.0  0.5665522417731879  0.2498749986480604  0.1204711681128359  1.0000
  C   C29       1.0  0.09398834498329478  0.1852325100903371  0.17084759846881784  1.0000
  C   C30       1.0  0.9060178247159882  0.8147664552626352  0.8291544665332466  1.0000
  C   C31       1.0  0.8120510124549511  0.9038062745947286  0.02398478054875852  1.0000
  C   C32       1.0  0.18795076498101074  0.0961874835995644  0.9760171693426899  1.0000
  N   N1        1.0  0.3486621306214559  0.7626644389020429  0.3666003515018802  1.0000
  N   N2        1.0  0.6513426086428282  0.23734181582786823  0.6333991659294539  1.0000
  N   N3        1.0  0.045386277309304994  0.4211923937329305  0.21304611578767657  1.0000
  N   N4        1.0  0.9546130317973507  0.5788055221255137  0.7869580011489177  1.0000
  O   O1        1.0  0.657804873605329  0.8246947629171688  0.4414425170928595  1.0000
  O   O2        1.0  0.34219215710508877  0.17530316623953723  0.5585532606870487  1.0000
  O   O3        1.0  0.760483170575803  0.9967519703245101  0.5057415039035007  1.0000
  O   O4        1.0  0.2395125984718902  0.003249088369671001  0.4942498415101539  1.0000
  O   O5        1.0  0.41071165455743136  0.7908405181297484  0.6485101791948154  1.0000
  O   O6        1.0  0.5892836819791752  0.20917093242628945  0.35149018891081607  1.0000
  O   O7        1.0  0.26649529189791826  0.4699996455237851  0.06723631825634871  1.0000
  O   O8        1.0  0.7335024701871263  0.5300086868981426  0.9327625934865226  1.0000
  O   O9        1.0  0.862612605364582  0.6815830012987192  0.1766526902564607  1.0000
  O   O10       1.0  0.13738916736897974  0.31841075345700903  0.8233511755030493  1.0000
  O   O11       1.0  0.06514596115994918  0.10568319283009943  0.08100036794608198  1.0000
  O   O12       1.0  0.9348602489689951  0.8943147312735462  0.9190019443076238  1.0000
  O   O13       1.0  0.5134270054064628  0.9579203224697252  0.7198617654448684  1.0000
  O   O14       1.0  0.48656722178129297  0.04209008574932941  0.2801389910372194  1.0000
