data_image0
_chemical_formula_structural       Cd2H12C16N24
_chemical_formula_sum              "Cd2 H12 C16 N24"
_cell_length_a       7.323431573398202
_cell_length_b       8.872527668814898
_cell_length_c       10.145193243276896
_cell_angle_alpha    81.43053095233017
_cell_angle_beta     68.839058593282
_cell_angle_gamma    65.6096500927272

_space_group_name_H-M_alt    "P 1"
_space_group_IT_number       1

loop_
  _space_group_symop_operation_xyz
  'x, y, z'

loop_
  _atom_site_type_symbol
  _atom_site_label
  _atom_site_symmetry_multiplicity
  _atom_site_fract_x
  _atom_site_fract_y
  _atom_site_fract_z
  _atom_site_occupancy
  Cd  Cd1       1.0  0.8319397779385016  0.999940921777913  2.9583968249527726e-05  1.0000
  Cd  Cd2       1.0  0.581853308441005  0.500007301236444  0.5000162725967812  1.0000
  H   H1        1.0  0.11221647660340753  0.6814821974777915  0.4446190322477647  1.0000
  H   H2        1.0  0.23830441061095098  0.31845327461243045  0.555532788859061  1.0000
  H   H3        1.0  0.3069192499317951  0.18150690949871523  0.055395774734144275  1.0000
  H   H4        1.0  0.5438482286521944  0.8185442988649996  0.9443530250066486  1.0000
  H   H5        1.0  0.29701324555387737  0.6465609102195417  0.00040659427774162086  1.0000
  H   H6        1.0  0.9438365845255207  0.35341559688219343  0.9997127946273634  1.0000
  H   H7        1.0  0.047217262254825816  0.14678442422231802  0.49959915487392675  1.0000
  H   H8        1.0  0.6935228520571783  0.8533745674066964  0.500194502366426  1.0000
  H   H9        1.0  0.7036383212988969  0.13458222865704533  0.3485900625821258  1.0000
  H   H10       1.0  0.1862993851950707  0.8653700383837943  0.6513989972382247  1.0000
  H   H11       1.0  0.802034189487216  0.6345659205634107  0.1516603482342375  1.0000
  H   H12       1.0  0.5879634174952246  0.36526574202947165  0.8485650538762285  1.0000
  C   C1        1.0  0.11297825976181747  0.7125254633275304  0.33676954162729084  1.0000
  C   C2        1.0  0.16214384490470493  0.2874107617074769  0.6633638589793092  1.0000
  C   C3        1.0  0.19974374739767603  0.21261507256825501  0.1632431021773186  1.0000
  C   C4        1.0  0.5755287096537318  0.7875074339692459  0.8365364432947046  1.0000
  C   C5        1.0  0.21057034782749884  0.6942160490703417  0.1073680590738633  1.0000
  C   C6        1.0  0.011930572365905383  0.3057712944073003  0.8927658731103064  1.0000
  C   C7        1.0  0.06778436661988968  0.1944106324922289  0.3926317259142848  1.0000
  C   C8        1.0  0.6547468704505663  0.8057605325696002  0.607149508353231  1.0000
  C   C9        1.0  0.621150125247951  0.231594340390707  0.28681161517586407  1.0000
  C   C10       1.0  0.13921002903858698  0.7683505941718566  0.7132174993144459  1.0000
  C   C11       1.0  0.6577596039578493  0.731578356078437  0.2133456841513066  1.0000
  C   C12       1.0  0.6026278150116868  0.26829300500113373  0.7867124163710172  1.0000
  C   C13       1.0  0.4201049116323361  0.4553180108847457  0.22321927951620069  1.0000
  C   C14       1.0  0.09849957556556889  0.5445902864494344  0.7769213380004486  1.0000
  C   C15       1.0  0.3931912599246771  0.9553717920861048  0.2768515673912191  1.0000
  C   C16       1.0  0.625446096869432  0.044612667454167414  0.7230182809210318  1.0000
  N   N1        1.0  0.9815951980916108  0.8467161783768234  0.2937579319284536  1.0000
  N   N2        1.0  0.1220024131599901  0.1532329182777232  0.7063891463455789  1.0000
  N   N3        1.0  0.025423170326824736  0.3468811039541251  0.20620753993878785  1.0000
  N   N4        1.0  0.5783591452088501  0.6533123136589866  0.7935580510390775  1.0000
  N   N5        1.0  0.04498050101080526  0.8347709518886645  0.14806840460288123  1.0000
  N   N6        1.0  0.027674646854876524  0.16521035294760372  0.8520809916575017  1.0000
  N   N7        1.0  0.9430059973979823  0.33499928945835217  0.35190053096343366  1.0000
  N   N8        1.0  0.6297580853289803  0.6652216289448702  0.6478784671172163  1.0000
  N   N9        1.0  0.2602527426360126  0.6130499302879927  0.22331289599795667  1.0000
  N   N10       1.0  0.09647941746737153  0.3869045657658959  0.776815393580591  1.0000
  N   N11       1.0  0.23343444873658115  0.11316284683168482  0.27670715543528956  1.0000
  N   N12       1.0  0.6232871357532446  0.8869284528344539  0.7230830218970893  1.0000
  N   N13       1.0  0.5224262957728313  0.36265159137283126  0.10747320144093916  1.0000
  N   N14       1.0  0.992463647216148  0.6372684232743211  0.8926698076005335  1.0000
  N   N15       1.0  0.3796271298991344  0.8628006478700173  0.39263010393829484  1.0000
  N   N16       1.0  0.6351114000140681  0.1373043290918972  0.6073036239272084  1.0000
  N   N17       1.0  0.6534797378447904  0.21702089309140857  0.15004149151248208  1.0000
  N   N18       1.0  0.02034948858038657  0.7829001968347598  0.8500358902504457  1.0000
  N   N19       1.0  0.5532299191147202  0.7171390949201423  0.3501396674333178  1.0000
  N   N20       1.0  0.6204560940406268  0.282905196749148  0.6499318918047763  1.0000
  N   N21       1.0  0.47363855631536467  0.38264892712042814  0.3390197795885753  1.0000
  N   N22       1.0  0.19493234519886463  0.6173000434404515  0.6610407418244646  1.0000
  N   N23       1.0  0.5625243472617354  0.8826359058596868  0.1610807114146908  1.0000
  N   N24       1.0  0.6061471459156569  0.11725185938087182  0.8388621241024193  1.0000
