data_image0
_chemical_formula_structural       Zn4H28C48N12O16
_chemical_formula_sum              "Zn4 H28 C48 N12 O16"
_cell_length_a       7.99591513381214
_cell_length_b       12.64748625684769
_cell_length_c       17.598024188978144
_cell_angle_alpha    111.05108328618672
_cell_angle_beta     105.40873696640078
_cell_angle_gamma    90.02516961759507

_space_group_name_H-M_alt    "P 1"
_space_group_IT_number       1

loop_
  _space_group_symop_operation_xyz
  'x, y, z'

loop_
  _atom_site_type_symbol
  _atom_site_label
  _atom_site_symmetry_multiplicity
  _atom_site_fract_x
  _atom_site_fract_y
  _atom_site_fract_z
  _atom_site_occupancy
  Zn  Zn1       1.0  0.4111066548941764  0.14865310029351517  0.3954640886789988  1.0000
  Zn  Zn2       1.0  0.08927039086776745  0.7530203124761029  0.6045128572327486  1.0000
  Zn  Zn3       1.0  0.5888841895151841  0.851346404246861  0.6045344873139555  1.0000
  Zn  Zn4       1.0  0.910728741997964  0.2469762054862414  0.3954870779635726  1.0000
  H   H1        1.0  0.10004495632061612  0.576863382101763  0.28480447152841754  1.0000
  H   H2        1.0  0.3999866919128934  0.2920250488838361  0.7149924306114528  1.0000
  H   H3        1.0  0.8999600056747497  0.4231392090611266  0.7151956637918531  1.0000
  H   H4        1.0  0.6000180184691786  0.7079770224590618  0.2850063198946202  1.0000
  H   H5        1.0  0.016097061384726895  0.7220729461661719  0.4073540811123806  1.0000
  H   H6        1.0  0.4841751508763039  0.3146742515847832  0.5924671133760953  1.0000
  H   H7        1.0  0.9839069210588178  0.2779259000328054  0.5926456883855025  1.0000
  H   H8        1.0  0.5158283756087202  0.6853270822233811  0.40753173605854454  1.0000
  H   H9        1.0  0.39868621251053343  0.2919122782542019  0.27985527707789976  1.0000
  H   H10       1.0  0.10135676605798238  0.0116776752886097  0.7200552206862554  1.0000
  H   H11       1.0  0.6013078233446408  0.7080908316767563  0.7201478328997055  1.0000
  H   H12       1.0  0.8986362666113338  0.9883199260538548  0.2799465986863937  1.0000
  H   H13       1.0  0.45297032716776897  0.2551977717662907  0.14016343020146851  1.0000
  H   H14       1.0  0.04688344612527833  0.1146496562867086  0.8596976037394131  1.0000
  H   H15       1.0  0.5470260076696648  0.7448062423729808  0.859838904519819  1.0000
  H   H16       1.0  0.9531088801492658  0.8853417635238116  0.14030396245910032  1.0000
  H   H17       1.0  0.4476918491099439  0.8976471131882847  0.10363192973099443  1.0000
  H   H18       1.0  0.0525084347137508  0.7937804341993839  0.8964967505295363  1.0000
  H   H19       1.0  0.5523158011046548  0.10235804372520362  0.8963699699455319  1.0000
  H   H20       1.0  0.9475134440729677  0.2062095980879448  0.10350459629638212  1.0000
  H   H21       1.0  0.3889844882211904  0.9496620114047474  0.24369247035666336  1.0000
  H   H22       1.0  0.11122936940980574  0.7056970657260423  0.7564072157230585  1.0000
  H   H23       1.0  0.6110100906807716  0.05033965469866788  0.7563066162656116  1.0000
  H   H24       1.0  0.8887877726116855  0.29429816574351253  0.24359247511380744  1.0000
  H   H25       1.0  0.4976025425741922  0.1265140975539012  0.011348286978389395  1.0000
  H   H26       1.0  0.0020282347640261014  0.11495848513646238  0.988337741092437  1.0000
  H   H27       1.0  0.5023881211239853  0.8734901780402424  0.9886516785480808  1.0000
  H   H28       1.0  0.9979717627506659  0.885029530358338  0.01166218466524071  1.0000
  C   C1        1.0  0.192707441377344  0.5459804845071474  0.49742374229855096  1.0000
  C   C2        1.0  0.30762236570451057  0.04841503309803846  0.5024474107406293  1.0000
  C   C3        1.0  0.8072874558594664  0.4540175522647871  0.5025751095885839  1.0000
  C   C4        1.0  0.6923739218648493  0.9515854537920702  0.49755307441552094  1.0000
  C   C5        1.0  0.22572098008452465  0.46158406887936115  0.42719777852470747  1.0000
  C   C6        1.0  0.2744992964381794  0.03426999273773399  0.5726843162408387  1.0000
  C   C7        1.0  0.7742771720523436  0.538416853440225  0.5727997391459284  1.0000
  C   C8        1.0  0.7255008396134174  0.9657320338131115  0.42731690956043183  1.0000
  C   C9        1.0  0.1224156654069546  0.5659333532767761  0.3453631221738078  1.0000
  C   C10       1.0  0.37770469841147053  0.22052199901429503  0.6544609889654468  1.0000
  C   C11       1.0  0.8775865631914005  0.43406786489894966  0.6546355961735771  1.0000
  C   C12       1.0  0.6222989656972188  0.779480476516163  0.34553901526757613  1.0000
  C   C13       1.0  0.07703150485496484  0.6472687718225814  0.41272515587059644  1.0000
  C   C14       1.0  0.4231910064200404  0.2344885302890631  0.5871020679403216  1.0000
  C   C15       1.0  0.9229685387507588  0.3527309202425357  0.5872745677489206  1.0000
  C   C16       1.0  0.5768100834590583  0.7655107575884941  0.41289640195224564  1.0000
  C   C17       1.0  0.2417339130098242  0.5424620023721118  0.5858400951886367  1.0000
  C   C18       1.0  0.25892105389601744  0.9564688472214585  0.4140427224239148  1.0000
  C   C19       1.0  0.758255906669916  0.457534949967794  0.41415846236531456  1.0000
  C   C20       1.0  0.741075665997819  0.043527388434867434  0.5859577580129098  1.0000
  C   C21       1.0  0.28892573479229355  0.3495857710467263  0.4272893780024987  1.0000
  C   C22       1.0  0.21095584895651612  0.9222874928929627  0.5726888651930794  1.0000
  C   C23       1.0  0.7110839607009896  0.6504150502424721  0.5727081646550048  1.0000
  C   C24       1.0  0.7890392783498328  0.07771402008699375  0.4273126436741991  1.0000
  C   C25       1.0  0.40741128775186297  0.20556589852468923  0.23808607586088476  1.0000
  C   C26       1.0  0.09263624096168853  0.9671190678113248  0.7618483370771403  1.0000
  C   C27       1.0  0.592588689132306  0.7944379426918997  0.7619152673079556  1.0000
  C   C28       1.0  0.9073674479580873  0.032877022022574934  0.23815464364174946  1.0000
  C   C29       1.0  0.43812779866630797  0.18413573235579864  0.15995185376023363  1.0000
  C   C30       1.0  0.06184279546378242  0.02382919739888933  0.8399585864612434  1.0000
  C   C31       1.0  0.561868673794791  0.8158694235057664  0.840051635759437  1.0000
  C   C32       1.0  0.9381595031234438  0.9761644423168435  0.16004276098863812  1.0000
  C   C33       1.0  0.4543855191104171  0.07256829055206282  0.10836350646054882  1.0000
  C   C34       1.0  0.045648159462800215  0.9638933797950247  0.89159769557525  1.0000
  C   C35       1.0  0.5456104049462951  0.9274370184329541  0.891637560814111  1.0000
  C   C36       1.0  0.954358465108939  0.03609635558423459  0.10840404041705651  1.0000
  C   C37       1.0  0.43609759498033906  0.986302685111866  0.13945987731489148  1.0000
  C   C38       1.0  0.0640510616720746  0.8465667258623596  0.8606141147915666  1.0000
  C   C39       1.0  0.5639038862260009  0.01370298432058093  0.8605433291387783  1.0000
  C   C40       1.0  0.9359623222227782  0.1534245804195677  0.13938414063341753  1.0000
  C   C41       1.0  0.4038947431153659  0.013959363186344819  0.21742076578946273  1.0000
  C   C42       1.0  0.09626149276454042  0.7962331574111445  0.782631456684186  1.0000
  C   C43       1.0  0.5961062112303496  0.9860435029815376  0.7825787462532432  1.0000
  C   C44       1.0  0.9037495490605282  0.20376315743851592  0.21737011832900788  1.0000
  C   C45       1.0  0.48918094845165433  0.051150207813712704  0.027361572093134612  1.0000
  C   C46       1.0  0.01073750321756249  0.023650096720878377  0.9725438270575495  1.0000
  C   C47       1.0  0.5108096700687241  0.9488552605438656  0.9726387408167128  1.0000
  C   C48       1.0  0.9892624254852934  0.9763373479127819  0.02745552130093645  1.0000
  N   N1        1.0  0.1150658120100019  0.6363189157151581  0.48800793224214095  1.0000
  N   N2        1.0  0.385194075682982  0.14822771286765854  0.5118512464951266  1.0000
  N   N3        1.0  0.8849303831134919  0.3636792366892151  0.5119910507322487  1.0000
  N   N4        1.0  0.6148059915567784  0.8517737428220401  0.4881494019069592  1.0000
  N   N5        1.0  0.1935597664868425  0.4725421384495192  0.351542315251038  1.0000
  N   N6        1.0  0.3065304836726952  0.12093970085145136  0.6482953674227687  1.0000
  N   N7        1.0  0.8064436911863523  0.5274586244975054  0.648455956784403  1.0000
  N   N8        1.0  0.6934682856803889  0.8790616392058154  0.3517051498920695  1.0000
  N   N9        1.0  0.3901030032202825  0.1218930951643742  0.2665406401819936  1.0000
  N   N10       1.0  0.11000288301485744  0.8550193212324899  0.7334731810250333  1.0000
  N   N11       1.0  0.6098972704549794  0.8781100731087651  0.7334617404176599  1.0000
  N   N12       1.0  0.890002715650212  0.14497601126744533  0.2665264848249649  1.0000
  O   O1        1.0  0.20842003670535553  0.6294490094767937  0.6438241559701794  1.0000
  O   O2        1.0  0.2920105911954137  0.9856553574077722  0.3560804230405664  1.0000
  O   O3        1.0  0.7915639302107066  0.3705401060379927  0.3561732766772536  1.0000
  O   O4        1.0  0.7079884276806894  0.01434178245687437  0.6439192821399473  1.0000
  O   O5        1.0  0.3077558491054546  0.4573573919291149  0.5954050499055299  1.0000
  O   O6        1.0  0.19342030747564826  0.8616015273115992  0.404457440287267  1.0000
  O   O7        1.0  0.6922416869922259  0.5426349633316433  0.40459151982420855  1.0000
  O   O8        1.0  0.8065790554596222  0.13839846685876717  0.5955451518891977  1.0000
  O   O9        1.0  0.4468049402109102  0.3331192722503075  0.43362317177079035  1.0000
  O   O10       1.0  0.052970173943329334  0.8995314008793469  0.5662169004480901  1.0000
  O   O11       1.0  0.5531854665163748  0.6668831928197675  0.566368963341148  1.0000
  O   O12       1.0  0.9470228318246185  0.10046786614706349  0.43377974549016335  1.0000
  O   O13       1.0  0.17370945031864696  0.26720579282228135  0.4091968203592701  1.0000
  O   O14       1.0  0.32594871775244627  0.8580274440334749  0.5910256996162034  1.0000
  O   O15       1.0  0.8262905696530326  0.7327921356182472  0.5908019784776783  1.0000
  O   O16       1.0  0.6740467987908617  0.14197573048875972  0.4089783488636486  1.0000
