data_image0
_chemical_formula_structural       Zn4H68C78N20O16
_chemical_formula_sum              "Zn4 H68 C78 N20 O16"
_cell_length_a       11.844002905790033
_cell_length_b       11.906092219694616
_cell_length_c       24.333579236071955
_cell_angle_alpha    89.96829179701321
_cell_angle_beta     89.83764676777155
_cell_angle_gamma    89.8134228362291

_space_group_name_H-M_alt    "P 1"
_space_group_IT_number       1

loop_
  _space_group_symop_operation_xyz
  'x, y, z'

loop_
  _atom_site_type_symbol
  _atom_site_label
  _atom_site_symmetry_multiplicity
  _atom_site_fract_x
  _atom_site_fract_y
  _atom_site_fract_z
  _atom_site_occupancy
  Zn  Zn1       1.0  0.6153159859486195  0.5007523043321526  0.5001454798011482  1.0000
  Zn  Zn2       1.0  0.3860996004414686  0.5015716649430146  0.4997760488603832  1.0000
  Zn  Zn3       1.0  0.002392589317246099  0.8886998437576565  1.61230090753999e-05  1.0000
  Zn  Zn4       1.0  0.0046666608618224  0.11757834486017767  0.9998282576054862  1.0000
  H   H1        1.0  0.1809718140300092  0.5045154464965903  0.42538241564932383  1.0000
  H   H2        1.0  0.23258750132283265  0.4905965172909886  0.5930097770498081  1.0000
  H   H3        1.0  0.8202529268420019  0.5055642561244795  0.5745339419266955  1.0000
  H   H4        1.0  0.7688521653610176  0.4874927678662857  0.4070152245161438  1.0000
  H   H5        1.0  0.6805716662262428  0.1401590559576462  0.7189724674180413  1.0000
  H   H6        1.0  0.3268430121899328  0.8631824934209006  0.7184356168099058  1.0000
  H   H7        1.0  0.3652617215555906  0.17876879680455454  0.7797061542918585  1.0000
  H   H8        1.0  0.6424856367976517  0.8236617085997293  0.7804508627577604  1.0000
  H   H9        1.0  0.32857202931440094  0.079867213412264  0.6884628684973322  1.0000
  H   H10       1.0  0.6801351249010565  0.920626448898119  0.6891149369520664  1.0000
  H   H11       1.0  0.42293775010828927  0.8273807485342033  0.8096127201527923  1.0000
  H   H12       1.0  0.5819845420194125  0.1746325948999754  0.8100784438623451  1.0000
  H   H13       1.0  0.6786192343617896  0.8616962142214672  0.2817123909210579  1.0000
  H   H14       1.0  0.3247540796447552  0.14036777794094488  0.28072559660598984  1.0000
  H   H15       1.0  0.36349001479896254  0.825937084787796  0.21935399151379192  1.0000
  H   H16       1.0  0.6420062613529893  0.17845210331185507  0.22009202018942634  1.0000
  H   H17       1.0  0.3255861763272918  0.9237500749004894  0.3105327909048441  1.0000
  H   H18       1.0  0.6771129757534666  0.0808577148049565  0.3116962198993889  1.0000
  H   H19       1.0  0.4251147610836766  0.17643193352713374  0.189885788516456  1.0000
  H   H20       1.0  0.5817708610008622  0.8280392276244726  0.18996547578846903  1.0000
  H   H21       1.0  0.15986217565721716  0.32523098652875854  0.9956388461955115  1.0000
  H   H22       1.0  0.8166615216031301  0.2712936996029711  0.007022398980716101  1.0000
  H   H23       1.0  0.8502511000910997  0.6813042272741043  0.9961101544635299  1.0000
  H   H24       1.0  0.19309909889105367  0.735812299241992  0.0077202981713214  1.0000
  H   H25       1.0  0.9453140506450736  0.4203437154563829  0.3470970728401142  1.0000
  H   H26       1.0  0.0730216700773596  0.49262486946686573  0.36140524940991986  1.0000
  H   H27       1.0  0.9477603799103844  0.5681822555751167  0.3462247714071012  1.0000
  H   H28       1.0  0.05554047136157438  0.4226619860534412  0.653072856155788  1.0000
  H   H29       1.0  0.9281139310534668  0.49599671320481775  0.6384434737653635  1.0000
  H   H30       1.0  0.05348112222014118  0.5705792293643485  0.6535474714752924  1.0000
  H   H31       1.0  0.3164017015998438  0.5476149061472739  0.9630698002422591  1.0000
  H   H32       1.0  0.2886934540341528  0.43488400069699645  0.0085858274403705  1.0000
  H   H33       1.0  0.32060675611990763  0.5703115419004305  0.03493087139347751  1.0000
  H   H34       1.0  0.693286031013933  0.45837609439011817  0.9639164700622445  1.0000
  H   H35       1.0  0.7220103894221522  0.5728212392484906  0.008099394222469402  1.0000
  H   H36       1.0  0.6901687476402997  0.4386323117879343  0.0360486665061899  1.0000
  H   H37       1.0  0.29747819539473846  0.6676484113694698  0.6083274781800228  1.0000
  H   H38       1.0  0.2305915829302947  0.7530806814231639  0.6572121393108716  1.0000
  H   H39       1.0  0.6985169882721889  0.7270139566243045  0.5773068157973569  1.0000
  H   H40       1.0  0.7642519454043181  0.8325537066216101  0.6151348857700328  1.0000
  H   H41       1.0  0.8571270926281257  0.7981135267660875  0.8826257983490822  1.0000
  H   H42       1.0  0.7851952417864823  0.7360412648506054  0.8277960261546228  1.0000
  H   H43       1.0  0.7756270879223519  0.1921999142594828  0.9220633132683461  1.0000
  H   H44       1.0  0.6699955125172607  0.2588929227031116  0.8832134547959216  1.0000
  H   H45       1.0  0.7092226691961301  0.3414890897682241  0.6106848404039127  1.0000
  H   H46       1.0  0.7770226875869781  0.2558902871523543  0.6595873563761716  1.0000
  H   H47       1.0  0.3104261730833712  0.27440341151186937  0.5772066891800521  1.0000
  H   H48       1.0  0.2456128699475215  0.1675054700758523  0.6144101738465225  1.0000
  H   H49       1.0  0.14924949550336916  0.20609611155407487  0.8816316696901154  1.0000
  H   H50       1.0  0.2221465743373017  0.2672201225276964  0.8266105293897398  1.0000
  H   H51       1.0  0.22757046330418254  0.8112591155264112  0.9214853673038166  1.0000
  H   H52       1.0  0.3319768745425407  0.7432013827038162  0.8822136607752712  1.0000
  H   H53       1.0  0.2929468016862415  0.33918829924925115  0.3899184473069469  1.0000
  H   H54       1.0  0.2263638096470757  0.254309029485313  0.3405622466202658  1.0000
  H   H55       1.0  0.6919975236583153  0.2731468944986942  0.4238687603774736  1.0000
  H   H56       1.0  0.758454059546551  0.1675527392382605  0.38621849778181894  1.0000
  H   H57       1.0  0.8574805153225779  0.20355931263097918  0.11789901598796601  1.0000
  H   H58       1.0  0.7850125555586586  0.26536618303908444  0.17274797646188486  1.0000
  H   H59       1.0  0.7738680254218763  0.8109082499235001  0.0768024698864807  1.0000
  H   H60       1.0  0.6689338134491009  0.7442661272808664  0.1161144859792458  1.0000
  H   H61       1.0  0.7050632225441618  0.6638598987014319  0.39128734946894644  1.0000
  H   H62       1.0  0.7733777866568302  0.7494964329306697  0.34311460053216797  1.0000
  H   H63       1.0  0.3041593659994106  0.728048469740699  0.42136514284016613  1.0000
  H   H64       1.0  0.23994542526109797  0.8356307015059556  0.3839384589591576  1.0000
  H   H65       1.0  0.14784099726378488  0.8029139208470326  0.11784860684498713  1.0000
  H   H66       1.0  0.2200070580054856  0.7403010601372131  0.1723735447513448  1.0000
  H   H67       1.0  0.23245429370854248  0.19569167469223456  0.0774113558779845  1.0000
  H   H68       1.0  0.3371974342184743  0.2619428691682089  0.1167869199511244  1.0000
  C   C1        1.0  0.5016142089416961  0.6534877821282308  0.420478896796027  1.0000
  C   C2        1.0  0.49370983517427186  0.34711795179062926  0.42158159897523734  1.0000
  C   C3        1.0  0.5080697981827171  0.34912253588925063  0.5793852938503363  1.0000
  C   C4        1.0  0.5004752311349988  0.6553295789524042  0.5784288916753297  1.0000
  C   C5        1.0  0.15823874111276837  0.999749645704412  0.078373624406197  1.0000
  C   C6        1.0  0.15810338966985424  0.009810868215083698  0.9214263706225196  1.0000
  C   C7        1.0  0.8483297515258456  0.994912483149278  0.9215723012202802  1.0000
  C   C8        1.0  0.8480476152404604  0.006939327090577801  0.07822782700370111  1.0000
  C   C9        1.0  0.14154745523305218  0.5009695567443159  0.46589253724111057  1.0000
  C   C10       1.0  0.16932647116379937  0.4952378290581193  0.560570660272525  1.0000
  C   C11       1.0  0.05517138980915348  0.49749257394356755  0.5728245298755185  1.0000
  C   C12       1.0  0.9786588642899188  0.49964252491042055  0.5275660956931106  1.0000
  C   C13       1.0  0.8597540168967298  0.5011066708562595  0.534059189607305  1.0000
  C   C14       1.0  0.8320643812320296  0.493159647987511  0.4394198053588738  1.0000
  C   C15       1.0  0.9461697502166613  0.4957973627599301  0.4271449157512208  1.0000
  C   C16       1.0  0.022662506554176804  0.49918661089588307  0.4723897819636846  1.0000
  C   C17       1.0  0.5038218494418699  0.0009900947732362  0.7491036805347165  1.0000
  C   C18       1.0  0.40288875233775195  0.0025033642183772  0.7891761431322167  1.0000
  C   C19       1.0  0.6038779809928768  0.9998410053804676  0.7895118982490956  1.0000
  C   C20       1.0  0.5038103758628906  0.9008527008167418  0.7091356331574518  1.0000
  C   C21       1.0  0.5042958857891833  0.10105650400571159  0.7090252780133285  1.0000
  C   C22       1.0  0.6030826595472405  0.15860243843295754  0.6966310861230482  1.0000
  C   C23       1.0  0.4047194027118977  0.8443676167781928  0.6962787152932464  1.0000
  C   C24       1.0  0.3462116522810845  0.10173235028067037  0.8020214354128968  1.0000
  C   C25       1.0  0.6608870612843915  0.9009587445740619  0.8025995600588446  1.0000
  C   C26       1.0  0.6057540106007478  0.2408066920600973  0.6551913882103478  1.0000
  C   C27       1.0  0.4020634616568798  0.7633162197308464  0.6544101702302925  1.0000
  C   C28       1.0  0.2664059379973621  0.10611095453652547  0.8448396080609726  1.0000
  C   C29       1.0  0.740053239789944  0.897158428278864  0.845543328005185  1.0000
  C   C30       1.0  0.5056867194208436  0.2677372197913428  0.6247995604078795  1.0000
  C   C31       1.0  0.5025132073685439  0.7358072707040149  0.6242058842635815  1.0000
  C   C32       1.0  0.23977372316275583  0.007090623118088498  0.8757993794571562  1.0000
  C   C33       1.0  0.766062035548316  0.9965156357440675  0.8762985626510373  1.0000
  C   C34       1.0  0.40432773545840206  0.2082510688778001  0.638753841566775  1.0000
  C   C35       1.0  0.6042306302633306  0.7937715420105247  0.6387412490182172  1.0000
  C   C36       1.0  0.29701625081654015  0.9051092319450688  0.8607533675590346  1.0000
  C   C37       1.0  0.7077454216769326  0.09784442140683319  0.8613162370714988  1.0000
  C   C38       1.0  0.4059870324702146  0.12604228668380557  0.6798839409856399  1.0000
  C   C39       1.0  0.6024925264491541  0.8752945510755907  0.6802164531563832  1.0000
  C   C40       1.0  0.3778419154901229  0.905215623364519  0.8186037354117204  1.0000
  C   C41       1.0  0.6275793595090136  0.09713432746158192  0.8190802191717381  1.0000
  C   C42       1.0  0.5025104330432767  0.0019312085597462999  0.25077996208007397  1.0000
  C   C43       1.0  0.4026187767477508  0.0017848796229457996  0.21029843225130662  1.0000
  C   C44       1.0  0.6034803645460797  0.0025907760364916  0.2106952457881306  1.0000
  C   C45       1.0  0.5013694500212436  0.1018115198012381  0.2908680995466142  1.0000
  C   C46       1.0  0.5018596699079154  0.901672141916734  0.290745230620118  1.0000
  C   C47       1.0  0.6004065002478143  0.8436614463252851  0.3036565655239869  1.0000
  C   C48       1.0  0.4018693254649363  0.15880677470130417  0.3032591581363917  1.0000
  C   C49       1.0  0.3453757835017725  0.9034457107170935  0.1971792790197568  1.0000
  C   C50       1.0  0.6605927183806698  0.10124472622590729  0.19774421157739402  1.0000
  C   C51       1.0  0.601967413931149  0.7618756567465679  0.34527348538561137  1.0000
  C   C52       1.0  0.3978151696245859  0.24003700190075958  0.3450609806700413  1.0000
  C   C53       1.0  0.2661288736710076  0.900621728106479  0.15431052830004433  1.0000
  C   C54       1.0  0.7397956324722654  0.10487437781498697  0.1546472885792554  1.0000
  C   C55       1.0  0.5009458453201246  0.7351234345984423  0.37510497334218235  1.0000
  C   C56       1.0  0.4973091606872868  0.2666872953429191  0.37580487349338654  1.0000
  C   C57       1.0  0.24053023265879145  0.0003379767090976  0.12360790218468762  1.0000
  C   C58       1.0  0.765749511049421  0.0056093092185705  0.1236555353791005  1.0000
  C   C59       1.0  0.3999212152008909  0.7949239508939313  0.36058489938133687  1.0000
  C   C60       1.0  0.5994872171572821  0.20805246178036185  0.3617651225605557  1.0000
  C   C61       1.0  0.299152835848382  0.10111294463690969  0.13854720668315681  1.0000
  C   C62       1.0  0.7074339508847912  0.9044449916611724  0.13849251021185444  1.0000
  C   C63       1.0  0.40279901723310013  0.8772041217020288  0.31945119874043126  1.0000
  C   C64       1.0  0.5991615542759374  0.1266360969209757  0.32026686355943224  1.0000
  C   C65       1.0  0.379223488305982  0.0994620905459627  0.1808227350458509  1.0000
  C   C66       1.0  0.6274170752903031  0.9052914374252338  0.1809978647877983  1.0000
  C   C67       1.0  0.07634939804414388  0.3635725545460389  0.9984498016288725  1.0000
  C   C68       1.0  0.8826590788209855  0.3345585023331097  0.0032409868842009013  1.0000
  C   C69       1.0  0.8565700399826426  0.4477886325779962  0.0016967648968915004  1.0000
  C   C70       1.0  0.9484409547110599  0.5248822476977183  0.9997785634160011  1.0000
  C   C71       1.0  0.9337942115100191  0.6431188924526977  0.998840831633089  1.0000
  C   C72       1.0  0.12729709383560817  0.6724510106457656  0.0036959570243766  1.0000
  C   C73       1.0  0.1536329531963503  0.5592650504211035  0.0017538727169679005  1.0000
  C   C74       1.0  0.06193084994855979  0.48190723870502683  0.99966651947738  1.0000
  C   C75       1.0  0.9815159389085577  0.4940602493081982  0.36770155467151266  1.0000
  C   C76       1.0  0.019649110296654698  0.4965537122291862  0.6322504920372156  1.0000
  C   C77       1.0  0.27585750442980833  0.525024948544683  0.0022740612594490004  1.0000
  C   C78       1.0  0.7344610666161983  0.4824233436964036  0.0026171096392318006  1.0000
  N   N1        1.0  0.21111068206446493  0.4987671899097066  0.5084586741570476  1.0000
  N   N2        1.0  0.79024903800029  0.497622852897173  0.49150544136316654  1.0000
  N   N3        1.0  0.9897507728961442  0.29337891451581294  0.00046740136082240016  1.0000
  N   N4        1.0  0.02013605735072589  0.713445054892304  0.0010093179937201  1.0000
  N   N5        1.0  0.30036939551889924  0.711346047027156  0.6442906611627208  1.0000
  N   N6        1.0  0.7059475085212695  0.770667023444588  0.6132196079138836  1.0000
  N   N7        1.0  0.7878417119860257  0.7945755976691444  0.8579143931246309  1.0000
  N   N8        1.0  0.7298672356436171  0.19855414050858397  0.8867787764402737  1.0000
  N   N9        1.0  0.7065076818220816  0.29471644658679  0.6457658274590728  1.0000
  N   N10       1.0  0.3026308336238158  0.23070992920196426  0.6131221436667574  1.0000
  N   N11       1.0  0.21876220398969784  0.20895909615017413  0.8568745427463753  1.0000
  N   N12       1.0  0.2731450085630767  0.8045072018557988  0.886043168296034  1.0000
  N   N13       1.0  0.2963704315157684  0.29320681061710724  0.35461880019945374  1.0000
  N   N14       1.0  0.7006926964175193  0.23043679673406103  0.38771970440809167  1.0000
  N   N15       1.0  0.7874343056659326  0.20748661475744967  0.1422851113719119  1.0000
  N   N16       1.0  0.7291412741121875  0.8039312733990086  0.11252338440145589  1.0000
  N   N17       1.0  0.7031284256976844  0.7082968356698345  0.35549738578575335  1.0000
  N   N18       1.0  0.2977226804277036  0.7728668788116053  0.38571865817727513  1.0000
  N   N19       1.0  0.21803833833165948  0.7982872330511412  0.14191893927792174  1.0000
  N   N20       1.0  0.27741961323815895  0.2019792382689687  0.1129671604594833  1.0000
  O   O1        1.0  0.5943916657700611  0.6023415976101631  0.43252260397250814  1.0000
  O   O2        1.0  0.40992868179100844  0.6348555772205485  0.4477106580825351  1.0000
  O   O3        1.0  0.39972812028423016  0.39681558770561043  0.43352889392249955  1.0000
  O   O4        1.0  0.5841396051536661  0.36608408659694897  0.4493407654013026  1.0000
  O   O5        1.0  0.4171750842847501  0.36867007281775693  0.5519925771358558  1.0000
  O   O6        1.0  0.6016287681835236  0.3990072126609262  0.5673779882897492  1.0000
  O   O7        1.0  0.5916162547760421  0.6361779291447149  0.5507688550422217  1.0000
  O   O8        1.0  0.4071746231067193  0.6057217363544538  0.5664089822305698  1.0000
  O   O9        1.0  0.10379075247423937  0.9086685611525167  0.0678280619957619  1.0000
  O   O10       1.0  0.1418326724309651  0.0899773944331841  0.050019011640706906  1.0000
  O   O11       1.0  0.104791280056034  0.1021434595175279  0.9320088698351301  1.0000
  O   O12       1.0  0.1410786972055362  0.9204982835659052  0.9502523488904019  1.0000
  O   O13       1.0  0.8656994073022587  0.08479054575786898  0.9498566917385605  1.0000
  O   O14       1.0  0.9020172006888814  0.9028536266301969  0.9322576031651124  1.0000
  O   O15       1.0  0.864891225176315  0.9168335695237246  0.04986904352489321  1.0000
  O   O16       1.0  0.9020305268601446  0.0983480406822039  0.0674938214358534  1.0000
