data_image0
_chemical_formula_structural       Cd2H32C24N4O18
_chemical_formula_sum              "Cd2 H32 C24 N4 O18"
_cell_length_a       4.987324483275232
_cell_length_b       4.987313852570789
_cell_length_c       30.41968426484149
_cell_angle_alpha    90.00062575116769
_cell_angle_beta     90.00080405520669
_cell_angle_gamma    88.01370572189295

_space_group_name_H-M_alt    "P 1"
_space_group_IT_number       1

loop_
  _space_group_symop_operation_xyz
  'x, y, z'

loop_
  _atom_site_type_symbol
  _atom_site_label
  _atom_site_symmetry_multiplicity
  _atom_site_fract_x
  _atom_site_fract_y
  _atom_site_fract_z
  _atom_site_occupancy
  Cd  Cd1       1.0  0.755785113463311  0.2441791139434386  0.7499969442583277  1.0000
  Cd  Cd2       1.0  0.24418496369367662  0.7558243972727469  0.2500022539170743  1.0000
  H   H1        1.0  0.9173186015583498  0.6849842366891892  0.6932700918497048  1.0000
  H   H2        1.0  0.08266501049006791  0.31500902308494005  0.1932690199722842  1.0000
  H   H3        1.0  0.3149792956848358  0.08266061058300521  0.8067294045388351  1.0000
  H   H4        1.0  0.6849931806355798  0.917349817410866  0.3067311948828433  1.0000
  H   H5        1.0  0.09051807760867801  0.39727629818700905  0.679807409971076  1.0000
  H   H6        1.0  0.9094664962109602  0.6027208408350475  0.17980834545211621  1.0000
  H   H7        1.0  0.6026988839778865  0.9094559444152067  0.8201921009683204  1.0000
  H   H8        1.0  0.3972893448120232  0.09056326426245684  0.3201925122413272  1.0000
  H   H9        1.0  0.27071760987596594  0.5534849429899112  0.7326630738848081  1.0000
  H   H10       1.0  0.7292658903833313  0.4465202375808488  0.23266219430797008  1.0000
  H   H11       1.0  0.44648615576937106  0.7292653475009844  0.7673341060006749  1.0000
  H   H12       1.0  0.5534889230919688  0.27074298886167014  0.26733606347373506  1.0000
  H   H13       1.0  0.7528503504187896  0.802417203213423  0.6151610993407602  1.0000
  H   H14       1.0  0.24712970642327292  0.19751057769465066  0.1151590998142353  1.0000
  H   H15       1.0  0.19753604497908134  0.2471671638439688  0.8848348036158598  1.0000
  H   H16       1.0  0.8025351019819739  0.7528787375569054  0.38484668063048844  1.0000
  H   H17       1.0  0.5782723185025703  0.5576553277220172  0.6450431402440842  1.0000
  H   H18       1.0  0.42169151089002105  0.4423189746439675  0.1450393491576136  1.0000
  H   H19       1.0  0.44230041667117354  0.4217269069323423  0.8549553051241574  1.0000
  H   H20       1.0  0.5577268328852654  0.5783597886736515  0.3549704635860209  1.0000
  H   H21       1.0  0.9026058841690983  0.574649122426017  0.5596312359178768  1.0000
  H   H22       1.0  0.09739532302899788  0.4253323752923349  0.0596358708143043  1.0000
  H   H23       1.0  0.4253215038907144  0.09740152718634931  0.940364196371327  1.0000
  H   H24       1.0  0.574666318859343  0.9026359865789715  0.44037366775428666  1.0000
  H   H25       1.0  0.5702412834397066  0.5702608788483019  0.5000015303373786  1.0000
  H   H26       1.0  0.42971275342135584  0.429726591641341  3.67490265799999e-07  1.0000
  H   H27       1.0  0.26028972084948526  0.2602474881481456  0.5000005324230514  1.0000
  H   H28       1.0  0.7397266066022893  0.7397314058055786  0.9999989246940258  1.0000
  H   H29       1.0  0.30407086827028  0.5662603769087226  0.5875989749543892  1.0000
  H   H30       1.0  0.6959150037162162  0.43371880926198264  0.0875967202613879  1.0000
  H   H31       1.0  0.4337179898480059  0.695945066323013  0.9123985079228092  1.0000
  H   H32       1.0  0.5663049134597601  0.3040870908064193  0.41240485044914277  1.0000
  C   C1        1.0  0.5293492160055565  0.9608739746339408  0.6686130825379805  1.0000
  C   C2        1.0  0.47067922007361307  0.03912214752941881  0.1686115790491272  1.0000
  C   C3        1.0  0.0391025383827213  0.4706712213453201  0.8313852689031194  1.0000
  C   C4        1.0  0.9609041445607788  0.5293478277341919  0.3313901092075753  1.0000
  C   C5        1.0  0.5595781343492945  0.7598803470724462  0.630789523923518  1.0000
  C   C6        1.0  0.4404002668553559  0.24009445397436474  0.1307867523751014  1.0000
  C   C7        1.0  0.2400864572650505  0.4404376168152667  0.8692085393103355  1.0000
  C   C8        1.0  0.7599625381058033  0.5596094195377079  0.3692181827111867  1.0000
  C   C9        1.0  0.292849944865452  0.9683618127801096  0.5718961997459147  1.0000
  C   C10       1.0  0.7071432183457205  0.03160398785139047  0.07189285783462648  1.0000
  C   C11       1.0  0.0315939999609114  0.7071900485747805  0.9280991685391129  1.0000
  C   C12       1.0  0.9684039663057434  0.2928649933939127  0.428107211426827  1.0000
  C   C13       1.0  0.0987531610573456  0.9285174970429254  0.5350556351603046  1.0000
  C   C14       1.0  0.9012308337081407  0.07143190565518859  0.035054485439602  1.0000
  C   C15       1.0  0.07145328375081307  0.9012607325086819  0.964939925423721  1.0000
  C   C16       1.0  0.9285618226704956  0.0987678869649997  0.46494769272450753  1.0000
  C   C17       1.0  0.9095427888711074  0.7267990203811436  0.5339682481086925  1.0000
  C   C18       1.0  0.0904283981930689  0.27318524804213945  0.0339718959608319  1.0000
  C   C19       1.0  0.27319570407327387  0.09045345485373699  0.9660303237615224  1.0000
  C   C20       1.0  0.7268367057136303  0.9095499617845065  0.4660279283520552  1.0000
  C   C21       1.0  0.7219790613584537  0.7219971612419583  0.5000010602036156  1.0000
  C   C22       1.0  0.2779857757340665  0.27800546946201626  2.4812309647000005e-06  1.0000
  C   C23       1.0  0.1087299728162137  0.1087372701956468  0.5000013302575255  1.0000
  C   C24       1.0  0.8912903626006639  0.891241289970033  0.9999987843161904  1.0000
  N   N1        1.0  0.3470940756967594  0.7549284728540757  0.5984555705003061  1.0000
  N   N2        1.0  0.6529136338090852  0.24504013222442475  0.09845402526988069  1.0000
  N   N3        1.0  0.2450366346199929  0.6529233945671751  0.9015440663888867  1.0000
  N   N4        1.0  0.7549796822451214  0.34710201350870323  0.4015457201483271  1.0000
  O   O1        1.0  0.7433226557139747  0.9569159777335944  0.6933634725964524  1.0000
  O   O2        1.0  0.25669447546485463  0.04306247320907628  0.193362689082484  1.0000
  O   O3        1.0  0.04305620071784941  0.25668000451785383  0.8066342784807574  1.0000
  O   O4        1.0  0.9569283583788465  0.7433313957422459  0.3066369698217386  1.0000
  O   O5        1.0  0.32696911892556807  0.10772875750639341  0.67452577323931  1.0000
  O   O6        1.0  0.6730563781244072  0.8922834499501279  0.1745267560031394  1.0000
  O   O7        1.0  0.8922650511468008  0.6730431204996636  0.8254694657590065  1.0000
  O   O8        1.0  0.10775546766723922  0.3269770022182357  0.3254750860157998  1.0000
  O   O9        1.0  0.3991521384729709  0.18920803323744198  0.5773688762369744  1.0000
  O   O10       1.0  0.6008845384488879  0.8107397376814591  0.0773663829597737  1.0000
  O   O11       1.0  0.8107515326667709  0.6008728418499842  0.9226306479848319  1.0000
  O   O12       1.0  0.1892734568081096  0.3991200783654066  0.4226344613139474  1.0000
  O   O13       1.0  0.008956559387300403  0.5095965895361161  0.7031643655369848  1.0000
  O   O14       1.0  0.9910307587079855  0.49039333104236266  0.20316423506100278  1.0000
  O   O15       1.0  0.4903728981756713  0.991030263446198  0.7968367020315696  1.0000
  O   O16       1.0  0.5096080912721064  0.008986501182818098  0.29683736717889525  1.0000
  O   O17       1.0  0.4401874018745032  0.559807679911934  0.7499963514254375  1.0000
  O   O18       1.0  0.559802810920786  0.4401961605512668  0.2499975869315847  1.0000
