data_image0
_chemical_formula_structural       Zr2P8H36C16N4O32
_chemical_formula_sum              "Zr2 P8 H36 C16 N4 O32"
_cell_length_a       5.499170160733697
_cell_length_b       13.492411732476016
_cell_length_c       14.747858497050613
_cell_angle_alpha    89.9996927685898
_cell_angle_beta     90.0000680726155
_cell_angle_gamma    97.7434688447702

_space_group_name_H-M_alt    "P 1"
_space_group_IT_number       1

loop_
  _space_group_symop_operation_xyz
  'x, y, z'

loop_
  _atom_site_type_symbol
  _atom_site_label
  _atom_site_symmetry_multiplicity
  _atom_site_fract_x
  _atom_site_fract_y
  _atom_site_fract_z
  _atom_site_occupancy
  Zr  Zr1       1.0  0.5000011185262635  0.4999946062573031  0.5000016308268798  1.0000
  Zr  Zr2       1.0  0.999994214054226  2.375058819802405e-06  8.385820265700002e-06  1.0000
  P   P1        1.0  0.007980658847635911  0.4953001657829006  0.6478317966298733  1.0000
  P   P2        1.0  0.49200631047779086  0.0047009514526906  0.14782970919470276  1.0000
  P   P3        1.0  0.9920170442208159  0.5046987108909136  0.3521673966111791  1.0000
  P   P4        1.0  0.5079808794907095  0.9952993342673865  0.8521694840401893  1.0000
  P   P5        1.0  0.19861340510803424  0.2535183406462096  0.9407719319649317  1.0000
  P   P6        1.0  0.30138583087327936  0.24648494287888675  0.44077667073695903  1.0000
  P   P7        1.0  0.8013826871917472  0.746481269425786  0.05922793933842741  1.0000
  P   P8        1.0  0.6986168769078631  0.7535251658160576  0.5592211663480102  1.0000
  H   H1        1.0  0.46609304346515756  0.17652873878724057  0.8530021609505101  1.0000
  H   H2        1.0  0.033908060818632194  0.32346908811648933  0.3530097697445599  1.0000
  H   H3        1.0  0.5339024124719243  0.8234686277574708  0.1470017787456186  1.0000
  H   H4        1.0  0.9660973580548528  0.6765313419884365  0.6469894234945103  1.0000
  H   H5        1.0  0.7195408651676231  0.40165056582738157  0.7491384430036376  1.0000
  H   H6        1.0  0.7804512622737715  0.09834572309961231  0.24913916968186103  1.0000
  H   H7        1.0  0.2804592971574421  0.5983505687910764  0.2508641405550948  1.0000
  H   H8        1.0  0.21955352023577024  0.9016524634857177  0.7508613796917845  1.0000
  H   H9        1.0  0.9004676893972244  0.32320529832408335  0.6878857243557236  1.0000
  H   H10       1.0  0.599531547502039  0.17679736363275822  0.18788393230499173  1.0000
  H   H11       1.0  0.09952238407000644  0.6767987410235679  0.3121148249995471  1.0000
  H   H12       1.0  0.4004695892258923  0.8232007940794404  0.8121152609387252  1.0000
  H   H13       1.0  0.9797231875315756  0.22916238707452413  0.8012692218982665  1.0000
  H   H14       1.0  0.5202654281487041  0.27084029376655394  0.301268273675511  1.0000
  H   H15       1.0  0.020289860942192237  0.7708328803623348  0.19872658103294333  1.0000
  H   H16       1.0  0.4797515644320213  0.7291624664869686  0.6987302414960368  1.0000
  H   H17       1.0  0.8062560256461423  0.2872003033187838  0.8825018436650894  1.0000
  H   H18       1.0  0.6937393197409631  0.21279973158750917  0.3824965272018801  1.0000
  H   H19       1.0  0.19374125317833088  0.7127970776836178  0.11749531538597323  1.0000
  H   H20       1.0  0.3062731785732992  0.787200008430858  0.6175033441052308  1.0000
  H   H21       1.0  0.24696423575664284  0.3944847062365612  0.7895713322949476  1.0000
  H   H22       1.0  0.2530244743503615  0.1055148746360501  0.2895706531473152  1.0000
  H   H23       1.0  0.7530338915542245  0.6055156661182649  0.21042650481335565  1.0000
  H   H24       1.0  0.7469811566458873  0.8944863032997858  0.7104312523481227  1.0000
  H   H25       1.0  0.943023747764364  0.5266440177657258  0.8439987365933777  1.0000
  H   H26       1.0  0.5569602216934155  0.9733562016856749  0.34399746651617863  1.0000
  H   H27       1.0  0.056974929709120686  0.47335188198838557  0.15600181278449557  1.0000
  H   H28       1.0  0.44304540930127695  0.0266449762597603  0.6560010486565206  1.0000
  H   H29       1.0  0.9751203940536753  0.44494068254392255  0.9371439988183925  1.0000
  H   H30       1.0  0.5248707193117355  0.055056770402750005  0.43714481583796794  1.0000
  H   H31       1.0  0.024883539968847422  0.5550545126928199  0.0628545163689225  1.0000
  H   H32       1.0  0.47513588608799745  0.9449414306229897  0.5628550554715517  1.0000
  H   H33       1.0  0.5247850206596779  0.6249570026572898  0.9585316241510642  1.0000
  H   H34       1.0  0.9752136369778766  0.8750426834733817  0.45852902250199895  1.0000
  H   H35       1.0  0.47521624198906637  0.3750351867693381  0.04147299362406901  1.0000
  H   H36       1.0  0.0247976748095269  0.12495928562801592  0.5414688146055726  1.0000
  C   C1        1.0  0.9052817056944349  0.39332774452793007  0.7260571929846692  1.0000
  C   C2        1.0  0.5947052302307937  0.10667609577392771  0.22606253173102436  1.0000
  C   C3        1.0  0.09471620949833684  0.6066718799671802  0.2739481028354831  1.0000
  C   C4        1.0  0.40529116039837015  0.893330978216639  0.7739475105218574  1.0000
  C   C5        1.0  0.9900956071813737  0.2873843146403702  0.8536977070058143  1.0000
  C   C6        1.0  0.5098947932753218  0.2126113675301724  0.3536936560349275  1.0000
  C   C7        1.0  0.00990188376307095  0.7126138142102222  0.14629606172069032  1.0000
  C   C8        1.0  0.4901176188310855  0.7873816564082005  0.6462960443208348  1.0000
  C   C9        1.0  0.055112932667739825  0.4730873767090743  0.8726217888384442  1.0000
  C   C10       1.0  0.44489747646422734  0.026923843502082396  0.3726141417109262  1.0000
  C   C11       1.0  0.944897192596528  0.5269168214523177  0.1273821508441557  1.0000
  C   C12       1.0  0.5551187538323674  0.9730826415135712  0.6273816611928782  1.0000
  C   C13       1.0  0.31795780424462805  0.5219414413029568  0.8848818165740229  1.0000
  C   C14       1.0  0.18203198866443424  0.9780561714541562  0.3848832974159394  1.0000
  C   C15       1.0  0.6820431203602196  0.4780559685802573  0.11511398634878131  1.0000
  C   C16       1.0  0.8179630430283708  0.021939699421061196  0.6151179300256475  1.0000
  N   N1        1.0  0.0610452670409813  0.386578674682383  0.8084533693232034  1.0000
  N   N2        1.0  0.43893862807946954  0.11342299941920689  0.3084540991563359  1.0000
  N   N3        1.0  0.9389601518328161  0.6134217554206245  0.19154650198041173  1.0000
  N   N4        1.0  0.5610628069731689  0.8865826222403755  0.6915450940686868  1.0000
  O   O1        1.0  0.2599939724441072  0.4747594087438217  0.6117609112918174  1.0000
  O   O2        1.0  0.23999402440215073  0.025245652029958897  0.11175791698001802  1.0000
  O   O3        1.0  0.7400159406977024  0.5252440415847417  0.3882409941989665  1.0000
  O   O4        1.0  0.7599822282252331  0.9747545470476809  0.8882453446396569  1.0000
  O   O5        1.0  0.8046732865613818  0.47641143509633815  0.5754032217500367  1.0000
  O   O6        1.0  0.6953217771391776  0.0235903395170851  0.0754036038218615  1.0000
  O   O7        1.0  0.19531831147194365  0.5235851547404949  0.4245980056888855  1.0000
  O   O8        1.0  0.3046652007084275  0.9764091983605566  0.9245969455439538  1.0000
  O   O9        1.0  0.017787034410311337  0.5952256410112187  0.6958608939748032  1.0000
  O   O10       1.0  0.4821997878231271  0.904776005029305  0.19586357083923642  1.0000
  O   O11       1.0  0.9822024026917333  0.4047761548245177  0.3041382992568487  1.0000
  O   O12       1.0  0.5178013489057348  0.09522215267713113  0.8041376565981224  1.0000
  O   O13       1.0  0.2379493131440781  0.33199785556801226  0.013978881445147803  1.0000
  O   O14       1.0  0.26206135690007665  0.1679982393675417  0.5139807068074731  1.0000
  O   O15       1.0  0.7620536067582789  0.6680130009674343  0.9860182775734503  1.0000
  O   O16       1.0  0.7379452485008998  0.8319999616505099  0.4860218767602334  1.0000
  O   O17       1.0  0.4442599217385563  0.24384274689440846  0.8903904654504161  1.0000
  O   O18       1.0  0.0557291791735111  0.25616372676334725  0.3903963893368286  1.0000
  O   O19       1.0  0.5557339234292442  0.7561553530523284  0.10961279617891513  1.0000
  O   O20       1.0  0.944272467998779  0.7438426427463437  0.6095987354990839  1.0000
  O   O21       1.0  0.06741580195365769  0.15110674514392033  0.9705303755388217  1.0000
  O   O22       1.0  0.43259579731473247  0.3488949751883156  0.4705360209011787  1.0000
  O   O23       1.0  0.9325809267141095  0.8488951084227097  0.0294769544690823  1.0000
  O   O24       1.0  0.56742225587422  0.6511115242542967  0.5294638503903286  1.0000
  O   O25       1.0  0.4848718096204435  0.4931300291515797  0.8395641645971922  1.0000
  O   O26       1.0  0.015118219073826801  0.0068737555309184  0.33956725321919395  1.0000
  O   O27       1.0  0.5151198746139015  0.5068732768074896  0.1604323163730328  1.0000
  O   O28       1.0  0.984889784973049  0.9931229642580492  0.6604319400298523  1.0000
  O   O29       1.0  0.33904270494598876  0.593435800942885  0.9451202184439398  1.0000
  O   O30       1.0  0.1609337466160099  0.906559125996779  0.4451145895298582  1.0000
  O   O31       1.0  0.660958557699331  0.4065563885048675  0.05487694062116331  1.0000
  O   O32       1.0  0.8390453033028605  0.09343811062461072  0.5548812133879295  1.0000
