data_image0
_chemical_formula_structural       Mn4H28C56N12O32
_chemical_formula_sum              "Mn4 H28 C56 N12 O32"
_cell_length_a       7.500338380236882
_cell_length_b       16.05115533774209
_cell_length_c       16.051114464033724
_cell_angle_alpha    69.57582318159776
_cell_angle_beta     76.47084456780277
_cell_angle_gamma    76.47063445782042

_space_group_name_H-M_alt    "P 1"
_space_group_IT_number       1

loop_
  _space_group_symop_operation_xyz
  'x, y, z'

loop_
  _atom_site_type_symbol
  _atom_site_label
  _atom_site_symmetry_multiplicity
  _atom_site_fract_x
  _atom_site_fract_y
  _atom_site_fract_z
  _atom_site_occupancy
  Mn  Mn1       1.0  0.7391618438538217  0.4196597442416773  0.6179884568735544  1.0000
  Mn  Mn2       1.0  0.776593486391903  0.5803969237105163  0.3821883701145694  1.0000
  Mn  Mn3       1.0  0.23916380620423905  0.6179869531964427  0.4196617428581746  1.0000
  Mn  Mn4       1.0  0.27659295266522577  0.38218905836787803  0.5803972806643145  1.0000
  H   H1        1.0  0.26448755090223863  0.299754522529497  0.8583228916248017  1.0000
  H   H2        1.0  0.4225626919840908  0.7003591531809477  0.141611748873288  1.0000
  H   H3        1.0  0.7644856569723619  0.858321871797564  0.2997534252471894  1.0000
  H   H4        1.0  0.922561193594277  0.141610928114865  0.7003603678823465  1.0000
  H   H5        1.0  0.6848828407839849  0.4150867539371248  0.8832704812166555  1.0000
  H   H6        1.0  0.9837350827723412  0.584538506572194  0.1170985068576869  1.0000
  H   H7        1.0  0.18488212354754546  0.8832704873848057  0.4150886371033096  1.0000
  H   H8        1.0  0.48373290457109874  0.11709989424602442  0.5845382704753205  1.0000
  H   H9        1.0  0.6554602792994408  0.546345349328554  0.21420770208327158  1.0000
  H   H10       1.0  0.4162297935116686  0.45357815730490353  0.7858007927308391  1.0000
  H   H11       1.0  0.15546769337948527  0.21420853327133926  0.5463443891480607  1.0000
  H   H12       1.0  0.916229371321052  0.7857983488104805  0.4535784856638614  1.0000
  H   H13       1.0  0.848392597353282  0.4677035372648817  0.10629387005675987  1.0000
  H   H14       1.0  0.42254188451158836  0.5321028831696424  0.893761268131584  1.0000
  H   H15       1.0  0.34839553281682367  0.10629491516476008  0.4677035156422775  1.0000
  H   H16       1.0  0.9225432859268133  0.8937596903438421  0.5321021806136486  1.0000
  H   H17       1.0  0.7788307819707683  0.21121936961628748  0.30754207134313566  1.0000
  H   H18       1.0  0.2979166775636485  0.7886870180065698  0.6925679553352212  1.0000
  H   H19       1.0  0.2788307565019537  0.3075428999736616  0.2112186820853026  1.0000
  H   H20       1.0  0.7979108702469947  0.6925716781777425  0.7886870735867575  1.0000
  H   H21       1.0  0.5735857841019442  0.29053819546607673  0.4129179250670347  1.0000
  H   H22       1.0  0.27740370374621653  0.7094648216089398  0.5871557260768157  1.0000
  H   H23       1.0  0.07359059643028604  0.41291837441167434  0.29053802313294597  1.0000
  H   H24       1.0  0.7774001834627244  0.5871571834794551  0.7094668639138462  1.0000
  H   H25       1.0  0.04297168762738574  0.23684389676286347  0.1673617739897679  1.0000
  H   H26       1.0  0.44695102938251835  0.7630806726603153  0.8327579982392876  1.0000
  H   H27       1.0  0.5429744444525896  0.16735871655762932  0.23684459517689044  1.0000
  H   H28       1.0  0.9469534229169484  0.8327590854991342  0.7630794927787646  1.0000
  C   C1        1.0  0.9763960874671581  0.3608996649992662  0.858724526287645  1.0000
  C   C2        1.0  0.196287344138284  0.6389746841083338  0.1414144324485633  1.0000
  C   C3        1.0  0.47639642551902756  0.8587244741991995  0.36089960656152453  1.0000
  C   C4        1.0  0.6962883608841681  0.14141482413320003  0.6389730562425129  1.0000
  C   C5        1.0  0.13231598832940264  0.3170279318285836  0.8992405067405898  1.0000
  C   C6        1.0  0.3486565688833919  0.6829618453660872  0.1007934757674107  1.0000
  C   C7        1.0  0.6323162730061398  0.8992404156194526  0.3170273679465581  1.0000
  C   C8        1.0  0.8486567470963993  0.10079346871950884  0.6829599211884414  1.0000
  C   C9        1.0  0.12169800009206029  0.2931358527212852  0.9921710929510325  1.0000
  C   C10       1.0  0.4068848414283795  0.7068478416510331  0.0078514167076662  1.0000
  C   C11       1.0  0.6216944554758472  0.9921705164673752  0.293136463100879  1.0000
  C   C12       1.0  0.9068859824313193  0.00785161996449792  0.7068460952631809  1.0000
  C   C13       1.0  0.9524426047082457  0.31257837959011425  0.0511619155725853  1.0000
  C   C14       1.0  0.3161327867215959  0.687277064914632  0.9489527090596467  1.0000
  C   C15       1.0  0.45244083791158834  0.05116029933729036  0.3125779245381679  1.0000
  C   C16       1.0  0.8161310639464646  0.948954549502254  0.6872757977283328  1.0000
  C   C17       1.0  0.7979079718220915  0.3589789309000224  0.005707192643328101  1.0000
  C   C18       1.0  0.1627627415462385  0.6407595357757642  0.9945220018995472  1.0000
  C   C19       1.0  0.2979046909714783  0.0057070527182787765  0.3589789816135962  1.0000
  C   C20       1.0  0.662760944861148  0.9945225180706387  0.6407594205092123  1.0000
  C   C21       1.0  0.8095358699273376  0.38302943183171567  0.913223506484961  1.0000
  C   C22       1.0  0.10611130872609227  0.6167144241598094  0.08701971107202407  1.0000
  C   C23       1.0  0.30953454760214816  0.9132240537587607  0.38302985925943034  1.0000
  C   C24       1.0  0.6061088265695178  0.08702129924414952  0.6167131277097367  1.0000
  C   C25       1.0  0.9832293855162749  0.37949025368616407  0.760270833212715  1.0000
  C   C26       1.0  0.12349599146056517  0.6203675882976684  0.2398981679783887  1.0000
  C   C27       1.0  0.4832291198410988  0.760271171865817  0.37949122837979127  1.0000
  C   C28       1.0  0.6234970222530622  0.23989780634464336  0.6203669823655177  1.0000
  C   C29       1.0  0.6028390546419047  0.42316134470119954  0.3203318045769378  1.0000
  C   C30       1.0  0.34656400871895693  0.5768035829497933  0.6797200619249466  1.0000
  C   C31       1.0  0.10284478832483757  0.3203324975856603  0.4231610699614023  1.0000
  C   C32       1.0  0.8465627444098519  0.6797196931229196  0.5768051776074331  1.0000
  C   C33       1.0  0.6803024499526344  0.47292413002075057  0.2338346327335046  1.0000
  C   C34       1.0  0.38729972641185384  0.5269964797704391  0.7661990437389077  1.0000
  C   C35       1.0  0.1803084714283826  0.23383475069019255  0.4729236150373808  1.0000
  C   C36       1.0  0.8872982044265574  0.7661980575856546  0.5269968010536772  1.0000
  C   C37       1.0  0.7876923414139655  0.4290927064470224  0.1734173230554461  1.0000
  C   C38       1.0  0.3904355675081987  0.5707667565033885  0.8266457982238009  1.0000
  C   C39       1.0  0.28769475204947526  0.17341752655126186  0.4290928096235405  1.0000
  C   C40       1.0  0.8904353820602181  0.8266448203518025  0.5707660389278358  1.0000
  C   C41       1.0  0.8237414939664518  0.33443975582476776  0.2002167658637575  1.0000
  C   C42       1.0  0.35860238814837003  0.6654127703584721  0.7998771332343749  1.0000
  C   C43       1.0  0.32374077795683576  0.20021684309956805  0.3344399155172084  1.0000
  C   C44       1.0  0.8586006786674364  0.7998775431608394  0.6654119581175237  1.0000
  C   C45       1.0  0.7482016202685035  0.28442397309609646  0.2871069004910182  1.0000
  C   C46       1.0  0.3200620001339374  0.7154791791752971  0.712984051990631  1.0000
  C   C47       1.0  0.24820517032237888  0.28710722433525865  0.284423133319109  1.0000
  C   C48       1.0  0.8200580684806481  0.7129862583824721  0.7154804017547106  1.0000
  C   C49       1.0  0.6357057464419856  0.3287296021923395  0.3459365744014917  1.0000
  C   C50       1.0  0.31070797108774456  0.6712334759338887  0.6541282737135603  1.0000
  C   C51       1.0  0.1357113469369295  0.3459377093541463  0.32872857689015694  1.0000
  C   C52       1.0  0.8107056034855239  0.6541290657345938  0.6712358210936459  1.0000
  C   C53       1.0  0.48649570432535677  0.4697990436307009  0.383746323742308  1.0000
  C   C54       1.0  0.3400971273908557  0.5301819228564211  0.6163448921727692  1.0000
  C   C55       1.0  0.9864985714760622  0.383746349675789  0.4697987951756346  1.0000
  C   C56       1.0  0.8400954122154263  0.6163428978655786  0.5301843789021703  1.0000
  N   N1        1.0  0.29358745515455104  0.248928993972136  0.0267533454428417  1.0000
  N   N2        1.0  0.5688933401543115  0.751210330917722  0.9731382914226855  1.0000
  N   N3        1.0  0.7935867571814514  0.026752700369399827  0.2489293526794754  1.0000
  N   N4        1.0  0.06889284044830647  0.9731393695069883  0.7512097031822192  1.0000
  N   N5        1.0  0.6096236589281645  0.37141248240637026  0.0559743568118947  1.0000
  N   N6        1.0  0.03727163303470561  0.6281689381110812  0.94431983150978  1.0000
  N   N7        1.0  0.10961956402486814  0.055975453656437024  0.3714112807717243  1.0000
  N   N8        1.0  0.5372680677930999  0.9443212368399757  0.6281689666024873  1.0000
  N   N9        1.0  0.9431711990043683  0.289497075432827  0.141669089057487  1.0000
  N   N10       1.0  0.3742828282877397  0.7103656828199121  0.8584326451967215  1.0000
  N   N11       1.0  0.44317042434821025  0.1416682176957096  0.28949623215392956  1.0000
  N   N12       1.0  0.8742822197971525  0.8584335488590752  0.7103641502249687  1.0000
  O   O1        1.0  0.44331871936982725  0.25981075193640624  0.9743642425488089  1.0000
  O   O2        1.0  0.6772761935544552  0.7403852353632062  0.025404175529701  1.0000
  O   O3        1.0  0.9433174556622463  0.974364199764615  0.2598109875173051  1.0000
  O   O4        1.0  0.17727275748428895  0.02540302754900377  0.7403888976553149  1.0000
  O   O5        1.0  0.2830060519181287  0.2016837363476967  0.1079848729802038  1.0000
  O   O6        1.0  0.5919622541279492  0.798528972105359  0.8919242786509898  1.0000
  O   O7        1.0  0.7830012504761684  0.10798553869944524  0.2016850834680142  1.0000
  O   O8        1.0  0.091960920126539  0.8919240034587901  0.79852879187397  1.0000
  O   O9        1.0  0.5654128509173262  0.30873947135010127  0.12398395083446452  1.0000
  O   O10       1.0  0.997806688052897  0.6908688945251596  0.8764476652433262  1.0000
  O   O11       1.0  0.06541418605268493  0.12398834230492638  0.3087385327790813  1.0000
  O   O12       1.0  0.49780366866470194  0.8764475756583463  0.690871451842483  1.0000
  O   O13       1.0  0.501955370444179  0.4423797417364809  0.026358704029590303  1.0000
  O   O14       1.0  0.971673378844258  0.5570224427323822  0.9739039771568443  1.0000
  O   O15       1.0  0.001946452939670054  0.026359006871402416  0.4423744392583373  1.0000
  O   O16       1.0  0.4716706258779057  0.9739035073019624  0.5570234619516866  1.0000
  O   O17       1.0  0.8284901388535104  0.4119037091369505  0.731452470669737  1.0000
  O   O18       1.0  0.9721311386109264  0.588158129641826  0.2688160640570487  1.0000
  O   O19       1.0  0.32849277265586396  0.7314515753402729  0.4119039840163339  1.0000
  O   O20       1.0  0.4721313032923008  0.26881669760616933  0.5881577568144962  1.0000
  O   O21       1.0  0.1401525281589573  0.36140748257743377  0.7134905487329419  1.0000
  O   O22       1.0  0.21603641348690408  0.6382206882538598  0.2865969662346117  1.0000
  O   O23       1.0  0.6401529673805445  0.7134909756505863  0.36140933744374587  1.0000
  O   O24       1.0  0.7160371365461203  0.28659624849827026  0.6382209181145625  1.0000
  O   O25       1.0  0.5176957068628241  0.5476300574933718  0.3791614823384036  1.0000
  O   O26       1.0  0.4444211044537597  0.45229300065030037  0.620958433112115  1.0000
  O   O27       1.0  0.017695081480880528  0.37916184007763587  0.5476309121312964  1.0000
  O   O28       1.0  0.9444207372642597  0.6209543248524056  0.45229619199560733  1.0000
  O   O29       1.0  0.35109313457659386  0.4362357680042024  0.4394083018351225  1.0000
  O   O30       1.0  0.22679406192581544  0.5637721519888288  0.5606936800092086  1.0000
  O   O31       1.0  0.8510955269121611  0.4394080059499358  0.43623558917067123  1.0000
  O   O32       1.0  0.7267933345414764  0.5606925268780856  0.5637752052374194  1.0000
