data_image0
_chemical_formula_structural       Zn6H50C60N14O24
_chemical_formula_sum              "Zn6 H50 C60 N14 O24"
_cell_length_a       18.62908280987773
_cell_length_b       18.611028526544743
_cell_length_c       18.731771445730548
_cell_angle_alpha    109.84632919724874
_cell_angle_beta     109.34680126801078
_cell_angle_gamma    108.83308321252025

_space_group_name_H-M_alt    "P 1"
_space_group_IT_number       1

loop_
  _space_group_symop_operation_xyz
  'x, y, z'

loop_
  _atom_site_type_symbol
  _atom_site_label
  _atom_site_symmetry_multiplicity
  _atom_site_fract_x
  _atom_site_fract_y
  _atom_site_fract_z
  _atom_site_occupancy
  Zn  Zn1       1.0  0.9428749092033328  0.0033064093794692  0.4400954951741128  1.0000
  Zn  Zn2       1.0  0.06296236261025694  0.9939086517585664  0.5583259619088564  1.0000
  Zn  Zn3       1.0  0.06619638844875193  0.566604448804753  0.007259692988071595  1.0000
  Zn  Zn4       1.0  0.9380292214753749  0.4450043007795159  0.0036722298874563397  1.0000
  Zn  Zn5       1.0  0.5120749125459909  0.43444890178629686  0.4469123990214143  1.0000
  Zn  Zn6       1.0  0.4991074990845873  0.5606057871420232  0.5573259183332908  1.0000
  H   H1        1.0  0.08861941027815588  0.7255614783667284  0.3132104895050105  1.0000
  H   H2        1.0  0.7691107547828651  0.5894807800282608  0.4781558786012853  1.0000
  H   H3        1.0  0.5820211298700639  0.7390896799781926  0.546004387102407  1.0000
  H   H4        1.0  0.5712968542935214  0.820551619054882  0.5363462820789167  1.0000
  H   H5        1.0  0.7653618750974971  0.9244880279257188  0.44324300201098765  1.0000
  H   H6        1.0  0.6663595233939574  0.8421344430136983  0.3766561611552816  1.0000
  H   H7        1.0  0.7541853417308958  0.9109071859519916  0.5664388923241079  1.0000
  H   H8        1.0  0.1740967494983252  0.4508798351612314  0.9176796134834647  1.0000
  H   H9        1.0  0.21690842052903744  0.3883290227474632  0.87875037966419  1.0000
  H   H10       1.0  0.7970777725023339  0.2284347928260289  0.7172068646795324  1.0000
  H   H11       1.0  0.7408509415376584  0.032821538416286  0.5268494233398257  1.0000
  H   H12       1.0  0.12918348324377144  0.24647208456948988  0.7514059987228308  1.0000
  H   H13       1.0  0.7703065281485806  0.06984420702154638  0.6314286352242178  1.0000
  H   H14       1.0  0.8060075716635069  0.17491539892901642  0.5480460454404721  1.0000
  H   H15       1.0  0.9246963246944728  0.7044069933168231  0.2952405633500844  1.0000
  H   H16       1.0  0.41340860270761226  0.2244343101616266  0.525306255376087  1.0000
  H   H17       1.0  0.301683124916721  0.4482510755611884  0.5257038393937776  1.0000
  H   H18       1.0  0.20871341045960173  0.4407199599396634  0.4673933720864342  1.0000
  H   H19       1.0  0.06876577373623147  0.21108218184997438  0.4084376938528393  1.0000
  H   H20       1.0  0.023551428806328528  0.3196261698269041  0.10143018727747938  1.0000
  H   H21       1.0  0.06224857808823709  0.2799096193080288  0.16550853089866988  1.0000
  H   H22       1.0  0.2728937361733088  0.3318800298686355  0.29295818131648593  1.0000
  H   H23       1.0  0.8192670954772368  0.29635927382157223  0.6705635922498132  1.0000
  H   H24       1.0  0.17914624041444677  0.274126477198692  0.19726699610548346  1.0000
  H   H25       1.0  0.203027553008006  0.6979548206163741  0.24032156127093174  1.0000
  H   H26       1.0  0.21407677560954846  0.69183952068569  0.32845151536466227  1.0000
  H   H27       1.0  0.7933807045204445  0.61846852805472  0.12075255519284402  1.0000
  H   H28       1.0  0.81692854223688  0.6093359951235797  0.041640410227479704  1.0000
  H   H29       1.0  0.6290311094745888  0.4489008829742005  0.8771430952848932  1.0000
  H   H30       1.0  0.7252934589456642  0.44636234746981523  0.9204668810727271  1.0000
  H   H31       1.0  0.5985072073955421  0.503135906858489  0.7795800220650477  1.0000
  H   H32       1.0  0.8013230321104032  0.539425705915754  0.6344487336059218  1.0000
  H   H33       1.0  0.8474221976279138  0.6531461180351741  0.7093615610220992  1.0000
  H   H34       1.0  0.30687541439262134  0.1238610525916712  0.5452961028198616  1.0000
  H   H35       1.0  0.9611349170135383  0.5127875044228105  0.7839655075074036  1.0000
  H   H36       1.0  0.8700610268132108  0.4577352337937412  0.6901616074587054  1.0000
  H   H37       1.0  0.950194197295957  0.6416905188538921  0.8242741687425196  1.0000
  H   H38       1.0  0.8896847172868192  0.8126602762122418  0.07980129775330617  1.0000
  H   H39       1.0  0.9001957330293636  0.8791047769403164  0.17361144556525693  1.0000
  H   H40       1.0  0.07566265182983044  0.8408652077435547  0.1671153505881121  1.0000
  H   H41       1.0  0.2075921172601837  0.9259210500866003  0.3599763545530549  1.0000
  H   H42       1.0  0.15995695142115107  0.9391170130947517  0.4210484507047313  1.0000
  H   H43       1.0  0.969028987680389  0.7648340229656727  0.529828016134019  1.0000
  H   H44       1.0  0.9176379025843744  0.6604180780767877  0.5124541481197652  1.0000
  H   H45       1.0  0.1751318115407088  0.3004279380336001  0.37966804302657664  1.0000
  H   H46       1.0  0.5843227616955461  0.7493606136624964  0.41360472082789107  1.0000
  H   H47       1.0  0.1274789293904419  0.2964524248866525  0.5205028819142967  1.0000
  H   H48       1.0  0.3604367888107872  0.6983793692534803  0.4220626447152539  1.0000
  H   H49       1.0  0.4221701489741107  0.682700166099316  0.3685314074243775  1.0000
  H   H50       1.0  0.30904531820664966  0.6604856862331658  0.23468538424675237  1.0000
  C   C1        1.0  0.9097454461877632  0.8699946547082577  0.5120200866222575  1.0000
  C   C2        1.0  0.6916545229714329  0.7311608934699692  0.4827679366754509  1.0000
  C   C3        1.0  0.6385150116453813  0.7785929178778802  0.48072130604216307  1.0000
  C   C4        1.0  0.9762956052704007  0.8902827067746414  0.34965350216122437  1.0000
  C   C5        1.0  0.7215616392593062  0.8575471809418219  0.4985868486885749  1.0000
  C   C6        1.0  0.9195117874682521  0.20337753966519045  0.6628827795003573  1.0000
  C   C7        1.0  0.9913017106852279  0.1913592031080924  0.6695173581343852  1.0000
  C   C8        1.0  0.072398797405306  0.2548903229903701  0.7446862123072934  1.0000
  C   C9        1.0  0.08356281408449454  0.32970056442648843  0.811108081545747  1.0000
  C   C10       1.0  0.008954646881797044  0.338691385606374  0.8054272858082356  1.0000
  C   C11       1.0  0.9291000184005469  0.27390182614687575  0.7307323423515869  1.0000
  C   C12       1.0  0.04079295145454859  0.8098962494546598  0.19454213620272037  1.0000
  C   C13       1.0  0.8336262757142946  0.24871940602982084  0.6856961893060785  1.0000
  C   C14       1.0  0.8207873192711401  0.16834955737846968  0.6067118572501613  1.0000
  C   C15       1.0  0.1977133864086937  0.2264567547137588  0.4877994505636494  1.0000
  C   C16       1.0  0.14652989872232067  0.1068787593622815  0.5209125433166902  1.0000
  C   C17       1.0  0.21298818069458747  0.1676121822391536  0.5122561190082565  1.0000
  C   C18       1.0  0.2926938466374764  0.1689896670974846  0.5261909633722439  1.0000
  C   C19       1.0  0.35292900840035907  0.22592456453417498  0.5152892755625588  1.0000
  C   C20       1.0  0.3378733092094137  0.28703043224560076  0.49336328193587786  1.0000
  C   C21       1.0  0.2588027234521206  0.28489850707332204  0.47953194070353794  1.0000
  C   C22       1.0  0.20100002355887628  0.3227987667786962  0.4501332550237721  1.0000
  C   C23       1.0  0.07651887172497848  0.8436827747229572  0.29442620782533874  1.0000
  C   C24       1.0  0.13393782877996324  0.2596777645312258  0.4653119436467605  1.0000
  C   C25       1.0  0.09073657134232598  0.4717139544845921  0.11537686699642076  1.0000
  C   C26       1.0  0.027818730397662278  0.6488910505853626  0.12080962775715426  1.0000
  C   C27       1.0  0.8630391412620709  0.500338334782029  0.9041052699066796  1.0000
  C   C28       1.0  0.9857228997798584  0.11683313567189658  0.6004758803160541  1.0000
  C   C29       1.0  0.014022224258461339  0.40871553157300167  0.8781508250385598  1.0000
  C   C30       1.0  0.618857972490062  0.5437328406657544  0.6571815019054413  1.0000
  C   C31       1.0  0.6201863844233839  0.5856083613352681  0.47302840258504375  1.0000
  C   C32       1.0  0.37327479693504984  0.496214498664756  0.3952801201763521  1.0000
  C   C33       1.0  0.40329954280345964  0.35452496899437597  0.4894245294186065  1.0000
  C   C34       1.0  0.9836425973840334  0.8288620346048533  0.28198030235243726  1.0000
  C   C35       1.0  0.2351384424224463  0.5528615731626587  0.2493750116746156  1.0000
  C   C36       1.0  0.15784096231859485  0.47355844997598245  0.1865279663183728  1.0000
  C   C37       1.0  0.1503265736090356  0.3991804945244226  0.19521522292075838  1.0000
  C   C38       1.0  0.22338247790300864  0.40479496915529717  0.2596633255146088  1.0000
  C   C39       1.0  0.29827588434024216  0.4868934240789144  0.3247462535044363  1.0000
  C   C40       1.0  0.9578726805491938  0.7329986574407243  0.2653753307691247  1.0000
  C   C41       1.0  0.3001595993534138  0.5604826689156822  0.3191417267922743  1.0000
  C   C42       1.0  0.3560721525021007  0.6587015194774251  0.36030880673010296  1.0000
  C   C43       1.0  0.2843670592101758  0.6502761405209653  0.27824614059321096  1.0000
  C   C44       1.0  0.8224670367586383  0.5505154576128178  0.7979922102231355  1.0000
  C   C45       1.0  0.7618051686487559  0.7972672061632268  0.49209016527372285  1.0000
  C   C46       1.0  0.8010255298611212  0.5173858528851341  0.8492242099054083  1.0000
  C   C47       1.0  0.7178580608410385  0.501048101078382  0.8424169882759784  1.0000
  C   C48       1.0  0.6620281508450745  0.5168076432335624  0.7844050067649562  1.0000
  C   C49       1.0  0.683807559051452  0.5445897526034642  0.7301827121053321  1.0000
  C   C50       1.0  0.7657638475603862  0.5617174477609909  0.7386832651383273  1.0000
  C   C51       1.0  0.8252088429019933  0.5874779450436519  0.7023057831476152  1.0000
  C   C52       1.0  0.04876360673578969  0.7466321085862476  0.2771059535314535  1.0000
  C   C53       1.0  0.8924962028690615  0.5781208602835406  0.7717514148256086  1.0000
  C   C54       1.0  0.01383711261186  0.7144789611326348  0.1765328585501252  1.0000
  C   C55       1.0  0.9202372773643148  0.6982626879659933  0.16562743895592288  1.0000
  C   C56       1.0  0.8380679527327428  0.7947815532899014  0.500160450856775  1.0000
  C   C57       1.0  0.9477917062721983  0.7962601876287821  0.18249690638050708  1.0000
  C   C58       1.0  0.8406923145858513  0.7177198600118971  0.49614987958057105  1.0000
  C   C59       1.0  0.7669639056668983  0.6487125624445439  0.48268582191766995  1.0000
  C   C60       1.0  0.6925674292400714  0.6547505928160718  0.47778183273388936  1.0000
  N   N1        1.0  0.6132916289932524  0.7963787130118263  0.5476568086754197  1.0000
  N   N2        1.0  0.6929196524829635  0.4737420247368932  0.8942227650289638  1.0000
  N   N3        1.0  0.9220765754475693  0.5189483428684055  0.735877764605867  1.0000
  N   N4        1.0  0.8899424763022664  0.8185501053352694  0.13593765071325237  1.0000
  N   N5        1.0  0.15258972408729227  0.9246047503015262  0.3604883890598032  1.0000
  N   N6        1.0  0.9122710246919677  0.7083865770861592  0.5011040101235338  1.0000
  N   N7        1.0  0.7070546845454756  0.8925994919229369  0.4397063676584949  1.0000
  N   N8        1.0  0.16495750721827562  0.39000866186636074  0.8837672955541436  1.0000
  N   N9        1.0  0.754368556381678  0.08400682638016117  0.5822299243379021  1.0000
  N   N10       1.0  0.23618797099862118  0.4166488934759514  0.5032975020900423  1.0000
  N   N11       1.0  0.07629390472462919  0.3171074632878685  0.13777351924142067  1.0000
  N   N12       1.0  0.2143969791751417  0.32692334749832247  0.2588239701924948  1.0000
  N   N13       1.0  0.24723129610737254  0.7073335614778528  0.2972416668395751  1.0000
  N   N14       1.0  0.840459840807206  0.6200966312225448  0.1040252260597825  1.0000
  O   O1        1.0  0.8883127345221808  0.9116603214148712  0.4751838046550673  1.0000
  O   O2        1.0  0.5810299970441689  0.5895984621086114  0.6724637080687614  1.0000
  O   O3        1.0  0.6007617546493975  0.5049257883973794  0.43059181793543644  1.0000
  O   O4        1.0  0.9902013199266335  0.8914660145783273  0.5596297093556047  1.0000
  O   O5        1.0  0.5813750634286237  0.6108874395180521  0.5122866315612171  1.0000
  O   O6        1.0  0.4027175385614186  0.4434486677208581  0.3764371386988187  1.0000
  O   O7        1.0  0.40444773886309787  0.5594006234344633  0.47278793519182466  1.0000
  O   O8        1.0  0.440426944888344  0.33111149658650874  0.44577481560666143  1.0000
  O   O9        1.0  0.4173841983291807  0.43240131475852184  0.5292354356477347  1.0000
  O   O10       1.0  0.9252884493004172  0.9222393563468501  0.3295057460133249  1.0000
  O   O11       1.0  0.02301611344819321  0.9083161631298893  0.42709400733633623  1.0000
  O   O12       1.0  0.008797780690471801  0.41598070655498287  0.0806806622712344  1.0000
  O   O13       1.0  0.06912735885894958  0.0929859245341689  0.4811498912905421  1.0000
  O   O14       1.0  0.16971236646551796  0.07231009043889709  0.5674607657013979  1.0000
  O   O15       1.0  0.9285510135737524  0.08748052342600939  0.5209492491041418  1.0000
  O   O16       1.0  0.03764450804723649  0.0880664293907287  0.6234452108021742  1.0000
  O   O17       1.0  0.11820407757137728  0.5273872321900158  0.0927217772722101  1.0000
  O   O18       1.0  0.0817653819543196  0.6737892541597362  0.09346532525519537  1.0000
  O   O19       1.0  0.9850274985567893  0.5702493306592161  0.1024100731421242  1.0000
  O   O20       1.0  0.9417830362006467  0.5386695241349315  0.921199818469546  1.0000
  O   O21       1.0  0.8357326502040721  0.447196338696081  0.9315190903870204  1.0000
  O   O22       1.0  0.07579930934959123  0.48879049032330363  0.9145292692417044  1.0000
  O   O23       1.0  0.9575916705383987  0.38568862411496235  0.9010807901460538  1.0000
  O   O24       1.0  0.6047565607045299  0.49565457054500683  0.5817423221231621  1.0000
