data_image0
_chemical_formula_structural       ZnH18C14SN4O4
_chemical_formula_sum              "Zn1 H18 C14 S1 N4 O4"
_cell_length_a       6.5553747835407705
_cell_length_b       9.422699616518644
_cell_length_c       9.42281218167056
_cell_angle_alpha    81.45727932746365
_cell_angle_beta     87.77024708840251
_cell_angle_gamma    87.76997405104134

_space_group_name_H-M_alt    "P 1"
_space_group_IT_number       1

loop_
  _space_group_symop_operation_xyz
  'x, y, z'

loop_
  _atom_site_type_symbol
  _atom_site_label
  _atom_site_symmetry_multiplicity
  _atom_site_fract_x
  _atom_site_fract_y
  _atom_site_fract_z
  _atom_site_occupancy
  Zn  Zn1       1.0  0.4999960835763985  0.5583127757772317  0.44169608835225915  1.0000
  H   H1        1.0  0.4955717405579278  0.7807982649428099  0.0473730735830244  1.0000
  H   H2        1.0  0.5044576943952704  0.9526247540261467  0.2192003531337647  1.0000
  H   H3        1.0  0.7128652812489304  0.7415626270016205  0.15568958367543928  1.0000
  H   H4        1.0  0.2871470642132791  0.8443243120810493  0.2584246825360522  1.0000
  H   H5        1.0  0.5308796776718977  0.3803424938190147  0.1811158046432624  1.0000
  H   H6        1.0  0.4691268412846909  0.818895428411686  0.6196524089449511  1.0000
  H   H7        1.0  0.7507738996559821  0.4860245913647958  0.1561003749030476  1.0000
  H   H8        1.0  0.2492387014138728  0.843901779518319  0.5139746545777581  1.0000
  H   H9        1.0  0.8705796128780743  0.4328462808252524  0.9256977170709176  1.0000
  H   H10       1.0  0.12937559360760528  0.07431073118899433  0.5671268292024365  1.0000
  H   H11       1.0  0.8207965167419287  0.4654731620364743  0.6592778048993962  1.0000
  H   H12       1.0  0.1791934075179711  0.3407426768590582  0.5345010971486985  1.0000
  H   H13       1.0  0.2198533089375019  0.6007647858061133  0.7080144915856934  1.0000
  H   H14       1.0  0.7801322476805265  0.2919982063371124  0.3992316529117516  1.0000
  H   H15       1.0  0.24296915004570951  0.5794484753677906  0.9763219646274663  1.0000
  H   H16       1.0  0.7570138880247227  0.0236946921676591  0.4205524002931327  1.0000
  H   H17       1.0  0.32314967610981427  0.5910177123789708  0.20040301338526942  1.0000
  H   H18       1.0  0.6768540018061839  0.7996063122873523  0.408977337546041  1.0000
  C   C1        1.0  0.5448210247273122  0.7418842478773868  0.1575359069870572  1.0000
  C   C2        1.0  0.4551843223408838  0.8424700629929804  0.2581133743764211  1.0000
  C   C3        1.0  0.5872556052145937  0.4861085296477015  0.13369569543265664  1.0000
  C   C4        1.0  0.4127499718151881  0.8663107502938273  0.5138848239318462  1.0000
  C   C5        1.0  0.7230565865828921  0.4705202657095453  0.8821339872677356  1.0000
  C   C6        1.0  0.2769449326701761  0.1178713910272862  0.529464128451437  1.0000
  C   C7        1.0  0.6973338718507165  0.48734055706842816  0.7348197469300572  1.0000
  C   C8        1.0  0.30265433889601207  0.2651950689981177  0.5126359397730695  1.0000
  C   C9        1.0  0.3609469074791817  0.5649056692278974  0.7621562729715164  1.0000
  C   C10       1.0  0.639050715375802  0.2378476834324204  0.43509062935969206  1.0000
  C   C11       1.0  0.3751809751728245  0.5515732152025024  0.910518412245878  1.0000
  C   C12       1.0  0.6248050763986865  0.0895060468729696  0.44842135409626843  1.0000
  C   C13       1.0  0.5606566268955148  0.5039432475222441  0.9734916460935422  1.0000
  C   C14       1.0  0.4393452160952265  0.026518156215054507  0.49604726626374435  1.0000
  S   S1        1.0  4.542481242700543e-06  0.6255967286211828  0.3743999444639812  1.0000
  N   N1        1.0  0.5195907744553236  0.5347236001544643  0.6749590288724149  1.0000
  N   N2        1.0  0.4804284152540319  0.3250575020562749  0.46524824043716245  1.0000
  N   N3        1.0  0.4805940782552297  0.5942661586493612  0.20814920778087037  1.0000
  N   N4        1.0  0.5194089518874634  0.7918585602105778  0.40572676675155606  1.0000
  O   O1        1.0  0.17412987711350772  0.575238537368783  0.4704357512151915  1.0000
  O   O2        1.0  0.8258612638021032  0.5295914680021028  0.42478793750779426  1.0000
  O   O3        1.0  0.055026424285593095  0.6107100998711558  0.22263375283122847  1.0000
  O   O4        1.0  0.9449884190264085  0.7773939351617969  0.3891968726428345  1.0000
