data_image0
_chemical_formula_structural       Ti2H56C22N2O8
_chemical_formula_sum              "Ti2 H56 C22 N2 O8"
_cell_length_a       8.782652853020101
_cell_length_b       8.92795625396246
_cell_length_c       11.376043207186843
_cell_angle_alpha    100.8581499584709
_cell_angle_beta     101.64244853453211
_cell_angle_gamma    115.20870915111875

_space_group_name_H-M_alt    "P 1"
_space_group_IT_number       1

loop_
  _space_group_symop_operation_xyz
  'x, y, z'

loop_
  _atom_site_type_symbol
  _atom_site_label
  _atom_site_symmetry_multiplicity
  _atom_site_fract_x
  _atom_site_fract_y
  _atom_site_fract_z
  _atom_site_occupancy
  Ti  Ti1       1.0  0.6772540226592271  0.65541059417275  0.6163080679614198  1.0000
  Ti  Ti2       1.0  0.3227488058745536  0.3445890772204124  0.38369346298056684  1.0000
  H   H1        1.0  0.7027943082257765  0.425257318498808  0.4263241606213413  1.0000
  H   H2        1.0  0.29720968754500626  0.574742372493077  0.5736757951843714  1.0000
  H   H3        1.0  0.8311231318954952  0.6297650688828397  0.43761426414654647  1.0000
  H   H4        1.0  0.16887853616994158  0.370234616691043  0.5623853319010053  1.0000
  H   H5        1.0  0.9320732585752439  0.4545514517518257  0.6095488444373275  1.0000
  H   H6        1.0  0.06793137484798707  0.5454495411471925  0.39045140889302843  1.0000
  H   H7        1.0  0.06449628563184004  0.668066940375752  0.607825322218801  1.0000
  H   H8        1.0  0.9355078249754955  0.331935368611127  0.39217329374175597  1.0000
  H   H9        1.0  0.14672549785273487  0.8363999025523583  0.873701154563193  1.0000
  H   H10       1.0  0.8532703458728365  0.16359974414191208  0.12630017461199833  1.0000
  H   H11       1.0  0.1501510879119862  0.7726795138086543  0.01301717103007859  1.0000
  H   H12       1.0  0.8498448672658016  0.22732273399088848  0.9869845733153113  1.0000
  H   H13       1.0  0.035122402786043914  0.88930719379254  0.9754446963108164  1.0000
  H   H14       1.0  0.9648716411265711  0.11069115673046069  0.02455527795297029  1.0000
  H   H15       1.0  0.9355991763435443  0.5200171343303666  0.8231818675842462  1.0000
  H   H16       1.0  0.06440068344811316  0.4799812128479246  0.17682076109029773  1.0000
  H   H17       1.0  0.7479510364300453  0.646495704563968  0.9855350969384489  1.0000
  H   H18       1.0  0.2520448106798554  0.35350395902003845  0.01446447722138092  1.0000
  H   H19       1.0  0.8604089683801063  0.5277781993490719  0.02285643238587907  1.0000
  H   H20       1.0  0.13958984239541652  0.47222276311521233  0.9771446765644355  1.0000
  H   H21       1.0  0.6643919117237047  0.42845610857961713  0.8903526146258756  1.0000
  H   H22       1.0  0.335604986094495  0.5715409481632677  0.10964760175051681  1.0000
  H   H23       1.0  0.6848929403902773  0.8604356787959375  0.8762910091054509  1.0000
  H   H24       1.0  0.3151025966551586  0.13957045241726715  0.12371302307105483  1.0000
  H   H25       1.0  0.28241391595612  0.6194190402815141  0.7977649659201875  1.0000
  H   H26       1.0  0.7175778104041369  0.3805793554926709  0.2022293835393754  1.0000
  H   H27       1.0  0.43587329999136415  0.7136234546568049  0.9533012500547643  1.0000
  H   H28       1.0  0.5641159804426722  0.2863723008146479  0.04669583450715461  1.0000
  H   H29       1.0  0.4467934078566457  0.5547495657478974  0.839327123598963  1.0000
  H   H30       1.0  0.553203719634638  0.44525272698496116  0.16067041308711794  1.0000
  H   H31       1.0  0.6013749454270966  0.0617832572552999  0.7906094220033212  1.0000
  H   H32       1.0  0.3986238755014284  0.9382177558781636  0.20938642190091633  1.0000
  H   H33       1.0  0.5055101490883304  0.0141944630235074  0.9115962584289223  1.0000
  H   H34       1.0  0.49448476891848264  0.9858104591760652  0.08839782363848779  1.0000
  H   H35       1.0  0.3730266075636308  0.9096019926868666  0.7498418825105732  1.0000
  H   H36       1.0  0.6269705266963116  0.09040033382544982  0.2501521441447921  1.0000
  H   H37       1.0  0.4126846037925987  0.7818444613923604  0.4767973164118758  1.0000
  H   H38       1.0  0.5873153792964346  0.21815654600524678  0.5231995848791229  1.0000
  H   H39       1.0  0.3898919492103587  0.6934758562237491  0.315251251515086  1.0000
  H   H40       1.0  0.6101062272970523  0.30652382122312377  0.6847478048952311  1.0000
  H   H41       1.0  0.6025502570167376  0.8545792475190055  0.4255444239381206  1.0000
  H   H42       1.0  0.39744559347749236  0.14542043295472243  0.574453395206362  1.0000
  H   H43       1.0  0.19251571034220658  0.017046244130646905  0.7437528554322839  1.0000
  H   H44       1.0  0.8074876460839704  0.9829521365092474  0.25624768035646645  1.0000
  H   H45       1.0  0.22036132972052513  0.23134113984058763  0.7888555443688007  1.0000
  H   H46       1.0  0.779640862852972  0.768657238090306  0.21114481154086925  1.0000
  H   H47       1.0  0.16696112657744777  0.1189596051033632  0.6261873055848355  1.0000
  H   H48       1.0  0.8330392644909352  0.8810374682113891  0.3738125729211107  1.0000
  H   H49       1.0  0.9245378863409784  0.011714963965026502  0.7891680279267703  1.0000
  H   H50       1.0  0.07546599459326579  0.9882821090318715  0.21083326772409813  1.0000
  H   H51       1.0  0.8964132772040116  0.1640007495069327  0.5705674687717206  1.0000
  H   H52       1.0  0.10359135114272525  0.8360002180574995  0.4294354170816633  1.0000
  H   H53       1.0  0.9416785830471357  0.27316179769827903  0.7328335263612046  1.0000
  H   H54       1.0  0.05832836962061792  0.7268391583944264  0.2671714742657016  1.0000
  H   H55       1.0  0.7317155557159581  0.08646804166652092  0.6453569271487254  1.0000
  H   H56       1.0  0.26828843497833077  0.913531623990778  0.3546456611800225  1.0000
  C   C1        1.0  0.9632244795734977  0.5357377784251581  0.5471481091794388  1.0000
  C   C2        1.0  0.03677898999706024  0.4642632117648589  0.4528519642718365  1.0000
  C   C3        1.0  0.06828656685727454  0.789485504790875  0.935396318279196  1.0000
  C   C4        1.0  0.9317092785604616  0.210514150348267  0.06460413338831471  1.0000
  C   C5        1.0  0.8986574893924983  0.618867680336699  0.861555054635545  1.0000
  C   C6        1.0  0.10134120823865088  0.3811306725774486  0.13844651665224464  1.0000
  C   C7        1.0  0.7860268437044837  0.5511022087229733  0.9449709918458993  1.0000
  C   C8        1.0  0.21396952622131243  0.4488961387731721  0.05503021968372932  1.0000
  C   C9        1.0  0.5488618982816078  0.8090990503763535  0.8120307276965165  1.0000
  C   C10       1.0  0.4511358600934586  0.19090451048418808  0.18797061654491648  1.0000
  C   C11       1.0  0.4208499151663857  0.6656099208999959  0.8531152742290616  1.0000
  C   C12       1.0  0.5791430848066029  0.33439107024358355  0.1468805477874611  1.0000
  C   C13       1.0  0.5052086231546724  0.9578594292653194  0.8169581253261244  1.0000
  C   C14       1.0  0.494786817668036  0.04214417684639931  0.18303759411107734  1.0000
  C   C15       1.0  0.47661403699196814  0.7400179981216652  0.4132402636394161  1.0000
  C   C16       1.0  0.5233840280632266  0.25997907821994204  0.5867583776006954  1.0000
  C   C17       1.0  0.143593034108747  0.10355471206635511  0.7156015085700531  1.0000
  C   C18       1.0  0.8564103223174301  0.8964436685735394  0.2843990272186972  1.0000
  C   C19       1.0  0.9457867518496883  0.0270000945904414  0.6983661524989415  1.0000
  C   C20       1.0  0.054215440723815685  0.9729982833404449  0.3016342034107282  1.0000
  C   C21       1.0  0.8746772821454273  0.145366981761974  0.6598562173224636  1.0000
  C   C22       1.0  0.12532490704374052  0.8546313792791835  0.3401458936025605  1.0000
  N   N1        1.0  0.8032298702299697  0.5436493266600664  0.48817800170007797  1.0000
  N   N2        1.0  0.1967723223435272  0.456349051270827  0.5118223542095919  1.0000
  O   O1        1.0  0.509365983222679  0.6067776023922278  0.44204076674289183  1.0000
  O   O2        1.0  0.49063568145842856  0.39322206629193357  0.5579605843200142  1.0000
  O   O3        1.0  0.8009217895087984  0.6414707056827778  0.758903686659771  1.0000
  O   O4        1.0  0.199079124375487  0.35852505154412034  0.24109782921598114  1.0000
  O   O5        1.0  0.5423499475644391  0.7404721807564911  0.6870465716122709  1.0000
  O   O6        1.0  0.45766113600594593  0.2595300938152292  0.31295838866883235  1.0000
  O   O7        1.0  0.8518689257121039  0.861884122499113  0.6040501896214892  1.0000
  O   O8        1.0  0.14813443409840235  0.1381142750305031  0.3959485911519067  1.0000
