data_image0
_chemical_formula_structural       Rb4H20C56N16O4
_chemical_formula_sum              "Rb4 H20 C56 N16 O4"
_cell_length_a       8.50870741495036
_cell_length_b       9.381504255721813
_cell_length_c       17.741728854012532
_cell_angle_alpha    89.99986860623433
_cell_angle_beta     90.00007292554538
_cell_angle_gamma    108.0588427084984

_space_group_name_H-M_alt    "P 1"
_space_group_IT_number       1

loop_
  _space_group_symop_operation_xyz
  'x, y, z'

loop_
  _atom_site_type_symbol
  _atom_site_label
  _atom_site_symmetry_multiplicity
  _atom_site_fract_x
  _atom_site_fract_y
  _atom_site_fract_z
  _atom_site_occupancy
  Rb  Rb1       1.0  0.1291590128743394  0.7790670567068858  0.8347350172181152  1.0000
  Rb  Rb2       1.0  0.3708406458522545  0.22093132564771878  0.3347356773099222  1.0000
  Rb  Rb3       1.0  0.8708408953087595  0.22092946585723885  0.16526474599756827  1.0000
  Rb  Rb4       1.0  0.6291568453031572  0.779068530813788  0.6652652131888672  1.0000
  H   H1        1.0  0.19115575398822665  0.4328292615355308  0.9732256945484892  1.0000
  H   H2        1.0  0.308847129526427  0.5671741847673387  0.47322928039566386  1.0000
  H   H3        1.0  0.8088468243678831  0.5671717553048552  0.0267706868077155  1.0000
  H   H4        1.0  0.691154956182032  0.43283241799872474  0.526774991958007  1.0000
  H   H5        1.0  0.40533610537837444  0.4787262153643537  0.8715834388495552  1.0000
  H   H6        1.0  0.09466974772447388  0.5212798975052448  0.3715863867333269  1.0000
  H   H7        1.0  0.594662191448748  0.5212725298107515  0.12841068793501623  1.0000
  H   H8        1.0  0.9053358138338864  0.47873008823495405  0.6284156310476448  1.0000
  H   H9        1.0  0.647475640598138  0.7091718156329135  0.8746619906143493  1.0000
  H   H10       1.0  0.8525264766574167  0.2908376795343485  0.3746614278253517  1.0000
  H   H11       1.0  0.35252216357947924  0.29083251547348243  0.1253372089530487  1.0000
  H   H12       1.0  0.14747517627139223  0.709171155655575  0.6253377717404832  1.0000
  H   H13       1.0  0.6799377730460917  0.8930536121948831  0.9795964205153069  1.0000
  H   H14       1.0  0.8200618715926777  0.10694761735889097  0.479594933045938  1.0000
  H   H15       1.0  0.32005512355812016  0.10693949795646769  0.0204039063432333  1.0000
  H   H16       1.0  0.1799426311408893  0.8930556515176418  0.5204042665241317  1.0000
  H   H17       1.0  0.4649683274843851  0.8518376653074922  0.0778466054114588  1.0000
  H   H18       1.0  0.03502826413146208  0.14816059916086735  0.5778466509071052  1.0000
  H   H19       1.0  0.5350284178710253  0.14815994892737896  0.9221537214455325  1.0000
  H   H20       1.0  0.9649731356509079  0.8518404078587803  0.4221531123063187  1.0000
  C   C1        1.0  0.18495007417877918  0.6108703173218613  0.089689931405438  1.0000
  C   C2        1.0  0.31504771155199046  0.38912790980521084  0.5896892916791003  1.0000
  C   C3        1.0  0.8150451197001087  0.38912616598737765  0.9103092681659034  1.0000
  C   C4        1.0  0.6849510180558906  0.6108686029426662  0.4103115988220837  1.0000
  C   C5        1.0  0.19166767090194262  0.7321328197419702  0.1482219236572462  1.0000
  C   C6        1.0  0.30832596997518635  0.26785954913464843  0.6482191718711547  1.0000
  C   C7        1.0  0.8083310587059385  0.2678636930059071  0.8517789668439378  1.0000
  C   C8        1.0  0.6916695968042531  0.7321380552862207  0.3517811549854812  1.0000
  C   C9        1.0  0.24685300566376614  0.7089552632698002  0.2203333033168917  1.0000
  C   C10       1.0  0.2531461899339362  0.2910390999609546  0.7203321809993924  1.0000
  C   C11       1.0  0.7531488268960371  0.2910435113327238  0.7796681508267937  1.0000
  C   C12       1.0  0.7468525396743075  0.7089574127857999  0.2796692731447195  1.0000
  C   C13       1.0  0.13356039494080105  0.8495106084031574  0.1240190077768162  1.0000
  C   C14       1.0  0.36644332871254187  0.1504875311049645  0.6240186876616323  1.0000
  C   C15       1.0  0.8664477033971563  0.15048933638774287  0.8759801917963443  1.0000
  C   C16       1.0  0.6335572653936906  0.849514587214557  0.37598107555087523  1.0000
  C   C17       1.0  0.07265369549097761  0.846660240373019  0.0496677251185602  1.0000
  C   C18       1.0  0.4273506764085369  0.15334043740334377  0.5496696930394692  1.0000
  C   C19       1.0  0.9273462126899047  0.1533362821978415  0.9503286562395487  1.0000
  C   C20       1.0  0.5726534534270512  0.8466617103537003  0.4503323247458013  1.0000
  C   C21       1.0  0.13549243086437465  0.9746362580476813  0.16848923247458467  1.0000
  C   C22       1.0  0.36450310110591017  0.02536163569471479  0.668489062436656  1.0000
  C   C23       1.0  0.864508163239641  0.025365860278576194  0.8315071488803485  1.0000
  C   C24       1.0  0.6354967471992055  0.9746382404015395  0.3315084462052624  1.0000
  C   C25       1.0  0.3042566490014094  0.5848825918463871  0.23316754517162508  1.0000
  C   C26       1.0  0.19574262331262557  0.4151083667537846  0.7331668017332262  1.0000
  C   C27       1.0  0.6957394104316065  0.4151094266308489  0.7668339089743981  1.0000
  C   C28       1.0  0.8042584634475458  0.5848881656209738  0.266834652411589  1.0000
  C   C29       1.0  0.2389495717575584  0.7977475417992533  0.2836703667247917  1.0000
  C   C30       1.0  0.26105404834802926  0.20224548738265466  0.7836699201731676  1.0000
  C   C31       1.0  0.7610561694288407  0.20225238336252718  0.7163293964906003  1.0000
  C   C32       1.0  0.7389447411370964  0.7977476718353456  0.2163320976159184  1.0000
  C   C33       1.0  0.3120108011331054  0.6409732193002283  0.030542953771501402  1.0000
  C   C34       1.0  0.18798722001638876  0.3590297179710191  0.5305439643567453  1.0000
  C   C35       1.0  0.6879832141690797  0.35902325419725384  0.9694551185136362  1.0000
  C   C36       1.0  0.8120152984665479  0.6409746523869017  0.46945748978376395  1.0000
  C   C37       1.0  0.2966542731918409  0.5345040632188895  0.9726220034884462  1.0000
  C   C38       1.0  0.20334625237698836  0.46549936586518476  0.4726228300884685  1.0000
  C   C39       1.0  0.7033409206866776  0.4654924200914719  0.0273766324399674  1.0000
  C   C40       1.0  0.7966578175824635  0.5345061354183684  0.5273797513376834  1.0000
  C   C41       1.0  0.41605116562427463  0.5604031561254388  0.9164510607331381  1.0000
  C   C42       1.0  0.08394848056825306  0.4396016079125926  0.416452973566507  1.0000
  C   C43       1.0  0.5839440282546063  0.4395933271838003  0.0835481388382107  1.0000
  C   C44       1.0  0.9160535452637003  0.5604083483811096  0.5835512987851175  1.0000
  C   C45       1.0  0.5529930105040889  0.6905024217488671  0.9182963905436878  1.0000
  C   C46       1.0  0.9470104024554825  0.3095035559664154  0.41829529880612887  1.0000
  C   C47       1.0  0.44700522645096186  0.3094996769404047  0.08170449995397182  1.0000
  C   C48       1.0  0.05299286182671643  0.6905030566203861  0.581705591690323  1.0000
  C   C49       1.0  0.5704876874699422  0.7949436654379267  0.9764490645371994  1.0000
  C   C50       1.0  0.9295138774162834  0.20505982868507994  0.4764497793744766  1.0000
  C   C51       1.0  0.4295089980082166  0.20505730232682848  0.0235501350318899  1.0000
  C   C52       1.0  0.07048789526664473  0.794942299446198  0.5235511111242347  1.0000
  C   C53       1.0  0.4497246540429386  0.7711426403801764  0.032164517531136  1.0000
  C   C54       1.0  0.05027733773732727  0.22885808746595152  0.5321639110788823  1.0000
  C   C55       1.0  0.5502724642111758  0.22885609497194537  0.9678341183965031  1.0000
  C   C56       1.0  0.9497248677215634  0.7711418082527002  0.4678364157783861  1.0000
  N   N1        1.0  0.35077465041093336  0.4812906418867937  0.2433244674411554  1.0000
  N   N2        1.0  0.14922773818164353  0.5187025381264334  0.7433241342332693  1.0000
  N   N3        1.0  0.6492201705692439  0.5187047203051948  0.7566764230595382  1.0000
  N   N4        1.0  0.8507780628816304  0.48129403350658606  0.25667619262709  1.0000
  N   N5        1.0  0.1396330191808772  0.08159969275694581  0.203636291897169  1.0000
  N   N6        1.0  0.36036485617992725  0.9184014341979458  0.7036350398562377  1.0000
  N   N7        1.0  0.8603680077020498  0.9184001931476967  0.7963640349597441  1.0000
  N   N8        1.0  0.6396348723736478  0.08160514894908737  0.29636472335330677  1.0000
  N   N9        1.0  0.2304521482314783  0.8703371847467664  0.3363698067643313  1.0000
  N   N10       1.0  0.26955104836804367  0.12966122054037038  0.8363705803904011  1.0000
  N   N11       1.0  0.769549624450711  0.12966494338676424  0.6636299564485243  1.0000
  N   N12       1.0  0.7304488598169028  0.8703353020181408  0.16363200103991463  1.0000
  N   N13       1.0  0.023342309645762765  0.8412077682895782  0.9877566752050982  1.0000
  N   N14       1.0  0.47666220428407496  0.1587933975643381  0.4877557836108721  1.0000
  N   N15       1.0  0.976654748732585  0.1587943205879369  0.0122430880063575  1.0000
  N   N16       1.0  0.5233427911030545  0.8412042853685545  0.5122445432485776  1.0000
  O   O1        1.0  0.0710451615689749  0.4920490405515493  0.0950547220947229  1.0000
  O   O2        1.0  0.4289526910791466  0.5079458116814023  0.5950568259849405  1.0000
  O   O3        1.0  0.9289579693172169  0.5079430368175579  0.9049427865529082  1.0000
  O   O4        1.0  0.5710459786511207  0.4920540545974814  0.4049423735854134  1.0000
