data_image0
_chemical_formula_structural       Zn2H26C54N2O20F2
_chemical_formula_sum              "Zn2 H26 C54 N2 O20 F2"
_cell_length_a       15.98331539221697
_cell_length_b       16.527399090319882
_cell_length_c       17.968122444186378
_cell_angle_alpha    89.6249060258101
_cell_angle_beta     89.44280782796267
_cell_angle_gamma    89.81997421997166

_space_group_name_H-M_alt    "P 1"
_space_group_IT_number       1

loop_
  _space_group_symop_operation_xyz
  'x, y, z'

loop_
  _atom_site_type_symbol
  _atom_site_label
  _atom_site_symmetry_multiplicity
  _atom_site_fract_x
  _atom_site_fract_y
  _atom_site_fract_z
  _atom_site_occupancy
  Zn  Zn1       1.0  0.5008986260088052  0.41752569728318184  0.5030047060291878  1.0000
  Zn  Zn2       1.0  0.5035062182507773  0.5870008262022638  0.50260601002163  1.0000
  H   H1        1.0  0.3834149731901134  0.2936114457194421  0.4451481764260805  1.0000
  H   H2        1.0  0.9424570354580551  0.5660606911390714  0.597714331747291  1.0000
  H   H3        1.0  0.615025123541187  0.45499635891392387  0.8829545345445242  1.0000
  H   H4        1.0  0.35085603568000323  0.5063458200046824  0.8777425682818392  1.0000
  H   H5        1.0  0.34913549518446974  0.5041088587116603  0.13102383770979742  1.0000
  H   H6        1.0  0.6141609550531298  0.45589284808269065  0.12284224706194641  1.0000
  H   H7        1.0  0.2778437019004656  0.5305507191134353  0.2357124294358073  1.0000
  H   H8        1.0  0.6955766089607065  0.45152162193983963  0.22424174906335995  1.0000
  H   H9        1.0  0.352225546428933  0.06601832275719491  0.4337552295648807  1.0000
  H   H10       1.0  0.40617277438323635  0.9390308445569744  0.37934632116023453  1.0000
  H   H11       1.0  0.009100460887360396  0.42300463575776354  0.3271748504466602  1.0000
  H   H12       1.0  0.4280744427666362  0.7112397798762516  0.4053217401740667  1.0000
  H   H13       1.0  0.16279034026764092  0.5798767094248021  0.3818968385850071  1.0000
  H   H14       1.0  0.1320794780428329  0.6444080042766346  0.5358149645306369  1.0000
  H   H15       1.0  0.0416766465527161  0.2890221509208715  0.4756625744520734  1.0000
  H   H16       1.0  0.14105913615822627  0.39118224618752606  0.6077401996774938  1.0000
  H   H17       1.0  0.16609879794911106  0.5407855025400963  0.6284042417945204  1.0000
  H   H18       1.0  0.6965567014344742  0.4491877914988152  0.7813055214538666  1.0000
  H   H19       1.0  0.2814336776070832  0.5354112241325594  0.7752716579471653  1.0000
  H   H20       1.0  0.6116590419152812  0.28465010342387126  0.5526838848008779  1.0000
  H   H21       1.0  0.5775449647595466  0.7201995433379481  0.5923234000293647  1.0000
  H   H22       1.0  0.6126943654292275  0.13223230104316028  0.5528313172661685  1.0000
  H   H23       1.0  0.5769925844880249  0.8724695324070738  0.5915111676120901  1.0000
  H   H24       1.0  0.9231574034763452  0.6252001881774447  0.4612449593625172  1.0000
  H   H25       1.0  0.9423455311543519  0.3702492321427471  0.5111643817123764  1.0000
  H   H26       1.0  0.9234232495072516  0.46183916398174313  0.6122608240640164  1.0000
  C   C1        1.0  0.49517029760570347  0.505239276676079  0.35725126392723894  1.0000
  C   C2        1.0  0.41464370779191734  0.5064328844932717  0.771660712017365  1.0000
  C   C3        1.0  0.491514610983117  0.4976342027168028  0.7329630696207092  1.0000
  C   C4        1.0  0.48234340409032217  0.4797562781906706  0.8912275692607567  1.0000
  C   C5        1.0  0.47905782108689016  0.47431175501019857  0.9697791818335234  1.0000
  C   C6        1.0  0.341074836523319  0.5032902007858764  0.5028852271713475  1.0000
  C   C7        1.0  0.47862072283510304  0.47411666713512096  0.037673963333745106  1.0000
  C   C8        1.0  0.40930835625204764  0.4973135050066874  0.1587120436692189  1.0000
  C   C9        1.0  0.5572342340222035  0.4703892840688296  0.15414360325249996  1.0000
  C   C10       1.0  0.4128073056575801  0.5072369966294517  0.23593033630675117  1.0000
  C   C11       1.0  0.5619674645835742  0.48051217467187257  0.23112281336063492  1.0000
  C   C12       1.0  0.9555682710463458  0.5054882487020221  0.5756873350152321  1.0000
  C   C13       1.0  0.48968335939851215  0.49933401972928243  0.2734820165430989  1.0000
  C   C14       1.0  0.4812202386597945  0.479465147397221  0.11616760030462812  1.0000
  C   C15       1.0  0.4285986538198189  0.17146814967862406  0.46375714775383875  1.0000
  C   C16       1.0  0.45518832866721937  0.8333683990190509  0.4405456886091344  1.0000
  C   C17       1.0  0.43333510876953346  0.25577626398477793  0.4677368453896946  1.0000
  C   C18       1.0  0.45979253061165787  0.7490699731798928  0.4457640287004168  1.0000
  C   C19       1.0  0.5606596598499036  0.24980777792704592  0.528983146567427  1.0000
  C   C20       1.0  0.5438704991561992  0.7548632541862402  0.5502643259277493  1.0000
  C   C21       1.0  0.5609963740330243  0.1659451794353117  0.528514571971563  1.0000
  C   C22       1.0  0.5432142507708516  0.8387666490050094  0.5495635664451797  1.0000
  C   C23       1.0  0.0498499623249771  0.4886656632414486  0.5760536619988417  1.0000
  C   C24       1.0  0.49383962364760237  0.1248626788871618  0.49559091822471407  1.0000
  C   C25       1.0  0.49784968316254913  0.8799665670103066  0.4940760356851116  1.0000
  C   C26       1.0  0.4971296248242678  0.5035273669399062  0.6490332279325133  1.0000
  C   C27       1.0  0.4935546904010266  0.0392953135997303  0.4942378196434662  1.0000
  C   C28       1.0  0.4955375668348623  0.9655284252445071  0.4931638889767171  1.0000
  C   C29       1.0  0.6632556228074049  0.4974015677286586  0.5028962087983687  1.0000
  C   C30       1.0  0.04737169473246179  0.4210925719901866  0.44780689448690236  1.0000
  C   C31       1.0  0.04942293407351169  0.5758065483821044  0.45866199502485494  1.0000
  C   C32       1.0  0.9543977127627982  0.5679661199283144  0.4472863285808586  1.0000
  C   C33       1.0  0.9532586090540818  0.41562650758994824  0.4669461999547196  1.0000
  C   C34       1.0  0.8293977596072963  0.4981872518538993  0.4984126405167261  1.0000
  C   C35       1.0  0.7536106757872857  0.49730740245839666  0.5013997537068635  1.0000
  C   C36       1.0  0.08569970821795889  0.49502584655657955  0.4928478070817024  1.0000
  C   C37       1.0  0.9200276282698565  0.4977078698051614  0.49587390032090184  1.0000
  C   C38       1.0  0.33243386430923033  0.5267443198406313  0.2740200829839382  1.0000
  C   C39       1.0  0.6460858108058857  0.47155584463371264  0.26472414858805143  1.0000
  C   C40       1.0  0.3560576485449545  0.13314534870944073  0.4270359619060288  1.0000
  C   C41       1.0  0.40677681016857287  0.8714806191944291  0.3794837402123079  1.0000
  C   C42       1.0  0.0640507770103724  0.43169341025980407  0.3630466618325272  1.0000
  C   C43       1.0  0.09832998594769998  0.6046518179569206  0.38706295066384666  1.0000
  C   C44       1.0  0.0687367784391952  0.6472874530039832  0.5104250109292395  1.0000
  C   C45       1.0  0.1758231710463036  0.496419755560318  0.49329780966452585  1.0000
  C   C46       1.0  0.08841467468190697  0.33818951103292255  0.4658927819532366  1.0000
  C   C47       1.0  0.07289134773776597  0.4048394591311322  0.6080726659339535  1.0000
  C   C48       1.0  0.09658029126947548  0.544111589138808  0.6312909940777304  1.0000
  C   C49       1.0  0.6480849859381762  0.4705061060662458  0.7410070934676513  1.0000
  C   C50       1.0  0.3335810458481773  0.5226219868660139  0.7349543556172196  1.0000
  C   C51       1.0  0.25094843694105856  0.5034044266539865  0.49919924586155434  1.0000
  C   C52       1.0  0.558330670086363  0.4697232115073006  0.8522015064420787  1.0000
  C   C53       1.0  0.4109718111428932  0.4983238009442416  0.8492825524648353  1.0000
  C   C54       1.0  0.5635204770994875  0.479397269488004  0.7749391503064729  1.0000
  N   N1        1.0  0.497531057115303  0.2936025554163848  0.49968005346374167  1.0000
  N   N2        1.0  0.5027372807024263  0.7110634925885009  0.4992674115091518  1.0000
  O   O1        1.0  0.4925249423238823  0.43699352311433864  0.38985858327102113  1.0000
  O   O2        1.0  0.6630113074483077  0.4846124831550896  0.3295644269421275  1.0000
  O   O3        1.0  0.30383406738305035  0.170799379405274  0.3916381424004244  1.0000
  O   O4        1.0  0.3699848168319734  0.8331491110263015  0.3320765405201485  1.0000
  O   O5        1.0  0.13346986040728126  0.4464397828293372  0.33821984663990184  1.0000
  O   O6        1.0  0.06908360165051869  0.6537296189724416  0.34418673660736954  1.0000
  O   O7        1.0  0.0220260637268836  0.7043663941525086  0.5204872578889309  1.0000
  O   O8        1.0  0.16307975511377037  0.3256131052248037  0.4676370395620355  1.0000
  O   O9        1.0  0.02182212785481849  0.3570540112209386  0.633202788438709  1.0000
  O   O10       1.0  0.0597267307198237  0.5840610436400056  0.6780067564285305  1.0000
  O   O11       1.0  0.6666323972021359  0.4849946013163732  0.6762413575669087  1.0000
  O   O12       1.0  0.50214083194642  0.5744090643785995  0.3859310208783739  1.0000
  O   O13       1.0  0.3205579414339467  0.5218052430035627  0.6679966358138929  1.0000
  O   O14       1.0  0.37412832372603316  0.43343359551806765  0.5050774343705131  1.0000
  O   O15       1.0  0.37726644425566036  0.571527711917753  0.5034694225697578  1.0000
  O   O16       1.0  0.49706544276461523  0.435459638367945  0.6170066349074335  1.0000
  O   O17       1.0  0.5011932983344067  0.57332436026433  0.6200906226811753  1.0000
  O   O18       1.0  0.6274765038038195  0.42865183963790804  0.5029431461032773  1.0000
  O   O19       1.0  0.6280645949978094  0.5665372767943069  0.5037292339117772  1.0000
  O   O20       1.0  0.3235004267547836  0.5385375101177629  0.34063271647725213  1.0000
  F   F1        1.0  0.9085736137176992  0.3873477808528277  0.40530602442012764  1.0000
  F   F2        1.0  0.9361745402457229  0.551200352066708  0.3723426511784141  1.0000
