data_image0
_chemical_formula_structural       Al2H24C48O24
_chemical_formula_sum              "Al2 H24 C48 O24"
_cell_length_a       4.000962423457682
_cell_length_b       29.01566025558059
_cell_length_c       29.01563378078618
_cell_angle_alpha    119.99375962855241
_cell_angle_beta     89.99999799779043
_cell_angle_gamma    89.99852155957731

_space_group_name_H-M_alt    "P 1"
_space_group_IT_number       1

loop_
  _space_group_symop_operation_xyz
  'x, y, z'

loop_
  _atom_site_type_symbol
  _atom_site_label
  _atom_site_symmetry_multiplicity
  _atom_site_fract_x
  _atom_site_fract_y
  _atom_site_fract_z
  _atom_site_occupancy
  Al  Al1       1.0  0.0001867989871727  0.5000073286000201  0.49999529590440517  1.0000
  Al  Al2       1.0  0.9991681917873265  0.16665778104322035  0.8333480046160062  1.0000
  H   H1        1.0  0.19918462052275032  0.2276135228422406  0.6479173186735636  1.0000
  H   H2        1.0  0.8006485438207067  0.3520359944519669  0.7723831475732793  1.0000
  H   H3        1.0  0.8006816121307027  0.31458724535634264  0.5609384829899184  1.0000
  H   H4        1.0  0.19927494926466247  0.4390496787060841  0.6853963136621886  1.0000
  H   H5        1.0  0.19915026031673486  0.9202778540344384  0.7723820568110183  1.0000
  H   H6        1.0  0.8006452852855335  0.9203470772827772  0.6479652100445462  1.0000
  H   H7        1.0  0.800629094449306  0.7463454575845176  0.6853956675872296  1.0000
  H   H8        1.0  0.19923854607957742  0.7463551015545705  0.5609373446024718  1.0000
  H   H9        1.0  0.19924687301689661  0.3520915478238038  0.07969789101246495  1.0000
  H   H10       1.0  0.8007462592195298  0.2276272613166341  0.0796879648786017  1.0000
  H   H11       1.0  0.8007118865812688  0.43906967315916745  0.2536432747168931  1.0000
  H   H12       1.0  0.19929569954452123  0.314623625740623  0.25366292524539347  1.0000
  H   H13       1.0  0.14742609611283802  0.1592007984707068  0.7191113551613172  1.0000
  H   H14       1.0  0.8515080823153554  0.28084848899351295  0.840819235264817  1.0000
  H   H15       1.0  0.8521349558505806  0.38578286288230157  0.4925221673782971  1.0000
  H   H16       1.0  0.14806824585064504  0.5074824437988  0.6142122490245328  1.0000
  H   H17       1.0  0.14737061535662832  0.05987055898906855  0.840808307407265  1.0000
  H   H18       1.0  0.8514809546231635  0.0599540367487351  0.7191605862767078  1.0000
  H   H19       1.0  0.8520970924508405  0.6067500990489378  0.6142114153824919  1.0000
  H   H20       1.0  0.14804375142970372  0.6067528158335165  0.492513134926952  1.0000
  H   H21       1.0  0.14744767536785733  0.2808889076434725  0.9401047229227757  1.0000
  H   H22       1.0  0.8515371202652846  0.15918521696942642  0.9400796691466766  1.0000
  H   H23       1.0  0.852165900469501  0.5074778611673807  0.39324172367951593  1.0000
  H   H24       1.0  0.14810165326037614  0.3857964231497136  0.3932643486379915  1.0000
  C   C1        1.0  0.5001677180804052  0.4583972317601877  0.4167771413653297  1.0000
  C   C2        1.0  0.5001629651238986  0.45840079482608337  0.5416097279175247  1.0000
  C   C3        1.0  0.5001538235032827  0.5832226045257515  0.5415914468763248  1.0000
  C   C4        1.0  0.4992145189170004  0.2082787883420566  0.7917480461627164  1.0000
  C   C5        1.0  0.4992161640185771  0.08343825754210604  0.7917312892924357  1.0000
  C   C6        1.0  0.4992122688801859  0.20824423647410842  0.9165636101980609  1.0000
  C   C7        1.0  0.4996991736801706  0.2369228381401598  0.7630453587371449  1.0000
  C   C8        1.0  0.3222611389634125  0.21687810457552817  0.7137849933920535  1.0000
  C   C9        1.0  0.33217617426770135  0.24392881729313845  0.6855452925214109  1.0000
  C   C10       1.0  0.49997626903412873  0.2929612742657852  0.7070109546896218  1.0000
  C   C11       1.0  0.6676790148538246  0.3144084966402758  0.7560508746292101  1.0000
  C   C12       1.0  0.6772693947215275  0.2861718839434389  0.783105493400754  1.0000
  C   C13       1.0  0.4999685822897536  0.3211865760909942  0.6788000750018169  1.0000
  C   C14       1.0  0.4999512739773451  0.34546305370411556  0.6545221747300758  1.0000
  C   C15       1.0  0.49995108615279815  0.37368046840568775  0.626305397775127  1.0000
  C   C16       1.0  0.6677126269696674  0.35221961551025766  0.5772661660017988  1.0000
  C   C17       1.0  0.6775200796949863  0.38045831250238393  0.5502204195611  1.0000
  C   C18       1.0  0.5000657203573269  0.4297215939746622  0.5702772647184702  1.0000
  C   C19       1.0  0.3225441595006516  0.4497758163294776  0.6195335734562589  1.0000
  C   C20       1.0  0.3322394059410101  0.42272395922443445  0.6477653872223854  1.0000
  C   C21       1.0  0.49966634852770414  0.026093175900463703  0.7630826331844531  1.0000
  C   C22       1.0  0.32223852070021053  0.996873245296328  0.7831266505288994  1.0000
  C   C23       1.0  0.33214624033440293  0.9415916232151033  0.7560742488398374  1.0000
  C   C24       1.0  0.49992584509319454  0.914038786293446  0.7070391416978338  1.0000
  C   C25       1.0  0.6676803656664491  0.9416366788798882  0.6855925536558232  1.0000
  C   C26       1.0  0.6772629587598545  0.9969197292573356  0.7138323584184505  1.0000
  C   C27       1.0  0.4998885621762241  0.8576106484532318  0.6788071804459362  1.0000
  C   C28       1.0  0.4998705484085023  0.8090509558833786  0.6545192820290424  1.0000
  C   C29       1.0  0.4999057482242364  0.7526212215135004  0.6262992553282132  1.0000
  C   C30       1.0  0.6676829947319122  0.7250457165993041  0.6477670289799135  1.0000
  C   C31       1.0  0.6774832375865715  0.6697673518174554  0.6195307384223129  1.0000
  C   C32       1.0  0.5000610526382162  0.6405721807171358  0.5702700680649427  1.0000
  C   C33       1.0  0.32252600517936264  0.6697719309767294  0.5502120233031818  1.0000
  C   C34       1.0  0.3322085725233635  0.7250478998833287  0.5772576006617597  1.0000
  C   C35       1.0  0.49969708673061336  0.2369590971126102  0.9739100795700962  1.0000
  C   C36       1.0  0.3222857627317382  0.2862207421610705  0.0031130260252467687  1.0000
  C   C37       1.0  0.3322108492045075  0.31446298986715954  0.0583902354400934  1.0000
  C   C38       1.0  0.5000600202587719  0.2929999506978831  0.085963315169451  1.0000
  C   C39       1.0  0.6677516932001809  0.2439566145975149  0.05838428578502428  1.0000
  C   C40       1.0  0.6772993109619352  0.21689909577094107  0.0031042845773824605  1.0000
  C   C41       1.0  0.500050002876627  0.3212054314865115  0.14239248402940058  1.0000
  C   C42       1.0  0.5000303375933656  0.34549490737410343  0.19095340041442196  1.0000
  C   C43       1.0  0.49999532510229033  0.3737123762098165  0.24738023036118753  1.0000
  C   C44       1.0  0.6677429442290262  0.42274808031788774  0.2749484357125027  1.0000
  C   C45       1.0  0.6775606684525145  0.4497906086747178  0.3302281938481143  1.0000
  C   C46       1.0  0.5000852987382417  0.42973249200158387  0.3594322409683953  1.0000
  C   C47       1.0  0.32254005400525904  0.3804799573321062  0.3302427555953216  1.0000
  C   C48       1.0  0.3322452434451223  0.3522475437932683  0.27495908636819166  1.0000
  O   O1        1.0  0.7312856065868588  0.5577603751430117  0.551487558862206  1.0000
  O   O2        1.0  0.7312788638497523  0.4937495298935062  0.44223578453610907  1.0000
  O   O3        1.0  0.7312807098798049  0.4485089355011169  0.5062583653766382  1.0000
  O   O4        1.0  0.2690717289132892  0.55775743933485  0.506233246681326  1.0000
  O   O5        1.0  0.26909528215323064  0.49376296939863823  0.551503134506099  1.0000
  O   O6        1.0  0.2691092853191322  0.4485025517048626  0.4422490305482398  1.0000
  O   O7        1.0  0.7301299596737824  0.17285534117577586  0.8910764680443322  1.0000
  O   O8        1.0  0.7301306054224883  0.21817934540524675  0.827134511300919  1.0000
  O   O9        1.0  0.7301532017602314  0.10893013584145443  0.7818383010572132  1.0000
  O   O10       1.0  0.2679569371904692  0.2181374049616167  0.8911211120215013  1.0000
  O   O11       1.0  0.2679420069166271  0.1088734288654791  0.8270577645451879  1.0000
  O   O12       1.0  0.26797843180514047  0.17294917750121644  0.7818596042467121  1.0000
  O   O13       1.0  0.14951946191927587  0.17075218243919474  0.6922585939305961  1.0000
  O   O14       1.0  0.8499459324326185  0.30767969032793724  0.8292383370382124  1.0000
  O   O15       1.0  0.8502254418207615  0.35894297687691784  0.5040903971902891  1.0000
  O   O16       1.0  0.1498414517906852  0.4959085297531801  0.6410468623320894  1.0000
  O   O17       1.0  0.14950366159527564  0.021468636493643972  0.8292522610315557  1.0000
  O   O18       1.0  0.8499698480132738  0.021546958090340122  0.6923276589742428  1.0000
  O   O19       1.0  0.8502065180668411  0.6451514297910704  0.6410473461645906  1.0000
  O   O20       1.0  0.14985725534831576  0.6451580637201174  0.5040844503962204  1.0000
  O   O21       1.0  0.14956473733563064  0.30773608154509446  0.9785010199495828  1.0000
  O   O22       1.0  0.8500139818237359  0.17077013748974684  0.9784886035697014  1.0000
  O   O23       1.0  0.8502623607729307  0.4959211235245177  0.3548390797918231  1.0000
  O   O24       1.0  0.14986115743283795  0.35896125681945534  0.3548601651677501  1.0000
