data_image0
_chemical_formula_structural       Cu2H18C26N6O8
_chemical_formula_sum              "Cu2 H18 C26 N6 O8"
_cell_length_a       8.260402226681125
_cell_length_b       9.07288662078292
_cell_length_c       9.167397481795723
_cell_angle_alpha    114.48500620824284
_cell_angle_beta     95.5261787745597
_cell_angle_gamma    103.0813296559552

_space_group_name_H-M_alt    "P 1"
_space_group_IT_number       1

loop_
  _space_group_symop_operation_xyz
  'x, y, z'

loop_
  _atom_site_type_symbol
  _atom_site_label
  _atom_site_symmetry_multiplicity
  _atom_site_fract_x
  _atom_site_fract_y
  _atom_site_fract_z
  _atom_site_occupancy
  Cu  Cu1       1.0  0.7846277351007985  0.7260442180928308  0.7430343506839848  1.0000
  Cu  Cu2       1.0  0.21539574522738994  0.2739555396115491  0.2569581699123091  1.0000
  H   H1        1.0  0.7854493273768668  0.2647460791654908  0.3452272669478518  1.0000
  H   H2        1.0  0.21456604893928938  0.7352587066649005  0.6547787158233475  1.0000
  H   H3        1.0  0.627485126757314  0.5709250114933011  0.9196215589788324  1.0000
  H   H4        1.0  0.3725111101274691  0.42908103779247125  0.08037910966299212  1.0000
  H   H5        1.0  0.5593329524615811  0.2883974733065528  0.9212678464474423  1.0000
  H   H6        1.0  0.44066261319295547  0.7116098008104783  0.0787485512793679  1.0000
  H   H7        1.0  0.608436042792334  0.04394278541147399  0.6847424682257853  1.0000
  H   H8        1.0  0.3915675666195426  0.9560632519619999  0.3152653089662322  1.0000
  H   H9        1.0  0.7135676536890755  0.09337539278459418  0.4563850828413436  1.0000
  H   H10       1.0  0.2864407846796269  0.9066306572818803  0.5436197990933636  1.0000
  H   H11       1.0  0.867207720295518  0.36258536482652187  0.17144065572571066  1.0000
  H   H12       1.0  0.13280609225980564  0.6374219237266274  0.8285771541820993  1.0000
  H   H13       1.0  0.9146091037369005  0.5993464397231563  0.0915321421375808  1.0000
  H   H14       1.0  0.08539233958020989  0.40064820094362824  0.9084685561340606  1.0000
  H   H15       1.0  0.8765063542749514  0.8759414761034492  0.2814706209775366  1.0000
  H   H16       1.0  0.12348625660098378  0.12406078775602229  0.7185216517490718  1.0000
  H   H17       1.0  0.8148577059530949  0.9111649959032064  0.5547147573781716  1.0000
  H   H18       1.0  0.1851347027203829  0.08883218298097259  0.44528193457615123  1.0000
  C   C1        1.0  0.5261248976658663  0.8934499701111845  0.914380606633877  1.0000
  C   C2        1.0  0.473874144028727  0.10655357151864558  0.08561051024266671  1.0000
  C   C3        1.0  0.6160946012522927  0.030967544443839794  0.07980016737174367  1.0000
  C   C4        1.0  0.3839111115644158  0.9690461277317794  0.9201989409708703  1.0000
  C   C5        1.0  0.9807614268703305  0.053095198612858496  0.957644388959075  1.0000
  C   C6        1.0  0.01922427258002556  0.9468880819254151  0.04233074498534234  1.0000
  C   C7        1.0  0.6433982567623958  0.46006236636910813  0.8202167187958126  1.0000
  C   C8        1.0  0.3565955717912104  0.5399436750962678  0.17978594278113755  1.0000
  C   C9        1.0  0.6056526870421308  0.30362317560628327  0.8197618599705623  1.0000
  C   C10       1.0  0.3943432627965748  0.6963815859822162  0.180245888313145  1.0000
  C   C11       1.0  0.6327284462568555  0.1683548233833321  0.687772082108431  1.0000
  C   C12       1.0  0.3672711037841552  0.8316499528835449  0.3122315861596121  1.0000
  C   C13       1.0  0.6917920481649205  0.19461997293630157  0.562066313537386  1.0000
  C   C14       1.0  0.30820732304494664  0.8053759358162009  0.43793366047935933  1.0000
  C   C15       1.0  0.7270292628204729  0.3578968453000968  0.5696952240015634  1.0000
  C   C16       1.0  0.2729734461345501  0.6420977845379381  0.43030993086733815  1.0000
  C   C17       1.0  0.8123188460422737  0.5129396856544018  0.4050183126522882  1.0000
  C   C18       1.0  0.18767918698052447  0.4870600282570903  0.5949809557943341  1.0000
  C   C19       1.0  0.8534841056802662  0.4853299032564137  0.25149572560646055  1.0000
  C   C20       1.0  0.14651615806018004  0.5146647276045966  0.7485081503586813  1.0000
  C   C21       1.0  0.8793933903378104  0.6156643964524803  0.20746716092560286  1.0000
  C   C22       1.0  0.1206121971937932  0.38432770804287497  0.7925349858558236  1.0000
  C   C23       1.0  0.8606628670861198  0.7718212153921442  0.3140206598004198  1.0000
  C   C24       1.0  0.13933880302237614  0.22817850435436776  0.6859778004694378  1.0000
  C   C25       1.0  0.8243250004218439  0.7913767085269896  0.4637116163793424  1.0000
  C   C26       1.0  0.17567063656424145  0.20862299461632003  0.5362907356153884  1.0000
  N   N1        1.0  0.7049681075042713  0.48823387003399416  0.6995457979382067  1.0000
  N   N2        1.0  0.295028096865309  0.5117594997204263  0.3004539691029678  1.0000
  N   N3        1.0  0.7865913693692974  0.3787175905490229  0.4427881488011494  1.0000
  N   N4        1.0  0.213413541346263  0.6212846505088336  0.5572170621220779  1.0000
  N   N5        1.0  0.8031764313545793  0.6662489973080952  0.5110546739459281  1.0000
  N   N6        1.0  0.19681961440459617  0.33374818741108925  0.4889412098316301  1.0000
  O   O1        1.0  0.5508453976287626  0.7626828855255567  0.8089258461458472  1.0000
  O   O2        1.0  0.44913383655477895  0.23730667937270766  0.191067761219621  1.0000
  O   O3        1.0  0.7539100747664945  0.06955277070587579  0.1772136559914372  1.0000
  O   O4        1.0  0.24609117427443997  0.9304494704125472  0.8227901818826311  1.0000
  O   O5        1.0  0.8748715329785809  0.975089167845752  0.8199871651903833  1.0000
  O   O6        1.0  0.12513363217308893  0.024915725249201198  0.1799755305119533  1.0000
  O   O7        1.0  0.054554165100846305  0.2103867024416317  0.029163621470125606  1.0000
  O   O8        1.0  0.9454397090725235  0.7895939534309233  0.9708470524222292  1.0000
