data_image0
_chemical_formula_structural       Ag4H28C36N16O12
_chemical_formula_sum              "Ag4 H28 C36 N16 O12"
_cell_length_a       5.106407628702939
_cell_length_b       11.025683779133995
_cell_length_c       18.135163049027202
_cell_angle_alpha    89.99941300853457
_cell_angle_beta     93.83377869067988
_cell_angle_gamma    89.9999600008965

_space_group_name_H-M_alt    "P 1"
_space_group_IT_number       1

loop_
  _space_group_symop_operation_xyz
  'x, y, z'

loop_
  _atom_site_type_symbol
  _atom_site_label
  _atom_site_symmetry_multiplicity
  _atom_site_fract_x
  _atom_site_fract_y
  _atom_site_fract_z
  _atom_site_occupancy
  Ag  Ag1       1.0  0.9883215633617652  0.9491343265115831  0.7706690505950888  1.0000
  Ag  Ag2       1.0  0.48831294576360307  0.5508596425000364  0.2706696037966481  1.0000
  Ag  Ag3       1.0  0.011686102927903595  0.05085367120418741  0.2293350616225638  1.0000
  Ag  Ag4       1.0  0.511677996824744  0.4491319831637173  0.7293279210371679  1.0000
  H   H1        1.0  0.3740074671794316  0.7120849219622587  0.7632014408568042  1.0000
  H   H2        1.0  0.8740103058806452  0.7879027514933983  0.2632091463216213  1.0000
  H   H3        1.0  0.6259959133252977  0.2879012619043522  0.2367920525651428  1.0000
  H   H4        1.0  0.12598763987453757  0.21208706017311846  0.7367941139088359  1.0000
  H   H5        1.0  0.1317218527246098  0.4881493378599658  0.5872838037458622  1.0000
  H   H6        1.0  0.6317612926537421  0.0118517502069579  0.0872869760806125  1.0000
  H   H7        1.0  0.8682739362116575  0.5118513575930308  0.4127077995301818  1.0000
  H   H8        1.0  0.36825455346679786  0.9881444102891382  0.9127151809310379  1.0000
  H   H9        1.0  0.769034452232489  0.634480991889184  0.5492315697573318  1.0000
  H   H10       1.0  0.269062323930001  0.8655241932008055  0.04923318166630251  1.0000
  H   H11       1.0  0.23097957325578727  0.3655296803068994  0.4507567329826402  1.0000
  H   H12       1.0  0.7309474713221036  0.1344774091238392  0.9507698923900562  1.0000
  H   H13       1.0  0.45887913760717663  0.7554195363436877  0.5352969464730464  1.0000
  H   H14       1.0  0.9588958478872199  0.7445887717404321  0.03529372708418071  1.0000
  H   H15       1.0  0.5411095918685404  0.2445838799564086  0.4647021657761599  1.0000
  H   H16       1.0  0.041100893343887904  0.2554164585171037  0.9647045286306265  1.0000
  H   H17       1.0  0.13866739870245223  0.9189478027981725  0.5130985918533142  1.0000
  H   H18       1.0  0.6386881135436083  0.5810688412888892  0.013091424436097995  1.0000
  H   H19       1.0  0.8613161481601425  0.0810628692101787  0.4869086392138584  1.0000
  H   H20       1.0  0.3612884301735661  0.41893820287734224  0.9869100712500015  1.0000
  H   H21       1.0  0.1913615971305163  0.11501331460347328  0.5877289186952623  1.0000
  H   H22       1.0  0.6913384041248137  0.38499687974010044  0.0877209389026845  1.0000
  H   H23       1.0  0.8086569100282545  0.884992822521248  0.4122815992508038  1.0000
  H   H24       1.0  0.30864026860834304  0.6150101644365974  0.9122795186610233  1.0000
  H   H25       1.0  0.5725122823984563  0.12957313801914694  0.6809012616968178  1.0000
  H   H26       1.0  0.0724792430160903  0.37043613845229123  0.18090151838440965  1.0000
  H   H27       1.0  0.4275050203147614  0.8704284642855955  0.31910425179066243  1.0000
  H   H28       1.0  0.9275019789949396  0.6295681848409345  0.819095154431082  1.0000
  C   C1        1.0  0.23632339111258452  0.6935776169049462  0.7157149460618939  1.0000
  C   C2        1.0  0.7363270086672528  0.8064144657382715  0.21571650305573803  1.0000
  C   C3        1.0  0.7636796531626474  0.3064158227268905  0.284280744646189  1.0000
  C   C4        1.0  0.26366760360498626  0.19357625293715597  0.7842827908229567  1.0000
  C   C5        1.0  0.09924686773940283  0.5707325768710375  0.6183173835910979  1.0000
  C   C6        1.0  0.5992647853539523  0.9292666590096702  0.1183214687554539  1.0000
  C   C7        1.0  0.9007621433183318  0.4292644906593707  0.38167793937305566  1.0000
  C   C8        1.0  0.4007388750080381  0.07073312935256132  0.8816830716930825  1.0000
  C   C9        1.0  0.9005113138484333  0.6524105438463154  0.5976656224968764  1.0000
  C   C10       1.0  0.40053532080893467  0.8475920237449232  0.0976677652375244  1.0000
  C   C11       1.0  0.09949198255608847  0.3475883376403246  0.4023284202154755  1.0000
  C   C12       1.0  0.5994806934120761  0.15240413676146858  0.9023332931206768  1.0000
  C   C13       1.0  0.88014800102561  0.7574185911376077  0.6404354161743271  1.0000
  C   C14       1.0  0.3801569791513869  0.742581350510477  0.14043877398844273  1.0000
  C   C15       1.0  0.11985913317042217  0.2425775694245474  0.3595592969346413  1.0000
  C   C16       1.0  0.6198491464239594  0.25741934485603934  0.8595625310282315  1.0000
  C   C17       1.0  0.6809373979860994  0.8529229556697828  0.6234234054863351  1.0000
  C   C18       1.0  0.1809304882163687  0.6470844092188842  0.123420172877573  1.0000
  C   C19       1.0  0.3190750305798389  0.14707955366944253  0.3765753344847056  1.0000
  C   C20       1.0  0.8190605383758082  0.3529190071019741  0.8765768025957998  1.0000
  C   C21       1.0  0.4787971220425716  0.8381161499996851  0.5681200321525354  1.0000
  C   C22       1.0  0.9788010930705439  0.6618915616314711  0.0681146647774753  1.0000
  C   C23       1.0  0.5212087513713611  0.16188726627106578  0.4318829208365216  1.0000
  C   C24       1.0  0.021187972616829035  0.3381091337695352  0.9318822501726275  1.0000
  C   C25       1.0  0.2973533249633107  0.9315072323072615  0.5555392327589388  1.0000
  C   C26       1.0  0.7973640819842487  0.568497856599592  0.055533482541378014  1.0000
  C   C27       1.0  0.7026482904222249  0.0684952769693297  0.4444657964774877  1.0000
  C   C28       1.0  0.20262694459364636  0.43150918761418217  0.9444634929216207  1.0000
  C   C29       1.0  0.3251691109625128  0.03829332677325681  0.5962876668483474  1.0000
  C   C30       1.0  0.8251551186340224  0.4617149946127981  0.0962795508671732  1.0000
  C   C31       1.0  0.674842477097492  0.961710089487724  0.40371656638732395  1.0000
  C   C32       1.0  0.1748283164360913  0.5382911426424997  0.9037155344940188  1.0000
  C   C33       1.0  0.5357670896065869  0.046527322567662614  0.6492365822880474  1.0000
  C   C34       1.0  0.03574737506859549  0.45348523710650573  0.14923513966960664  1.0000
  C   C35       1.0  0.46424687961654587  0.9534770006924521  0.350764964842476  1.0000
  C   C36       1.0  0.9642398978001551  0.546516365277853  0.8507606160933963  1.0000
  N   N1        1.0  0.05248621765274914  0.7763489846758631  0.6992818422786443  1.0000
  N   N2        1.0  0.5524903186479618  0.7236432661052704  0.1992849713894458  1.0000
  N   N3        1.0  0.9475009712050378  0.22364264099783782  0.3007144628396148  1.0000
  N   N4        1.0  0.4475001196139843  0.2763547083401932  0.800715849386549  1.0000
  N   N5        1.0  0.26585855961357646  0.5898030083546075  0.6781298855665129  1.0000
  N   N6        1.0  0.7658687837237039  0.9101852616860954  0.17813383772357846  1.0000
  N   N7        1.0  0.7341324670214392  0.4101895242875244  0.3218670899379888  1.0000
  N   N8        1.0  0.2341347926166151  0.08980727088517433  0.8218712520724338  1.0000
  N   N9        1.0  0.7059624176948206  0.9560327484953105  0.663673437964917  1.0000
  N   N10       1.0  0.2059537702909395  0.5439756993165332  0.1636745799117421  1.0000
  N   N11       1.0  0.2940540167416685  0.04397248176909589  0.3363248737337372  1.0000
  N   N12       1.0  0.7940429709437353  0.45602862396777527  0.8363236758056518  1.0000
  N   N13       1.0  0.721888381521353  0.8218411145235932  0.9031086872758396  1.0000
  N   N14       1.0  0.22188789408532725  0.6781565362950915  0.4031132096006615  1.0000
  N   N15       1.0  0.2781095641838647  0.17816139476810386  0.0968945729183019  1.0000
  N   N16       1.0  0.778114141594216  0.32183508932851623  0.5968890730332816  1.0000
  O   O1        1.0  0.6704871217457933  0.8233681877101517  0.8326184846024987  1.0000
  O   O2        1.0  0.17052440801429466  0.6766325515791609  0.3326208697833124  1.0000
  O   O3        1.0  0.3294970134970113  0.17663522854842031  0.16738490119836774  1.0000
  O   O4        1.0  0.8294936511546214  0.32336814379868173  0.6673796997662578  1.0000
  O   O5        1.0  0.9206412220095219  0.8775272710397672  0.9310529594244344  1.0000
  O   O6        1.0  0.420600525823822  0.6224509618627536  0.4310659282706624  1.0000
  O   O7        1.0  0.07937283129954409  0.1224679824932267  0.0689480384053098  1.0000
  O   O8        1.0  0.579371171648951  0.3775207102906393  0.5689414890484416  1.0000
  O   O9        1.0  0.569883369955164  0.7652509975557397  0.9430913476295331  1.0000
  O   O10       1.0  0.06988532248329449  0.7347593990710237  0.4430895641514924  1.0000
  O   O11       1.0  0.43012387599408436  0.2347596744649678  0.05691551115688041  1.0000
  O   O12       1.0  0.9301249770666544  0.26524311025773534  0.556910213941933  1.0000
