data_image0
_chemical_formula_structural       Cd4H24C12N16O16
_chemical_formula_sum              "Cd4 H24 C12 N16 O16"
_cell_length_a       7.651661766979684
_cell_length_b       7.651626261474149
_cell_length_c       13.963807800029363
_cell_angle_alpha    75.44770153985739
_cell_angle_beta     75.44778236027483
_cell_angle_gamma    64.50061994917334

_space_group_name_H-M_alt    "P 1"
_space_group_IT_number       1

loop_
  _space_group_symop_operation_xyz
  'x, y, z'

loop_
  _atom_site_type_symbol
  _atom_site_label
  _atom_site_symmetry_multiplicity
  _atom_site_fract_x
  _atom_site_fract_y
  _atom_site_fract_z
  _atom_site_occupancy
  Cd  Cd1       1.0  0.9479097768005148  0.5802103033032254  0.2746944935251392  1.0000
  Cd  Cd2       1.0  0.41979622954165313  0.052087887638421586  0.225301693313817  1.0000
  Cd  Cd3       1.0  0.05208668738758597  0.41979508727199283  0.7253041443048218  1.0000
  Cd  Cd4       1.0  0.5802092765216217  0.9479116004820083  0.7746957946628826  1.0000
  H   H1        1.0  0.9897230222575429  0.20768174684390317  0.38597012128649766  1.0000
  H   H2        1.0  0.7923182767299793  0.010282162583529  0.11402595135127314  1.0000
  H   H3        1.0  0.010277498884960238  0.7923236245563532  0.6140272425800362  1.0000
  H   H4        1.0  0.20768644837297506  0.9897158655908312  0.8859732784853733  1.0000
  H   H5        1.0  0.9775375952533594  0.3188914532528813  0.4678432475877727  1.0000
  H   H6        1.0  0.6811063009728215  0.022471377680957992  0.03215189150434838  1.0000
  H   H7        1.0  0.02246947530392866  0.6811109573324999  0.5321529043704203  1.0000
  H   H8        1.0  0.3188967126300708  0.9775310520793782  0.9678455344172717  1.0000
  H   H9        1.0  0.16082358198894997  0.8058266353249551  0.1427314062090446  1.0000
  H   H10       1.0  0.19417409163391133  0.8391802533784657  0.3572675324504573  1.0000
  H   H11       1.0  0.8391809295084656  0.1941684625634608  0.8572675418242  1.0000
  H   H12       1.0  0.8058297072182655  0.16082364061597326  0.6427317311135141  1.0000
  H   H13       1.0  0.0495111088094902  0.7578809801210155  0.07580753501287772  1.0000
  H   H14       1.0  0.242123876060731  0.9504870864523126  0.4241923246173016  1.0000
  H   H15       1.0  0.9504916920456524  0.24211852021097968  0.924190325005803  1.0000
  H   H16       1.0  0.7578810635055504  0.04951387286559591  0.5758079029231951  1.0000
  H   H17       1.0  0.5980478657470201  0.42417617626830423  0.3486124437196595  1.0000
  H   H18       1.0  0.5758317180285886  0.40194255463176626  0.151388840713004  1.0000
  H   H19       1.0  0.4019445466334303  0.5758292386275058  0.6513917634764753  1.0000
  H   H20       1.0  0.42417122725922246  0.5980496190764837  0.8486100115378363  1.0000
  H   H21       1.0  0.458133523323987  0.3858977137803947  0.4655086864453181  1.0000
  H   H22       1.0  0.6141003299848151  0.5418603152970648  0.0344920480915292  1.0000
  H   H23       1.0  0.5418603818042412  0.6141003640978582  0.5344927474596943  1.0000
  H   H24       1.0  0.3858941433559835  0.4581362930989101  0.965508078050604  1.0000
  C   C1        1.0  0.6113745064756343  0.1330737216847808  0.39632751934043864  1.0000
  C   C2        1.0  0.8669309814891194  0.3886231862881929  0.10367178771103625  1.0000
  C   C3        1.0  0.3886275151347719  0.8669243204163661  0.6036735143390999  1.0000
  C   C4        1.0  0.13307431182640528  0.6113733724038894  0.896326134362731  1.0000
  C   C5        1.0  0.49985284848168027  0.3489291584944922  0.3897882673800197  1.0000
  C   C6        1.0  0.6510724043372916  0.5001443598823343  0.11021152029665163  1.0000
  C   C7        1.0  0.5001464687783894  0.6510688966758239  0.6102138542419552  1.0000
  C   C8        1.0  0.34892477335384336  0.49985223544446467  0.889787517903045  1.0000
  C   C9        1.0  0.31752851462330517  0.443716491031438  0.3409182963819505  1.0000
  C   C10       1.0  0.5562764251416966  0.6824718410845633  0.1590850985369698  1.0000
  C   C11       1.0  0.6824717314609218  0.5562757008916249  0.6590859392140729  1.0000
  C   C12       1.0  0.443717839740323  0.3175218421710965  0.8409190412045149  1.0000
  N   N1        1.0  0.6365154141418189  0.017723200975851196  0.33125679888333787  1.0000
  N   N2        1.0  0.9822783376046901  0.363488193585404  0.16874213684205588  1.0000
  N   N3        1.0  0.3634843277559483  0.9822807121935498  0.6687437386440606  1.0000
  N   N4        1.0  0.017719477471892644  0.6365171891688135  0.8312548831659967  1.0000
  N   N5        1.0  0.7558521911316305  0.8361216091230189  0.3689237253920509  1.0000
  N   N6        1.0  0.163881267249792  0.24415119073515967  0.1310750137144865  1.0000
  N   N7        1.0  0.24414890251241425  0.16388229708298493  0.6310759102138945  1.0000
  N   N8        1.0  0.8361192538927114  0.7558541806650966  0.8689223501520472  1.0000
  N   N9        1.0  0.8010693577397346  0.8404791858894001  0.4526569682261369  1.0000
  N   N10       1.0  0.15952428815153039  0.19892951197471834  0.047343030324192584  1.0000
  N   N11       1.0  0.19893095322840543  0.15952325865532663  0.5473429774388379  1.0000
  N   N12       1.0  0.8404773737050917  0.8010729247490148  0.9526552975188737  1.0000
  N   N13       1.0  0.7119134683982722  0.024633663086753195  0.4717777748848775  1.0000
  N   N14       1.0  0.9753697073420611  0.2880842800398469  0.02822243758910058  1.0000
  N   N15       1.0  0.2880879832839796  0.9753658467814574  0.5282231347566224  1.0000
  N   N16       1.0  0.024631171838649376  0.7119166950226016  0.9717762003129948  1.0000
  O   O1        1.0  0.19220238978667945  0.6086895702582565  0.3616981725479107  1.0000
  O   O2        1.0  0.3913078306692058  0.8077792096287199  0.13831004070069502  1.0000
  O   O3        1.0  0.8077839765076575  0.3913070833484936  0.638310228724734  1.0000
  O   O4        1.0  0.6086798181985315  0.1922071801049441  0.8616981690792613  1.0000
  O   O5        1.0  0.9145163265159085  0.33456005863725835  0.4107004256860094  1.0000
  O   O6        1.0  0.6654415831897394  0.0854872611468878  0.08929706388371986  1.0000
  O   O7        1.0  0.08548554894625211  0.6654453083724194  0.5892981839604517  1.0000
  O   O8        1.0  0.3345637109835806  0.9145092984028054  0.9107015740905027  1.0000
  O   O9        1.0  0.29259172763957514  0.3610296002984725  0.2791692958598233  1.0000
  O   O10       1.0  0.6389760436358998  0.7074110783383601  0.22082699277900283  1.0000
  O   O11       1.0  0.7074128530307108  0.6389757544996397  0.7208289417446636  1.0000
  O   O12       1.0  0.3610229104392104  0.2925913680241194  0.7791695594046644  1.0000
  O   O13       1.0  0.03299921513723084  0.8019455839541436  0.14187389353082844  1.0000
  O   O14       1.0  0.19805858327733725  0.9670018682736412  0.3581256585497528  1.0000
  O   O15       1.0  0.9670035857179116  0.19805391637785164  0.8581239664878524  1.0000
  O   O16       1.0  0.8019469253593171  0.03299762241960741  0.6418739771283271  1.0000
