data_image0
_chemical_formula_structural       Li12H28C52N8O24
_chemical_formula_sum              "Li12 H28 C52 N8 O24"
_cell_length_a       10.132804389844809
_cell_length_b       10.407527373882566
_cell_length_c       13.246943013205069
_cell_angle_alpha    90.00003696376486
_cell_angle_beta     89.99937852974655
_cell_angle_gamma    106.25891494207701

_space_group_name_H-M_alt    "P 1"
_space_group_IT_number       1

loop_
  _space_group_symop_operation_xyz
  'x, y, z'

loop_
  _atom_site_type_symbol
  _atom_site_label
  _atom_site_symmetry_multiplicity
  _atom_site_fract_x
  _atom_site_fract_y
  _atom_site_fract_z
  _atom_site_occupancy
  Li  Li1       1.0  0.8909612167606015  0.9306520446766626  0.8877832499572521  1.0000
  Li  Li2       1.0  0.10904216748696886  0.5693468054877187  0.38778576190668457  1.0000
  Li  Li3       1.0  0.10903672891060981  0.06934472646980082  0.11221715353978112  1.0000
  Li  Li4       1.0  0.890961572556556  0.43065297980795253  0.6122184160227988  1.0000
  Li  Li5       1.0  0.9459022427305754  0.6739700541402485  0.803510684923964  1.0000
  Li  Li6       1.0  0.05409480152543725  0.8260300556234839  0.30351378066567497  1.0000
  Li  Li7       1.0  0.054103186927413616  0.3260287349159228  0.1964874538690893  1.0000
  Li  Li8       1.0  0.945903013198304  0.17396971581623433  0.6964888875060852  1.0000
  Li  Li9       1.0  0.6930548799916991  0.5245639863273226  0.6688904484633866  1.0000
  Li  Li10      1.0  0.3069371333710366  0.9754325489292557  0.16889227612720256  1.0000
  Li  Li11      1.0  0.306950133217171  0.4754368021618873  0.33110467076731004  1.0000
  Li  Li12      1.0  0.6930555889768328  0.0245632097983659  0.8311088822823935  1.0000
  H   H1        1.0  0.7058930373470106  0.26560357635225534  0.8975929073090257  1.0000
  H   H2        1.0  0.2941126666081075  0.2343962192239744  0.3975879271935909  1.0000
  H   H3        1.0  0.2941085729919593  0.7343922031617753  0.1024090059548541  1.0000
  H   H4        1.0  0.7058922156190236  0.7656075695510438  0.6024139860587213  1.0000
  H   H5        1.0  0.7776944510985473  0.6278846428195733  0.074399002284089  1.0000
  H   H6        1.0  0.22231284125192025  0.8721192370654052  0.5743974785853325  1.0000
  H   H7        1.0  0.22231253720359234  0.3721161502853931  0.925598381611856  1.0000
  H   H8        1.0  0.7776835694732042  0.12788253149885523  0.4256014151370239  1.0000
  H   H9        1.0  0.4437041581201271  0.8230766682420664  0.8238593861683512  1.0000
  H   H10       1.0  0.5562935895998606  0.6769303783741593  0.32385295733058683  1.0000
  H   H11       1.0  0.5563063402327941  0.1769191320633325  0.17614026238523195  1.0000
  H   H12       1.0  0.4437063312331446  0.323066397402954  0.6761406521379386  1.0000
  H   H13       1.0  0.6516374387626911  0.48269529139230355  0.932389138988704  1.0000
  H   H14       1.0  0.3483702849660019  0.017306396079632705  0.43238511031086097  1.0000
  H   H15       1.0  0.3483699659999928  0.5173035022821041  0.0676097546873109  1.0000
  H   H16       1.0  0.6516288028716845  0.9826943785424546  0.5676152931824348  1.0000
  H   H17       1.0  0.38827773336635835  0.4798614926274072  0.5606795653739596  1.0000
  H   H18       1.0  0.6117030717097619  0.020155344246681802  0.060686186674082904  1.0000
  H   H19       1.0  0.6117161311879613  0.5201382695845282  0.4393163087938704  1.0000
  H   H20       1.0  0.3882843437063245  0.9798564052761236  0.9393210108906873  1.0000
  H   H21       1.0  0.19717476891811717  0.5832883674972821  0.5892432001235052  1.0000
  H   H22       1.0  0.8028157361129047  0.9167404298550819  0.089237110488277  1.0000
  H   H23       1.0  0.8028224747166705  0.4167094022033808  0.4107602229412777  1.0000
  H   H24       1.0  0.1971783303974277  0.08327733644475192  0.9107610283566387  1.0000
  H   H25       1.0  0.221606674423093  0.7561020188973232  0.7244811358973919  1.0000
  H   H26       1.0  0.7783914819614639  0.7439153540742255  0.2244706333766473  1.0000
  H   H27       1.0  0.7783967800731019  0.24389676552819148  0.2755237969241763  1.0000
  H   H28       1.0  0.2216074750144017  0.25608842085974004  0.7755207114241784  1.0000
  C   C1        1.0  0.9662651884133739  0.5636794755278843  0.20308525278265685  1.0000
  C   C2        1.0  0.03373730170311271  0.9363139723637847  0.7030830607340093  1.0000
  C   C3        1.0  0.033728545153501  0.43632328696861566  0.7969181702979286  1.0000
  C   C4        1.0  0.9662668074847717  0.0636698105855231  0.2969165878430786  1.0000
  C   C5        1.0  0.6673718452415613  0.7273884955249558  0.7965736489892592  1.0000
  C   C6        1.0  0.3326233288568687  0.772611632439599  0.29657591733367644  1.0000
  C   C7        1.0  0.332635750413246  0.2725832931830254  0.20341543109432084  1.0000
  C   C8        1.0  0.6673721417091798  0.22740413674810614  0.7034184470491882  1.0000
  C   C9        1.0  0.9017512914862351  0.17166652394746512  0.9949949212701272  1.0000
  C   C10       1.0  0.09825631802996786  0.32833095872437223  0.4949946322973419  1.0000
  C   C11       1.0  0.09825102084919027  0.8283282570036691  0.005009256664031601  1.0000
  C   C12       1.0  0.9017488496873868  0.6716738309083754  0.5050140749743477  1.0000
  C   C13       1.0  0.8566819315067775  0.2962927812762004  0.0157186384860282  1.0000
  C   C14       1.0  0.1433213636098642  0.2037072511005107  0.5157161762791916  1.0000
  C   C15       1.0  0.14331812021659832  0.7037009941952448  0.9842802552192325  1.0000
  C   C16       1.0  0.8566828166265239  0.7962975362386403  0.4842827174116878  1.0000
  C   C17       1.0  0.7565726171976195  0.33124218108687853  0.958049680726781  1.0000
  C   C18       1.0  0.2434314701240226  0.1687584141791163  0.458045088297908  1.0000
  C   C19       1.0  0.24343182487090337  0.6687566056521064  0.041952987417254  1.0000
  C   C20       1.0  0.7565693072767344  0.8312413641922943  0.54195607007928  1.0000
  C   C21       1.0  0.7947180773589153  0.5316611349978614  0.057060567826873416  1.0000
  C   C22       1.0  0.20528791866094326  0.9683407978741915  0.5570584784461731  1.0000
  C   C23       1.0  0.20528961293968004  0.4683386595442088  0.9429390807393503  1.0000
  C   C24       1.0  0.7947094796079668  0.0316609729973294  0.4429419250543775  1.0000
  C   C25       1.0  0.8897879999528657  0.4868663471243055  0.11360679344970491  1.0000
  C   C26       1.0  0.1102163604376685  0.0131353696074896  0.6136075303993779  1.0000
  C   C27       1.0  0.11021714415779368  0.5131314410617164  0.8863921002354332  1.0000
  C   C28       1.0  0.889780906895183  0.9868694015597654  0.3863936279936128  1.0000
  C   C29       1.0  0.529052463388382  0.6853196812312916  0.7441281498040482  1.0000
  C   C30       1.0  0.47093646033207665  0.8146836033825909  0.24412778194353993  1.0000
  C   C31       1.0  0.47094971807951674  0.31467810003048413  0.2558677243287947  1.0000
  C   C32       1.0  0.5290597957646382  0.18531416401205553  0.7558733764519019  1.0000
  C   C33       1.0  0.4265433716705403  0.747063354385219  0.7652595033568377  1.0000
  C   C34       1.0  0.5734515742094928  0.7529378751576559  0.2652537249695115  1.0000
  C   C35       1.0  0.573460915832392  0.25293143119780837  0.23473712565766655  1.0000
  C   C36       1.0  0.4265459550354294  0.24706089542681303  0.7347406394005775  1.0000
  C   C37       1.0  0.7259181830218041  0.45117257546122863  0.9786228861954314  1.0000
  C   C38       1.0  0.2740861641391419  0.04882995386758891  0.478618734556271  1.0000
  C   C39       1.0  0.2740862590809883  0.5488262112852027  0.021375252601721705  1.0000
  C   C40       1.0  0.7259108176635111  0.9511738164332401  0.5213809140553636  1.0000
  C   C41       1.0  0.39698438338626124  0.5557420109614666  0.6192092783413656  1.0000
  C   C42       1.0  0.60299899355104  0.9442736695841629  0.11920938933658223  1.0000
  C   C43       1.0  0.6030113016843188  0.44425375470778056  0.3807843311444756  1.0000
  C   C44       1.0  0.3969927886034981  0.05573608975945632  0.8807917690804035  1.0000
  C   C45       1.0  0.29004622184734796  0.6137015754067009  0.6349122270861118  1.0000
  C   C46       1.0  0.7099465075746424  0.8863130757212618  0.13490764757781903  1.0000
  C   C47       1.0  0.7099538535284111  0.38629920152139624  0.36509044107652505  1.0000
  C   C48       1.0  0.29004766617939043  0.11369468881748192  0.8650912461553091  1.0000
  C   C49       1.0  0.3044669220186408  0.7102545838357628  0.7101952207240034  1.0000
  C   C50       1.0  0.6955238118918816  0.7897568170528828  0.21018693824518664  1.0000
  C   C51       1.0  0.6955389240941797  0.28974220578860604  0.2898051827402668  1.0000
  C   C52       1.0  0.3044702072908477  0.2102469463286596  0.7898066712495578  1.0000
  N   N1        1.0  0.920469580540555  0.37250013546571387  0.0926161344517595  1.0000
  N   N2        1.0  0.0795360849816902  0.1275016526277355  0.5926141633827343  1.0000
  N   N3        1.0  0.0795355635472675  0.6274976527153414  0.9073857787979592  1.0000
  N   N4        1.0  0.9204628719199377  0.8725021222900938  0.4073869950029946  1.0000
  N   N5        1.0  0.5140470353157909  0.589038353390002  0.6729729034487946  1.0000
  N   N6        1.0  0.48594226282561703  0.9109661638364415  0.17297698847008997  1.0000
  N   N7        1.0  0.48595909638433454  0.4109594371132061  0.32702146088536926  1.0000
  N   N8        1.0  0.5140489245419034  0.0890345923015303  0.8270271895117034  1.0000
  O   O1        1.0  0.7449233919716179  0.6510785178461448  0.7853926155254457  1.0000
  O   O2        1.0  0.2550682865769859  0.8489226385228293  0.2853978299411608  1.0000
  O   O3        1.0  0.2550696396102268  0.34892524321573154  0.2146070331025669  1.0000
  O   O4        1.0  0.7449352751743277  0.1510661441440817  0.7146063479863187  1.0000
  O   O5        1.0  0.8270262771800533  0.08361318332365641  0.9361672970922685  1.0000
  O   O6        1.0  0.17297899776755093  0.41639048651992994  0.4361686968334198  1.0000
  O   O7        1.0  0.17296192389232365  0.9163805644334037  0.0638300868798396  1.0000
  O   O8        1.0  0.8270431130623166  0.5836183435579231  0.5638317065663898  1.0000
  O   O9        1.0  0.036089180159940844  0.5029690855141311  0.25545136527469486  1.0000
  O   O10       1.0  0.9639060449890948  0.9970291759856168  0.7554513008434399  1.0000
  O   O11       1.0  0.9639088727092898  0.4970176838613087  0.7445558322397263  1.0000
  O   O12       1.0  0.0360831909546633  0.0029785769969806006  0.24455212225704775  1.0000
  O   O13       1.0  0.9554474584078606  0.6797564884221785  0.21904448032481844  1.0000
  O   O14       1.0  0.0445514348148208  0.8202459009345799  0.7190421406694443  1.0000
  O   O15       1.0  0.044546775176620236  0.3202272714185669  0.7809619623135405  1.0000
  O   O16       1.0  0.955448711609442  0.17977588038336023  0.280959772606991  1.0000
  O   O17       1.0  0.6975107968292991  0.8366948658322501  0.8454686056912379  1.0000
  O   O18       1.0  0.3024822335529649  0.6633070984171496  0.3454688048801843  1.0000
  O   O19       1.0  0.3024887311156021  0.16331091081469407  0.1545378369306505  1.0000
  O   O20       1.0  0.697514546253707  0.33667866778709055  0.6545338632923788  1.0000
  O   O21       1.0  0.009270678785135515  0.1626773184756161  0.0384783136339877  1.0000
  O   O22       1.0  0.9907293092801694  0.3373226320907393  0.5384847410873946  1.0000
  O   O23       1.0  0.9907177841650637  0.8373104286912108  0.9615168056621073  1.0000
  O   O24       1.0  0.009294954929465898  0.6626972052303727  0.4615186818708139  1.0000
