data_image0
_chemical_formula_structural       CuH18C12Br2N6O4
_chemical_formula_sum              "Cu1 H18 C12 Br2 N6 O4"
_cell_length_a       3.995890003155918
_cell_length_b       6.690625244304774
_cell_length_c       16.915442128846873
_cell_angle_alpha    97.82122665796838
_cell_angle_beta     97.33116593205611
_cell_angle_gamma    97.438328194355

_space_group_name_H-M_alt    "P 1"
_space_group_IT_number       1

loop_
  _space_group_symop_operation_xyz
  'x, y, z'

loop_
  _atom_site_type_symbol
  _atom_site_label
  _atom_site_symmetry_multiplicity
  _atom_site_fract_x
  _atom_site_fract_y
  _atom_site_fract_z
  _atom_site_occupancy
  Cu  Cu1       1.0  0.5000080553391868  0.5000016986975809  0.5000000358499223  1.0000
  H   H1        1.0  0.25686556908223673  0.865319006832223  0.42898542176102694  1.0000
  H   H2        1.0  0.7431714786518667  0.1346876888552515  0.5710159833285573  1.0000
  H   H3        1.0  0.26277105989495203  0.972347567867992  0.21645274037455664  1.0000
  H   H4        1.0  0.7372121274976564  0.027655433253265502  0.7835458233901775  1.0000
  H   H5        1.0  0.15218834968398198  0.07784898882930952  0.3094837151753751  1.0000
  H   H6        1.0  0.8478095229091166  0.9221511853174108  0.6905180566697738  1.0000
  H   H7        1.0  0.48272212060162906  0.3832253115780873  0.041564684514860104  1.0000
  H   H8        1.0  0.5172629440626935  0.61676253057135  0.9584355030837486  1.0000
  H   H9        1.0  0.907142130588838  0.515100670789252  0.06849148775927462  1.0000
  H   H10       1.0  0.09283923509973852  0.48489322273923097  0.9315095066414828  1.0000
  H   H11       1.0  0.6714643541769688  0.0647949476703573  0.08525208453728081  1.0000
  H   H12       1.0  0.32852277345381964  0.9351913625843267  0.9147457142200539  1.0000
  H   H13       1.0  0.09608811687495941  0.1963428344415448  0.1132189494063169  1.0000
  H   H14       1.0  0.9039081305916808  0.8036497213814117  0.8867829713220062  1.0000
  H   H15       1.0  0.9034538417639268  0.1505757453448808  0.010229795596444512  1.0000
  H   H16       1.0  0.09654323204964042  0.8494213416456944  0.9897694282505612  1.0000
  H   H17       1.0  0.6476607718541911  0.3755825710636031  0.3228899903488909  1.0000
  H   H18       1.0  0.352360229734593  0.6244208406466784  0.677107259041243  1.0000
  C   C1        1.0  0.5485446966408674  0.519370241608101  0.32745189066673674  1.0000
  C   C2        1.0  0.45147047540164914  0.4806407352729707  0.6725473691161739  1.0000
  C   C3        1.0  0.4943506518523931  0.6460376519751848  0.2683756232301064  1.0000
  C   C4        1.0  0.5056526124469798  0.35396410721926247  0.7316263781803656  1.0000
  C   C5        1.0  0.3660424470067696  0.8149835099338321  0.30727038081112573  1.0000
  C   C6        1.0  0.6339666359560355  0.18502282189788846  0.6927278792842773  1.0000
  C   C7        1.0  0.5433756984037926  0.6154655849066587  0.18475845369606256  1.0000
  C   C8        1.0  0.45661203099606945  0.3845494778227021  0.8152296305834454  1.0000
  C   C9        1.0  0.7244015040912899  0.3906286224775927  0.0814349993867083  1.0000
  C   C10       1.0  0.2755852533035609  0.6093668560986175  0.9185662245793722  1.0000
  C   C11       1.0  0.8559133836194873  0.18848298159878854  0.0725754197267818  1.0000
  C   C12       1.0  0.14407297438559402  0.8115109533993491  0.9274245302402235  1.0000
  Br  Br1       1.0  0.009613614002347512  0.2207723174875511  0.44455377342320906  1.0000
  Br  Br2       1.0  0.9903876148979619  0.7792324176131302  0.5554453719490696  1.0000
  N   N1        1.0  0.4631278213972364  0.6009119532296978  0.3966991765233985  1.0000
  N   N2        1.0  0.5368940127731108  0.39909455468824023  0.603301213490198  1.0000
  N   N3        1.0  0.3539593315411977  0.7821123811001556  0.3842366366856923  1.0000
  N   N4        1.0  0.6460553797421155  0.2178955991398581  0.6157660013522772  1.0000
  N   N5        1.0  0.2795443687044852  0.9806436830877275  0.27728012811262914  1.0000
  N   N6        1.0  0.7204553318272601  0.0193641636918045  0.7227250506012767  1.0000
  O   O1        1.0  0.4768509902082911  0.7335706306778892  0.13655116401774595  1.0000
  O   O2        1.0  0.5231636752366171  0.26641305584299596  0.8634537506141697  1.0000
  O   O3        1.0  0.6683930758354535  0.4390775676613147  0.16475813346155385  1.0000
  O   O4        1.0  0.33159641898007663  0.5609072921621986  0.8352426100824104  1.0000
