data_image0
_chemical_formula_structural       Sr4H52C20N4O28
_chemical_formula_sum              "Sr4 H52 C20 N4 O28"
_cell_length_a       7.270651515460213
_cell_length_b       8.259333308599858
_cell_length_c       15.873824478080358
_cell_angle_alpha    89.99959534441436
_cell_angle_beta     90.0004900882778
_cell_angle_gamma    89.99999629167016

_space_group_name_H-M_alt    "P 1"
_space_group_IT_number       1

loop_
  _space_group_symop_operation_xyz
  'x, y, z'

loop_
  _atom_site_type_symbol
  _atom_site_label
  _atom_site_symmetry_multiplicity
  _atom_site_fract_x
  _atom_site_fract_y
  _atom_site_fract_z
  _atom_site_occupancy
  Sr  Sr1       1.0  0.5376200637041677  0.24959407284536883  0.9277461180416111  1.0000
  Sr  Sr2       1.0  0.9623722550438529  0.7504101169554219  0.42774912024332673  1.0000
  Sr  Sr3       1.0  0.4623799804931608  0.7496034290563285  0.5722530605689968  1.0000
  Sr  Sr4       1.0  0.0376227500702058  0.2503945371617818  0.0722534983874965  1.0000
  H   H1        1.0  0.5186756491765864  0.9872845231564751  0.2263668104682779  1.0000
  H   H2        1.0  0.9813288178562304  0.012716077760593702  0.7263735649974947  1.0000
  H   H3        1.0  0.4813310292795877  0.48730050218311044  0.2736351727059301  1.0000
  H   H4        1.0  0.018674682268766705  0.5126913669079657  0.7736287690991546  1.0000
  H   H5        1.0  0.8329219320850569  0.030755759399582396  0.242434671186075  1.0000
  H   H6        1.0  0.667081017020351  0.9692474077237069  0.7424391073409922  1.0000
  H   H7        1.0  0.16708315462253862  0.5307688871720445  0.2575618366390913  1.0000
  H   H8        1.0  0.3329199489057402  0.46923373418586317  0.7575617724713338  1.0000
  H   H9        1.0  0.889508696259476  0.9358623565161324  0.1532053025867981  1.0000
  H   H10       1.0  0.6104834272465283  0.06413946641620781  0.65321179667648  1.0000
  H   H11       1.0  0.11050698486899081  0.43587417398593703  0.3467948749875376  1.0000
  H   H12       1.0  0.3895151963638881  0.5641273699180402  0.8467910831991148  1.0000
  H   H13       1.0  0.4002708297913813  0.8242068781507328  0.1064889744476858  1.0000
  H   H14       1.0  0.09972178952968849  0.17578760578047078  0.6064862764364705  1.0000
  H   H15       1.0  0.5997533572841789  0.32421743928586716  0.3935106481559671  1.0000
  H   H16       1.0  0.9002738301967027  0.6757769149040058  0.8935089688259694  1.0000
  H   H17       1.0  0.5339097017524709  0.7092068799017995  0.1776280782106667  1.0000
  H   H18       1.0  0.9661034963093726  0.2908017981362718  0.677628543410364  1.0000
  H   H19       1.0  0.4661147873475855  0.20922914059347159  0.3223766235919143  1.0000
  H   H20       1.0  0.0338863191783432  0.7907740234024205  0.8223717021856842  1.0000
  H   H21       1.0  0.706683124508686  0.865246201526283  0.021496899090109895  1.0000
  H   H22       1.0  0.7932939344540698  0.13475346358461587  0.521501638952202  1.0000
  H   H23       1.0  0.2933487159226402  0.36526706593997466  0.47850693905019875  1.0000
  H   H24       1.0  0.2066912804963366  0.6347439002470026  0.9784994703377237  1.0000
  H   H25       1.0  0.801576437146622  0.712344866651442  0.0852684212377923  1.0000
  H   H26       1.0  0.6984014733817077  0.2876638850911419  0.5852834990737961  1.0000
  H   H27       1.0  0.1984149972398441  0.2123652681449073  0.4147262339161699  1.0000
  H   H28       1.0  0.3015966404245275  0.7876559838443812  0.9147097837914016  1.0000
  H   H29       1.0  0.6811921272285915  0.22747067889988407  0.7493574534383782  1.0000
  H   H30       1.0  0.8188087926063689  0.7725283967128576  0.2493592398568012  1.0000
  H   H31       1.0  0.31879861213048605  0.7274569059391282  0.7506421200832492  1.0000
  H   H32       1.0  0.18119826805619252  0.2725401206414446  0.250645503740536  1.0000
  H   H33       1.0  0.7736035061415762  0.3598950093775882  0.8135443443267931  1.0000
  H   H34       1.0  0.7263982263530269  0.6401107040271725  0.3135497292482441  1.0000
  H   H35       1.0  0.22638942726013056  0.8598856716646709  0.6864585246310925  1.0000
  H   H36       1.0  0.2735956368177029  0.14011440290692428  0.18645675855535157  1.0000
  H   H37       1.0  0.3245765303723687  0.9913252839472051  0.7994862721248239  1.0000
  H   H38       1.0  0.1754198616696954  0.008676977241407301  0.2994835456194522  1.0000
  H   H39       1.0  0.6754199871850445  0.49133133635382364  0.7005135821172318  1.0000
  H   H40       1.0  0.8245676671730423  0.5086697693335721  0.2005133574909266  1.0000
  H   H41       1.0  0.20183004182723607  0.05082115567356742  0.8775855249714583  1.0000
  H   H42       1.0  0.2981699748830309  0.9491735020318474  0.3775842056878673  1.0000
  H   H43       1.0  0.7981646499416186  0.5508297310543926  0.6224134337988261  1.0000
  H   H44       1.0  0.7018193797152463  0.4491753458199739  0.1224148528108273  1.0000
  H   H45       1.0  0.8345917071074708  0.9848554485745707  0.9093344946430406  1.0000
  H   H46       1.0  0.6654147298913529  0.015149963129523802  0.4093315599861711  1.0000
  H   H47       1.0  0.1654049047677262  0.4848594491311076  0.5906671808259033  1.0000
  H   H48       1.0  0.3345823324256827  0.5151324523372978  0.0906635219983372  1.0000
  H   H49       1.0  0.6658931215561382  0.8669483880984785  0.8944252355767546  1.0000
  H   H50       1.0  0.834107846755238  0.1330616448964506  0.3944275877391162  1.0000
  H   H51       1.0  0.33410245957598755  0.3669472336098849  0.6055795982255602  1.0000
  H   H52       1.0  0.1658888704933759  0.6330485215695206  0.1055718955528704  1.0000
  C   C1        1.0  0.5761201027439995  0.09775700068390591  0.1057485986191651  1.0000
  C   C2        1.0  0.9238696273997605  0.9022346527861347  0.6057543856468328  1.0000
  C   C3        1.0  0.4238798798127518  0.597771197470756  0.39425806977386907  1.0000
  C   C4        1.0  0.07612268805965532  0.40222356485462285  0.8942539724060622  1.0000
  C   C5        1.0  0.6067599368182642  0.9628647702023017  0.1714416269250236  1.0000
  C   C6        1.0  0.8932414676291386  0.037137054018927515  0.6714336052260279  1.0000
  C   C7        1.0  0.39325947650249293  0.4628809621879953  0.3285588373128334  1.0000
  C   C8        1.0  0.10675479946471711  0.5371266344220731  0.8285620583902045  1.0000
  C   C9        1.0  0.540514528269675  0.8048675600117436  0.129686859424659  1.0000
  C   C10       1.0  0.9594701896355674  0.19513703427701048  0.6296880161634562  1.0000
  C   C11       1.0  0.459500313017486  0.3048841443545811  0.3703157076644388  1.0000
  C   C12       1.0  0.0405306491822088  0.6951182604551179  0.8703124742356678  1.0000
  C   C13       1.0  0.6720566587278541  0.7577373174983959  0.0583804707980349  1.0000
  C   C14       1.0  0.8279155401791838  0.2422707970843802  0.5583854193849334  1.0000
  C   C15       1.0  0.32795611962867344  0.25774890929048416  0.4416171862463401  1.0000
  C   C16       1.0  0.17208736182591614  0.7422596614669034  0.9416130514633281  1.0000
  C   C17       1.0  0.6009232189180409  0.628631107702738  0.9997108689632271  1.0000
  C   C18       1.0  0.8990994367714293  0.37135256764048563  0.4997118777152139  1.0000
  C   C19       1.0  0.3990923438405645  0.12863403408898932  0.5002914357691353  1.0000
  C   C20       1.0  0.10090755773758531  0.8713578101454261  0.000289504936589  1.0000
  N   N1        1.0  0.7952067136550552  0.9417529585626241  0.2013638165208604  1.0000
  N   N2        1.0  0.7047891122972344  0.0582396151472224  0.7013741159940707  1.0000
  N   N3        1.0  0.2048102569289654  0.4417641838138024  0.2986364235877588  1.0000
  N   N4        1.0  0.29520409571106393  0.558226026430887  0.7986312210525881  1.0000
  O   O1        1.0  0.7122045425631498  0.14541318484698  0.061882917959280796  1.0000
  O   O2        1.0  0.7877810797012046  0.8545886438605024  0.5618819158376169  1.0000
  O   O3        1.0  0.28778511703686854  0.645425369528205  0.43812299614091893  1.0000
  O   O4        1.0  0.21221468198233143  0.3545725360173861  0.9381202668367122  1.0000
  O   O5        1.0  0.41162483426755614  0.14531122471637298  0.0919194107595303  1.0000
  O   O6        1.0  0.08835953397133518  0.854680593744213  0.5919128945886172  1.0000
  O   O7        1.0  0.5883744545344243  0.6453239234437265  0.4080871323623043  1.0000
  O   O8        1.0  0.9116348509957746  0.3546743064249256  0.9080873991909684  1.0000
  O   O9        1.0  0.5515905255157135  0.4928492735131229  0.0331137963086974  1.0000
  O   O10       1.0  0.9483689311485294  0.5071605174695436  0.5331185879714724  1.0000
  O   O11       1.0  0.4483926906009899  0.9928468182674665  0.466880055921628  1.0000
  O   O12       1.0  0.051626398270038  0.007147968848165899  0.966869197851203  1.0000
  O   O13       1.0  0.5953398867249646  0.6556055920764905  0.9211898449051785  1.0000
  O   O14       1.0  0.9046503007688642  0.34436271008586783  0.421195760987267  1.0000
  O   O15       1.0  0.4046505258064244  0.15559247428693368  0.5788070759753694  1.0000
  O   O16       1.0  0.09535296171391393  0.8443687348704214  0.0787971455788465  1.0000
  O   O17       1.0  0.661125649767051  0.33918559694190265  0.7797543503500678  1.0000
  O   O18       1.0  0.8388655214642782  0.6608175156174595  0.2797529860508448  1.0000
  O   O19       1.0  0.33886621041708764  0.8391716438260701  0.7202482987702298  1.0000
  O   O20       1.0  0.16112666431745032  0.1608310317009298  0.2202499417448607  1.0000
  O   O21       1.0  0.30861701083084364  0.07923928285922699  0.8416418135182226  1.0000
  O   O22       1.0  0.1913864015547375  0.9207565489303422  0.3416429091413917  1.0000
  O   O23       1.0  0.6913772665522161  0.5792418567995908  0.6583536670213306  1.0000
  O   O24       1.0  0.8086143709743326  0.4207596248209314  0.1583514381445355  1.0000
  O   O25       1.0  0.7086687959871582  0.9800948557165298  0.8856238859211274  1.0000
  O   O26       1.0  0.7913275025434245  0.019916972185491495  0.3856200743657396  1.0000
  O   O27       1.0  0.2913223838544141  0.48009990316109  0.6143758490482297  1.0000
  O   O28       1.0  0.20866536399191196  0.5198989003426534  0.1143763180879844  1.0000
