data_image0
_chemical_formula_structural       Zr6H40C72O56
_chemical_formula_sum              "Zr6 H40 C72 O56"
_cell_length_a       17.021939201285793
_cell_length_b       17.141914968516243
_cell_length_c       16.95950439252916
_cell_angle_alpha    59.887299924718775
_cell_angle_beta     60.59310037174713
_cell_angle_gamma    59.52249097858324

_space_group_name_H-M_alt    "P 1"
_space_group_IT_number       1

loop_
  _space_group_symop_operation_xyz
  'x, y, z'

loop_
  _atom_site_type_symbol
  _atom_site_label
  _atom_site_symmetry_multiplicity
  _atom_site_fract_x
  _atom_site_fract_y
  _atom_site_fract_z
  _atom_site_occupancy
  Zr  Zr1       1.0  0.8975180435796942  0.39743922062459086  0.6025288964694865  1.0000
  Zr  Zr2       1.0  0.10254991181232513  0.602463855443439  0.39751800394294884  1.0000
  Zr  Zr3       1.0  0.1044466780573359  0.3955299349917212  0.6044652277963536  1.0000
  Zr  Zr4       1.0  0.8956023945759455  0.6043942820906665  0.39558575498737275  1.0000
  Zr  Zr5       1.0  0.8962226794215482  0.6037663339742139  0.6037740946607925  1.0000
  Zr  Zr6       1.0  0.1038009034190211  0.39617783119823696  0.3962360875387887  1.0000
  H   H1        1.0  0.9198926766567725  0.4177010246532262  0.745111914940331  1.0000
  H   H2        1.0  0.9173082355411495  0.7451255150823288  0.4176805507047804  1.0000
  H   H3        1.0  0.24516482880938648  0.41726388827687794  0.4198720222910238  1.0000
  H   H4        1.0  0.9177165446148551  0.41985333319132645  0.4173189801594929  1.0000
  H   H5        1.0  0.6518075039812177  0.6447093785601224  0.8439510757499065  1.0000
  H   H6        1.0  0.3437514510379601  0.35972204152378134  0.15163295560527956  1.0000
  H   H7        1.0  0.1447581923134749  0.15173622538484466  0.35971323555992285  1.0000
  H   H8        1.0  0.8596041984441171  0.8438866793082408  0.6446671476312602  1.0000
  H   H9        1.0  0.653480500588714  0.843201086939409  0.35814377727376734  1.0000
  H   H10       1.0  0.34329558401197613  0.15349094342476385  0.6450209269964587  1.0000
  H   H11       1.0  0.8582462330093323  0.6450880276884162  0.1534864994676256  1.0000
  H   H12       1.0  0.1451940356016409  0.35833408941820705  0.843088092256515  1.0000
  H   H13       1.0  0.1428510345510575  0.15329940959399105  0.8423596139061048  1.0000
  H   H14       1.0  0.8612375374196973  0.8424677056915115  0.15354346201319663  1.0000
  H   H15       1.0  0.6533760578466073  0.6428490162949886  0.36152894726358653  1.0000
  H   H16       1.0  0.342349746689486  0.361336243493362  0.642945739367441  1.0000
  H   H17       1.0  0.5463873537079923  0.32071390340001926  0.9523523743140031  1.0000
  H   H18       1.0  0.6852752751871879  0.3863970100923593  0.8098926634384824  1.0000
  H   H19       1.0  0.4524881068263725  0.6804079475003063  0.04656172306145842  1.0000
  H   H20       1.0  0.30998020340619103  0.6183439624569899  0.1853746852362192  1.0000
  H   H21       1.0  0.820530309726273  0.04647722862856087  0.6804581400528205  1.0000
  H   H22       1.0  0.8862764296054879  0.1852605180874249  0.6184944662623623  1.0000
  H   H23       1.0  0.18042020972734468  0.9525922660230035  0.32048511683748165  1.0000
  H   H24       1.0  0.11835828425166295  0.8101138579923414  0.3860920209344982  1.0000
  H   H25       1.0  0.5478576515594547  0.9510537742345303  0.6829291511749032  1.0000
  H   H26       1.0  0.6878254466329211  0.8088911326574928  0.6201761847087113  1.0000
  H   H27       1.0  0.45102990096248163  0.04771960740796999  0.31810542936560887  1.0000
  H   H28       1.0  0.3089260176349812  0.18773505267191123  0.38302995501988585  1.0000
  H   H29       1.0  0.18301545088157672  0.3181253272015141  0.04777636241535532  1.0000
  H   H30       1.0  0.12029882239305319  0.383053675133084  0.18773201813488075  1.0000
  H   H31       1.0  0.8181248887009932  0.6830614692720758  0.951078867431164  1.0000
  H   H32       1.0  0.8830457449521134  0.6202974847258321  0.8089272971089372  1.0000
  H   H33       1.0  0.818277342123885  0.0464326567904935  0.9526273364771425  1.0000
  H   H34       1.0  0.8814596473942232  0.18654109025505505  0.8098275242125866  1.0000
  H   H35       1.0  0.18266355977269919  0.9525004900430999  0.04644486697507235  1.0000
  H   H36       1.0  0.12216917909543683  0.8097189744768298  0.1865702425433753  1.0000
  H   H37       1.0  0.5464952742474412  0.31820732535699386  0.6826369948969884  1.0000
  H   H38       1.0  0.6865545628562232  0.38141353730271993  0.6222752173299211  1.0000
  H   H39       1.0  0.452524166863846  0.6827137711965746  0.31847753794129835  1.0000
  H   H40       1.0  0.3097794865435049  0.6221765124819284  0.3815681035134376  1.0000
  C   C1        1.0  0.7309169514080125  0.5106727966110114  0.7631536774362643  1.0000
  C   C2        1.0  0.99528579584716  0.7631807492370154  0.5105675749576619  1.0000
  C   C3        1.0  0.2631437066700783  0.4952703831019889  0.23091400813050467  1.0000
  C   C4        1.0  0.010660004693058158  0.23086278933669746  0.49536117487368597  1.0000
  C   C5        1.0  0.0069716076363875714  0.23190894028602574  0.7629157675087724  1.0000
  C   C6        1.0  0.7320009402203312  0.5069101602277966  0.49825641892827827  1.0000
  C   C7        1.0  0.9981831717411896  0.7628470641585492  0.23200181815317233  1.0000
  C   C8        1.0  0.2628632541964892  0.49818979283514137  0.5070041512011868  1.0000
  C   C9        1.0  0.008958920087273756  0.4946122940864368  0.7638700562699796  1.0000
  C   C10       1.0  0.26390489294202285  0.2325448239568359  0.5089420126768261  1.0000
  C   C11       1.0  0.9945808850403709  0.5089091217672886  0.23262198026674236  1.0000
  C   C12       1.0  0.7325968426934892  0.7638768385221014  0.4945460099769221  1.0000
  C   C13       1.0  0.5971316278883027  0.45311690981283437  0.8993733558930614  1.0000
  C   C14       1.0  0.6137000026478177  0.5942163863573668  0.8825314483683044  1.0000
  C   C15       1.0  0.534768355319045  0.6056771969370444  0.9628877931963373  1.0000
  C   C16       1.0  0.4824381288244339  0.5403534616587604  0.014883539527929231  1.0000
  C   C17       1.0  0.39939294727452096  0.5503536240368802  0.09715957299628995  1.0000
  C   C18       1.0  0.3824024197546336  0.40966679245241266  0.11360654055759778  1.0000
  C   C19       1.0  0.4627739092164164  0.39678419729020925  0.03468009945203223  1.0000
  C   C20       1.0  0.5148459307362505  0.4623641355719101  0.9824231011417197  1.0000
  C   C21       1.0  0.6460396716092096  0.5186542700095412  0.849350179223535  1.0000
  C   C22       1.0  0.3493032073476384  0.4860054424860607  0.1459975272022405  1.0000
  C   C23       1.0  0.9530275936590584  0.09718732520224885  0.5503211996340341  1.0000
  C   C24       1.0  0.09419093652790177  0.11371264737042003  0.4096077538519153  1.0000
  C   C25       1.0  0.10559832487791006  0.03484319083727878  0.3966512202147853  1.0000
  C   C26       1.0  0.040214819826474006  0.9825736644660026  0.4622069696149893  1.0000
  C   C27       1.0  0.05025123275748204  0.8995284470237054  0.45294503996451135  1.0000
  C   C28       1.0  0.9095454471867016  0.8825493179385402  0.5941324392774875  1.0000
  C   C29       1.0  0.8966044718161688  0.962931629913889  0.6056018835649939  1.0000
  C   C30       1.0  0.9621914442408157  0.014979734121126909  0.5402426714614705  1.0000
  C   C31       1.0  0.018640734040012357  0.14601462628428408  0.48601787967012905  1.0000
  C   C32       1.0  0.9859162110551553  0.8494157886902514  0.5185416303887109  1.0000
  C   C33       1.0  0.598236758132366  0.8991894392126126  0.550996548014524  1.0000
  C   C34       1.0  0.6146506201319613  0.8824482057755245  0.4082223314664474  1.0000
  C   C35       1.0  0.5347859263536211  0.9632334952692287  0.3950355152549322  1.0000
  C   C36       1.0  0.48271855611992026  0.015225055808457493  0.4613608661258155  1.0000
  C   C37       1.0  0.3992357186004228  0.09818583498967827  0.45149211472691764  1.0000
  C   C38       1.0  0.3825188054507152  0.114637027480903  0.5945596236425104  1.0000
  C   C39       1.0  0.4633230786595137  0.03478576852185711  0.6067873156034835  1.0000
  C   C40       1.0  0.5152793951223348  0.982679513888605  0.5405817516858135  1.0000
  C   C41       1.0  0.6469686868205503  0.8496838615104849  0.48561233336317855  1.0000
  C   C42       1.0  0.349730380946646  0.1469237284501475  0.5176572469957533  1.0000
  C   C43       1.0  0.051139691744658905  0.45157735954205686  0.09814569310081113  1.0000
  C   C44       1.0  0.9083441813019775  0.5946407924898619  0.11461940130129736  1.0000
  C   C45       1.0  0.8951594982953069  0.6069170546452795  0.03475017338423215  1.0000
  C   C46       1.0  0.9614997224160575  0.5407495304854775  0.9826008644645723  1.0000
  C   C47       1.0  0.9515746654705527  0.5511494560576649  0.8991417001562143  1.0000
  C   C48       1.0  0.09469234843808065  0.4083869617831439  0.882357492164786  1.0000
  C   C49       1.0  0.10693305298923446  0.3951772904249963  0.9631665212963653  1.0000
  C   C50       1.0  0.04075137474397657  0.46151164754295587  0.015151283925966774  1.0000
  C   C51       1.0  0.98570322735911  0.5176878593172274  0.1469510576043689  1.0000
  C   C52       1.0  0.017721288504169885  0.48574189001847407  0.8496417406409191  1.0000
  C   C53       1.0  0.9506630976174649  0.0975683112600977  0.8994178326552739  1.0000
  C   C54       1.0  0.09286657946157846  0.11454689336532918  0.8817789508936683  1.0000
  C   C55       1.0  0.10589250117453029  0.03521352689477205  0.9625166758794703  1.0000
  C   C56       1.0  0.040789341621469  0.9826866051328053  0.014960332211998776  1.0000
  C   C57       1.0  0.05227717972059764  0.8993665597573466  0.09764610785094871  1.0000
  C   C58       1.0  0.9106836410372097  0.8817631547921249  0.1147129062184719  1.0000
  C   C59       1.0  0.8963097218479773  0.9624709739380463  0.035331209608919924  1.0000
  C   C60       1.0  0.9615238468709109  0.014871400028674328  0.9827588822567962  1.0000
  C   C61       1.0  0.015892481523515353  0.1465703260997344  0.8492108267643274  1.0000
  C   C62       1.0  0.9882302040697156  0.8491801392549618  0.1466871174996242  1.0000
  C   C63       1.0  0.597596381467355  0.4506807036851581  0.552401199688127  1.0000
  C   C64       1.0  0.6146216006586658  0.592869122085439  0.4108576741915826  1.0000
  C   C65       1.0  0.535237898097165  0.6059044555637386  0.3964967353453375  1.0000
  C   C66       1.0  0.48267496993086934  0.5408240580480878  0.461696627132973  1.0000
  C   C67       1.0  0.39935641576948927  0.5523006992877625  0.4508369059590862  1.0000
  C   C68       1.0  0.3817191580754909  0.41070913173387413  0.5929626705945239  1.0000
  C   C69       1.0  0.46247261103633996  0.39629613524439816  0.6059721035582938  1.0000
  C   C70       1.0  0.5148682255561426  0.46153342836414163  0.5409505416003385  1.0000
  C   C71       1.0  0.6466432479575914  0.515878024506563  0.48836244316753863  1.0000
  C   C72       1.0  0.349151482931191  0.4882653448153463  0.5160131881378689  1.0000
  O   O1        1.0  0.7626496011384629  0.4407520350905968  0.7319099125502005  1.0000
  O   O2        1.0  0.06473531562830485  0.7319583592117879  0.4406579660724006  1.0000
  O   O3        1.0  0.23193366918216887  0.5646697221463198  0.26267377729463703  1.0000
  O   O4        1.0  0.9407410675309793  0.26256250052008306  0.5647914653264365  1.0000
  O   O5        1.0  0.0697666121137957  0.27093075274435563  0.7231603522272322  1.0000
  O   O6        1.0  0.7710626746174544  0.5696693748802417  0.43618293743094955  1.0000
  O   O7        1.0  0.936115472759241  0.7231043195919326  0.27100995563208136  1.0000
  O   O8        1.0  0.2231386252906874  0.4361022466567731  0.5697667275650318  1.0000
  O   O9        1.0  0.9382688454834567  0.5644570815790289  0.7319391158822626  1.0000
  O   O10       1.0  0.23198335000085282  0.26530625737093766  0.4382655114790381  1.0000
  O   O11       1.0  0.06442896876600919  0.4382307399141823  0.2653790194813652  1.0000
  O   O12       1.0  0.7653658777492327  0.7319652527975007  0.5643759064742895  1.0000
  O   O13       1.0  0.22438840359243542  0.2726586066582826  0.5718071255521124  1.0000
  O   O14       1.0  0.9311054923510794  0.5717425363976146  0.272771151484548  1.0000
  O   O15       1.0  0.7727228605418759  0.7243464373745779  0.43109981557635263  1.0000
  O   O16       1.0  0.07180809888313178  0.4311229069852658  0.7243798107301912  1.0000
  O   O17       1.0  0.9355599264195364  0.2652453450192027  0.7310050319009207  1.0000
  O   O18       1.0  0.2309631222220006  0.5681714926729313  0.4356139417924467  1.0000
  O   O19       1.0  0.06819068963154974  0.7309159048572837  0.2653032170471476  1.0000
  O   O20       1.0  0.7652859036149453  0.4355181269747702  0.5682617337553423  1.0000
  O   O21       1.0  0.07341217144507091  0.27082310286844086  0.43294047385289497  1.0000
  O   O22       1.0  0.7708612761471301  0.5734499765272287  0.7228523169718741  1.0000
  O   O23       1.0  0.9329054858468879  0.7228429528746217  0.5733526563455057  1.0000
  O   O24       1.0  0.2228675046506795  0.4328339131081265  0.2708559763672439  1.0000
  O   O25       1.0  0.9416102160074192  0.4407687672700434  0.44221654184888604  1.0000
  O   O26       1.0  0.17545576745072125  0.4421323490747895  0.4408347299711152  1.0000
  O   O27       1.0  0.942210381449897  0.6754141134383641  0.4415730069672533  1.0000
  O   O28       1.0  0.9408290036549904  0.44158969569240725  0.6754084977263233  1.0000
  O   O29       1.0  0.042969994456562764  0.5435952377967368  0.5424729316246301  1.0000
  O   O30       1.0  0.8710011076088549  0.5424252315785337  0.5436229576014852  1.0000
  O   O31       1.0  0.04366397449376088  0.5428983011184058  0.37101444275160117  1.0000
  O   O32       1.0  0.04247584382064689  0.37095048945638337  0.542962598849293  1.0000
  O   O33       1.0  0.4889984281822279  0.3208909572513149  0.00988490285651263  1.0000
  O   O34       1.0  0.6275842309738878  0.37922460119576573  0.8689475661866977  1.0000
  O   O35       1.0  0.5100203673639003  0.6800903667741166  0.9891674838735726  1.0000
  O   O36       1.0  0.36906130920293373  0.6241304797300771  0.127703426704059  1.0000
  O   O37       1.0  0.820714891899499  0.9890991996631725  0.6800993093731051  1.0000
  O   O38       1.0  0.8790859384968358  0.12764164911536108  0.6241737198736175  1.0000
  O   O39       1.0  0.18009083441807416  0.010082893681008892  0.320757017183645  1.0000
  O   O40       1.0  0.12404876256542267  0.8692161929964185  0.3789556305109017  1.0000
  O   O41       1.0  0.4898040781582084  0.009197728233573321  0.6823298828182516  1.0000
  O   O42       1.0  0.6293024080329847  0.8682779811121718  0.6256062514716447  1.0000
  O   O43       1.0  0.5091629460419043  0.9896630659890632  0.3186434625702718  1.0000
  O   O44       1.0  0.3683055010372841  0.12922813587496043  0.37674061029631645  1.0000
  O   O45       1.0  0.18243884554581064  0.31869776424323953  0.9896787282352476  1.0000
  O   O46       1.0  0.1257504914732835  0.37679884348389686  0.1291932909577511  1.0000
  O   O47       1.0  0.8187008044746663  0.6824529094627962  0.009198540545483538  1.0000
  O   O48       1.0  0.8767794191827037  0.6257410284283719  0.8682890839002724  1.0000
  O   O49       1.0  0.8195499413513616  0.9885978267780968  0.010514491891697769  1.0000
  O   O50       1.0  0.875586224356873  0.12834809063789268  0.8689353884812974  1.0000
  O   O51       1.0  0.18139262736239922  0.010342421511509823  0.9885856922760253  1.0000
  O   O52       1.0  0.1271221866333507  0.8688184651949269  0.12837190442238725  1.0000
  O   O53       1.0  0.48862267282085997  0.3194926074522968  0.6813857660870964  1.0000
  O   O54       1.0  0.6283501649860525  0.37557997299283125  0.6272072839833386  1.0000
  O   O55       1.0  0.5103713428056907  0.6814189294335546  0.31979139163159687  1.0000
  O   O56       1.0  0.36886696451750123  0.6271143204509143  0.3757596319926861  1.0000
