data_image0
_chemical_formula_structural       Zn2H50C48N2O12
_chemical_formula_sum              "Zn2 H50 C48 N2 O12"
_cell_length_a       13.866109905662174
_cell_length_b       14.052835881145468
_cell_length_c       15.239017296206612
_cell_angle_alpha    89.13318690248977
_cell_angle_beta     90.86790706798298
_cell_angle_gamma    97.15416973266305

_space_group_name_H-M_alt    "P 1"
_space_group_IT_number       1

loop_
  _space_group_symop_operation_xyz
  'x, y, z'

loop_
  _atom_site_type_symbol
  _atom_site_label
  _atom_site_symmetry_multiplicity
  _atom_site_fract_x
  _atom_site_fract_y
  _atom_site_fract_z
  _atom_site_occupancy
  Zn  Zn1       1.0  0.5065949466604067  0.401567656634242  0.5071307829170664  1.0000
  Zn  Zn2       1.0  0.493693617470548  0.6031570726435261  0.494861993817068  1.0000
  H   H1        1.0  0.9681364674541515  0.3902517093160256  0.5036524581079505  1.0000
  H   H2        1.0  0.39485939583958185  0.24403109940399048  0.41751377142944074  1.0000
  H   H3        1.0  0.642134571758781  0.9409149778595062  0.5597120949114894  1.0000
  H   H4        1.0  0.39074750987774826  0.06745593753824859  0.400565514938421  1.0000
  H   H5        1.0  0.5359178240446595  0.24109261821451602  0.26868997820235313  1.0000
  H   H6        1.0  0.5357668947039117  0.25479825831328634  0.15211009516360718  1.0000
  H   H7        1.0  0.3670191308508778  0.14916582297392722  0.2568395701985509  1.0000
  H   H8        1.0  0.37195980449178023  0.16102781210683054  0.1417258019626075  1.0000
  H   H9        1.0  0.5191022035704763  0.06910940567355078  0.1410842021795844  1.0000
  H   H10       1.0  0.4167198574903351  0.9997161589180903  0.1879561721486382  1.0000
  H   H11       1.0  0.5116661080498233  0.05491835477519659  0.2567200450878602  1.0000
  H   H12       1.0  0.034261768518192084  0.608437368491593  0.5059870134415405  1.0000
  H   H13       1.0  0.49801644342766593  0.7413309342913192  0.7475561478717196  1.0000
  H   H14       1.0  0.4268126820147771  0.759623922678834  0.8416773953755126  1.0000
  H   H15       1.0  0.35545019969411834  0.748948825511519  0.6500696587215129  1.0000
  H   H16       1.0  0.27981561089594453  0.7594758019842585  0.7406174238166443  1.0000
  H   H17       1.0  0.3743650824516179  0.918347733522047  0.7797331896820623  1.0000
  H   H18       1.0  0.3327207372956025  0.9221261260196271  0.6692075556657002  1.0000
  H   H19       1.0  0.4558237662204689  0.9078233276189775  0.6926470324323901  1.0000
  H   H20       1.0  0.7479439039760578  0.6590943040218631  0.0673063847460824  1.0000
  H   H21       1.0  0.6907135954077646  0.6346944393848375  0.9635877771192227  1.0000
  H   H22       1.0  0.7229617135841195  0.7552658994615411  0.9966360242121581  1.0000
  H   H23       1.0  0.45577464765193554  0.35826032116104056  0.050828954163471  1.0000
  H   H24       1.0  0.5446418637729167  0.7068562511442522  0.012388020624413798  1.0000
  H   H25       1.0  0.600637633285011  0.7356687299526498  0.11470203493298917  1.0000
  H   H26       1.0  0.7747830438099116  0.47756368643267405  0.9325273681711579  1.0000
  H   H27       1.0  0.7190808101437228  0.4753927440221161  0.0367773002622371  1.0000
  H   H28       1.0  0.7803394407540267  0.3779268340559056  0.005105159391483501  1.0000
  H   H29       1.0  0.60035104060767  0.3352891026431521  0.992013814841485  1.0000
  H   H30       1.0  0.6562323093479846  0.33186764906756133  0.8894460701199733  1.0000
  H   H31       1.0  0.31182711891327125  0.6496612965795379  0.312320522749701  1.0000
  H   H32       1.0  0.4301786762999171  0.712771625768056  0.3076028104761689  1.0000
  H   H33       1.0  0.2379669993088527  0.7975832270672711  0.2744021444752747  1.0000
  H   H34       1.0  0.41862962228005063  0.6120638321577232  0.9474480997451664  1.0000
  H   H35       1.0  0.353444957899434  0.8673761601082929  0.2774777617166464  1.0000
  H   H36       1.0  0.4082822253435196  0.7790027934340596  0.14930037503930288  1.0000
  H   H37       1.0  0.299440704235117  0.8279855296778535  0.12188745725695328  1.0000
  H   H38       1.0  0.2957221200874968  0.7037098193097222  0.1464568315313386  1.0000
  H   H39       1.0  0.7684645807952677  0.3282763661195958  0.5918637254897021  1.0000
  H   H40       1.0  0.7472091627054951  0.20351360082408115  0.5671898961967229  1.0000
  H   H41       1.0  0.7427660916277149  0.2881428338825883  0.7515753657350004  1.0000
  H   H42       1.0  0.7252431126226425  0.16443792032669788  0.7277914457951268  1.0000
  H   H43       1.0  0.8968244867283275  0.1776254803913275  0.6674636371400524  1.0000
  H   H44       1.0  0.8976220696817307  0.2147562207860361  0.7781739039728421  1.0000
  H   H45       1.0  0.5681135638267208  0.638554030179968  0.2329183982852712  1.0000
  H   H46       1.0  0.9135999084031995  0.30170515383320406  0.6924124682994375  1.0000
  H   H47       1.0  0.5998126412155075  0.40517669943702117  0.7692277360048294  1.0000
  H   H48       1.0  0.35956349545616456  0.9259362099973243  0.43085903268746517  1.0000
  H   H49       1.0  0.620217292064659  0.07798419988154849  0.5979428404811813  1.0000
  H   H50       1.0  0.6255898134723098  0.763081993259803  0.5515689095516977  1.0000
  C   C1        1.0  0.5056759243128468  0.4882491917794596  0.33196200884719923  1.0000
  C   C2        1.0  0.57012634803192  0.21077155806204217  0.5572386560826387  1.0000
  C   C3        1.0  0.5694593463386894  0.8035349314374969  0.5248583904534669  1.0000
  C   C4        1.0  0.44368363152524637  0.20328889768571654  0.4550621613363504  1.0000
  C   C5        1.0  0.5772228064784883  0.9025926130032645  0.5296284518954977  1.0000
  C   C6        1.0  0.4415986172184887  0.1051087799942394  0.4470378088688918  1.0000
  C   C7        1.0  0.5019766454847527  0.9509902732371169  0.4951004309815872  1.0000
  C   C8        1.0  0.5055114663951555  0.05652820783189579  0.4986149845524466  1.0000
  C   C9        1.0  0.3122926705468601  0.4645352465302678  0.4988394000175659  1.0000
  C   C10       1.0  0.6903065072959792  0.5413819846810667  0.5036020205704475  1.0000
  C   C11       1.0  0.7954653242673044  0.552047984430139  0.5045246361815146  1.0000
  C   C12       1.0  0.5005302247620165  0.5150392285405799  0.6687307551894791  1.0000
  C   C13       1.0  0.20715436020903863  0.4512465536232637  0.5002551258746735  1.0000
  C   C14       1.0  0.9831296944969735  0.5425501867985785  0.505471442041177  1.0000
  C   C15       1.0  0.019002440456908687  0.45633990542692965  0.50408558639554  1.0000
  C   C16       1.0  0.11905891482376058  0.45029704520477043  0.501902627078195  1.0000
  C   C17       1.0  0.8831821917884568  0.5495264135636757  0.5052419793300373  1.0000
  C   C18       1.0  0.48496273764460085  0.4194040436656294  0.0905868556077536  1.0000
  C   C19       1.0  0.46280500261486407  0.5696371780956254  0.9087805212171671  1.0000
  C   C20       1.0  0.47907486103915187  0.4105362564829135  0.18180933807872182  1.0000
  C   C21       1.0  0.4549416264724612  0.5739031710374644  0.8174735613703774  1.0000
  C   C22       1.0  0.5097333465570131  0.4904228467507464  0.2338571526574427  1.0000
  C   C23       1.0  0.5533647836832075  0.5867214710277862  0.1006628850092142  1.0000
  C   C24       1.0  0.5061393964778986  0.5151167277244396  0.7668652972448767  1.0000
  C   C25       1.0  0.5451780706562985  0.5768340723002298  0.19161153137230258  1.0000
  C   C26       1.0  0.5629909431688204  0.45261624396439953  0.8097103764807656  1.0000
  C   C27       1.0  0.4885527882641653  0.24475883764504394  0.2100317355075703  1.0000
  C   C28       1.0  0.41705447667609974  0.15425671613804326  0.2010360505139417  1.0000
  C   C29       1.0  0.46882066408535655  0.0646042128066711  0.1965830170162661  1.0000
  C   C30       1.0  0.4239202128250382  0.7302586654486375  0.7745012856032147  1.0000
  C   C31       1.0  0.35419962644938596  0.7786896870378681  0.7163596365541096  1.0000
  C   C32       1.0  0.3806178844931551  0.8876054945757584  0.7143785215624375  1.0000
  C   C33       1.0  0.5951035100750347  0.6826075397811238  0.06188926547636701  1.0000
  C   C34       1.0  0.5732888162853059  0.44844172908005214  0.9009856052438464  1.0000
  C   C35       1.0  0.6949983353852787  0.6828037466767964  0.0199709181688092  1.0000
  C   C36       1.0  0.6390479661647036  0.38072227823319327  0.9411302227611245  1.0000
  C   C37       1.0  0.7337632561538429  0.43086981895583415  0.9811429236728556  1.0000
  C   C38       1.0  0.35377823654182083  0.7205706551411734  0.32052679036600296  1.0000
  C   C39       1.0  0.31562659824668765  0.795962073945908  0.2613070813062279  1.0000
  C   C40       1.0  0.3305771645018183  0.7755361929724669  0.16442303676399203  1.0000
  C   C41       1.0  0.7316774151566676  0.25830959612788007  0.614200325706932  1.0000
  C   C42       1.0  0.7639736361643231  0.23405165322811428  0.7065971219280698  1.0000
  C   C43       1.0  0.8739960856454161  0.23188830868724608  0.7113594423550111  1.0000
  C   C44       1.0  0.5222615739022912  0.5053294247391803  0.049028851026669394  1.0000
  C   C45       1.0  0.5217166496646684  0.5087355878802952  0.9514091254533313  1.0000
  C   C46       1.0  0.4223778602351588  0.8950132788969895  0.4567423155819982  1.0000
  C   C47       1.0  0.571013377721485  0.11122586741372938  0.5542160331284194  1.0000
  C   C48       1.0  0.4210583042330854  0.7956853437269371  0.4513081672346289  1.0000
  N   N1        1.0  0.49318685619699915  0.7504980474223756  0.4860351850663136  1.0000
  N   N2        1.0  0.5066906926853747  0.25523967891567173  0.509147869283332  1.0000
  O   O1        1.0  0.5247724403775679  0.4134275830947089  0.3729639633102053  1.0000
  O   O2        1.0  0.39081735545637736  0.6290848640030119  0.7775559191291633  1.0000
  O   O3        1.0  0.3443007537731262  0.7421292975187369  0.413578153251116  1.0000
  O   O4        1.0  0.628757193761885  0.2687953658298595  0.6098865094104653  1.0000
  O   O5        1.0  0.5151611171393924  0.5954216595330376  0.6283097433143254  1.0000
  O   O6        1.0  0.484820299355043  0.5650811404593766  0.36678941420927197  1.0000
  O   O7        1.0  0.48409858943820433  0.4327581298260767  0.6340181492378605  1.0000
  O   O8        1.0  0.35584941347439525  0.39202601539000875  0.4840353662373502  1.0000
  O   O9        1.0  0.647668330497396  0.6140788087408423  0.48420452870745107  1.0000
  O   O10       1.0  0.35054909150857577  0.5502497059460792  0.5127137364586787  1.0000
  O   O11       1.0  0.6510415295870187  0.4568939797363426  0.5227238646541963  1.0000
  O   O12       1.0  0.43578687133577887  0.3260257339613729  0.2186203027511482  1.0000
