data_image0
_chemical_formula_structural       NiH34C24N6O4
_chemical_formula_sum              "Ni1 H34 C24 N6 O4"
_cell_length_a       9.04052688733883
_cell_length_b       9.525265603505071
_cell_length_c       9.720150700742796
_cell_angle_alpha    124.48590926403642
_cell_angle_beta     96.93042560623171
_cell_angle_gamma    109.75933952519227

_space_group_name_H-M_alt    "P 1"
_space_group_IT_number       1

loop_
  _space_group_symop_operation_xyz
  'x, y, z'

loop_
  _atom_site_type_symbol
  _atom_site_label
  _atom_site_symmetry_multiplicity
  _atom_site_fract_x
  _atom_site_fract_y
  _atom_site_fract_z
  _atom_site_occupancy
  Ni  Ni1       1.0  0.9999962382832377  0.9999953277273688  0.4999914823531454  1.0000
  H   H1        1.0  0.908726520597092  0.9931982763142385  0.8561936358772043  1.0000
  H   H2        1.0  0.09127587648882242  0.0068122891272111  0.14382040528765566  1.0000
  H   H3        1.0  0.728309829822109  0.02014009383916718  0.8959496388099166  1.0000
  H   H4        1.0  0.2716950720131805  0.9798819499295276  0.10405717868243157  1.0000
  H   H5        1.0  0.9387094737057776  0.2137945036801837  0.057280953605186376  1.0000
  H   H6        1.0  0.06129732034338521  0.7862375718193204  0.9427179410267569  1.0000
  H   H7        1.0  0.7226762218076033  0.12867679900107018  0.5958277441733841  1.0000
  H   H8        1.0  0.2773210727564716  0.8713014615284675  0.4041381949809732  1.0000
  H   H9        1.0  0.6016583010940549  0.9803511385163403  0.643242617785468  1.0000
  H   H10       1.0  0.39833180038947796  0.019626024430166897  0.3567179059232543  1.0000
  H   H11       1.0  0.9909106316753905  0.6133699048601285  0.19145310471106572  1.0000
  H   H12       1.0  0.009073411134110584  0.3866035512409667  0.8085020224996811  1.0000
  H   H13       1.0  0.9043462165761794  0.5727950761191208  0.9895520858794878  1.0000
  H   H14       1.0  0.09563957325716636  0.42718491282541743  0.010415483248372897  1.0000
  H   H15       1.0  0.6156068824251761  0.8457749790831952  0.2854246350997228  1.0000
  H   H16       1.0  0.38438566588019535  0.15419986761457943  0.7145434796197846  1.0000
  H   H17       1.0  0.5100089774673577  0.6564716601450511  0.2927279787242368  1.0000
  H   H18       1.0  0.4899889656075019  0.343500161985311  0.7072383356887073  1.0000
  H   H19       1.0  0.7351547057719684  0.5560201343285839  0.2249370453501527  1.0000
  H   H20       1.0  0.26485167084819483  0.4439688483896801  0.7750429044301723  1.0000
  H   H21       1.0  0.6212132038241265  0.5367098674132931  0.04740121761091128  1.0000
  H   H22       1.0  0.37878854110350346  0.46326825175535186  0.9525703474282777  1.0000
  H   H23       1.0  0.905516777078354  0.47418612921837405  0.6868711473344931  1.0000
  H   H24       1.0  0.09447948298814161  0.525843380628032  0.3131829050540701  1.0000
  H   H25       1.0  0.7258902117372583  0.6300452621907975  0.7612773970351369  1.0000
  H   H26       1.0  0.2741285305682553  0.370003680285265  0.23876459510473322  1.0000
  H   H27       1.0  0.6218069554545026  0.12824519530606435  0.11779778210150478  1.0000
  H   H28       1.0  0.3782324062111113  0.871789057804264  0.8822493372391448  1.0000
  H   H29       1.0  0.43847304645475293  0.27860990937366376  0.184326668181626  1.0000
  H   H30       1.0  0.5615421164081765  0.7213939358500595  0.8156868174562248  1.0000
  H   H31       1.0  0.7664996832844578  0.8105806719542058  0.542252244940407  1.0000
  H   H32       1.0  0.23349488055438875  0.18939372129953813  0.457713796676721  1.0000
  H   H33       1.0  0.8563847538387179  0.8524912813758404  0.18027504527675117  1.0000
  H   H34       1.0  0.14361588423158617  0.14751537955403643  0.8197266619474346  1.0000
  C   C1        1.0  0.8585412047773602  0.0965490908290647  0.9108095429988978  1.0000
  C   C2        1.0  0.14146007313212985  0.9034618626680024  0.08918785320112475  1.0000
  C   C3        1.0  0.7272669891257239  0.047291555507207816  0.6415592376144303  1.0000
  C   C4        1.0  0.27272717948189035  0.9526845110649943  0.3584085397417809  1.0000
  C   C5        1.0  0.976917994791343  0.6862746382104561  0.13895203719739163  1.0000
  C   C6        1.0  0.023074173594714902  0.3137073561083881  0.8610129110255897  1.0000
  C   C7        1.0  0.635685159715166  0.7564867615347595  0.3152878121318352  1.0000
  C   C8        1.0  0.36431138036171257  0.24348696063607628  0.6846812745713889  1.0000
  C   C9        1.0  0.7115613201756331  0.641327345846747  0.1914485321968442  1.0000
  C   C10       1.0  0.28843902175401576  0.3586526733623713  0.8085258051326321  1.0000
  C   C11       1.0  0.8597063400001161  0.1643129327110699  0.3504525379936467  1.0000
  C   C12       1.0  0.1402947109719576  0.8357013750051292  0.6496037011832029  1.0000
  C   C13       1.0  0.770535906213965  0.28412932324136614  0.3970795537717748  1.0000
  C   C14       1.0  0.22947374747696606  0.7159003872863606  0.6029697400420558  1.0000
  C   C15       1.0  0.8009500395254177  0.4310512366712372  0.5779550580774924  1.0000
  C   C16       1.0  0.1990506348475094  0.5689783213005127  0.42209322034364044  1.0000
  C   C17       1.0  0.6982799314652011  0.5176256331769834  0.6184699539648761  1.0000
  C   C18       1.0  0.3017179641336226  0.4824028753370867  0.3815671350432055  1.0000
  C   C19       1.0  0.5596914813946724  0.4606558946153425  0.4791263318475955  1.0000
  C   C20       1.0  0.44031178158812156  0.5393590478511994  0.5209022432844179  1.0000
  C   C21       1.0  0.5394158461723606  0.32424142631932534  0.29804992466011976  1.0000
  C   C22       1.0  0.46059157451716  0.6757702267187965  0.7019755597659695  1.0000
  C   C23       1.0  0.6423845894945117  0.23796210534273132  0.2584515324071147  1.0000
  C   C24       1.0  0.35763813786034854  0.7620618118280542  0.7415892964532772  1.0000
  N   N1        1.0  0.856138778799071  0.180902649292392  0.8242499174114073  1.0000
  N   N2        1.0  0.143854753289517  0.819077227347108  0.17571737670977677  1.0000
  N   N3        1.0  0.7605124487266011  0.8911131101130463  0.5055550711468868  1.0000
  N   N4        1.0  0.23947998493076028  0.10886149079321679  0.4944118800973385  1.0000
  N   N5        1.0  0.8765968617315919  0.7796530937667397  0.22345452501704693  1.0000
  N   N6        1.0  0.12340239716058926  0.22033481952112763  0.7765262909814155  1.0000
  O   O1        1.0  0.9651929123273533  0.20639253855576803  0.4862210499419105  1.0000
  O   O2        1.0  0.034795508015406325  0.7935999848527115  0.5138180389804105  1.0000
  O   O3        1.0  0.8170167378517874  0.0255352995398965  0.1835549887845005  1.0000
  O   O4        1.0  0.18297085605320965  0.9744684555010961  0.8164878955453077  1.0000
