data_image0
_chemical_formula_structural       Zn10H36C52N24O28
_chemical_formula_sum              "Zn10 H36 C52 N24 O28"
_cell_length_a       12.828217072714413
_cell_length_b       12.828237740478798
_cell_length_c       18.79328963258351
_cell_angle_alpha    83.8871123134976
_cell_angle_beta     83.88703401299124
_cell_angle_gamma    69.1596429725496

_space_group_name_H-M_alt    "P 1"
_space_group_IT_number       1

loop_
  _space_group_symop_operation_xyz
  'x, y, z'

loop_
  _atom_site_type_symbol
  _atom_site_label
  _atom_site_symmetry_multiplicity
  _atom_site_fract_x
  _atom_site_fract_y
  _atom_site_fract_z
  _atom_site_occupancy
  Zn  Zn1       1.0  0.717722683311692  0.9405762262860974  0.7745811462330039  1.0000
  Zn  Zn2       1.0  0.09165972399545551  0.6951422664695245  0.5663926178779731  1.0000
  Zn  Zn3       1.0  0.05942233430999271  0.28227813938561047  0.7254198326777368  1.0000
  Zn  Zn4       1.0  0.30485855024811315  0.9083401889993964  0.9336073525438022  1.0000
  Zn  Zn5       1.0  0.2822770856797804  0.05942304995057404  0.2254189305318377  1.0000
  Zn  Zn6       1.0  0.9083392115512581  0.30485808685315163  0.4336074411312509  1.0000
  Zn  Zn7       1.0  0.9405766046564993  0.7177229973847753  0.27458176530115  1.0000
  Zn  Zn8       1.0  0.6951428915027693  0.09165849898672451  0.0663926451841235  1.0000
  Zn  Zn9       1.0  0.8861415707168804  0.11385857097285863  0.7499989252843874  1.0000
  Zn  Zn10      1.0  0.11385820382126612  0.8861422708606026  0.2499999727698281  1.0000
  H   H1        1.0  0.06161822280174081  0.5064805143265544  0.6023425636374569  1.0000
  H   H2        1.0  0.942359880303755  0.5752268659340062  0.5702980399611517  1.0000
  H   H3        1.0  0.6584910811152866  0.3316447762885275  0.6232782572710674  1.0000
  H   H4        1.0  0.5155688302611168  0.48671109748514135  0.5611666415614494  1.0000
  H   H5        1.0  0.40810280250676095  0.19332627372907038  0.7116357244099731  1.0000
  H   H6        1.0  0.8422205435543333  0.16939121712109528  0.924384423156333  1.0000
  H   H7        1.0  0.6785128450066651  0.9333469571194686  0.9513657259483069  1.0000
  H   H8        1.0  0.08919347349370102  0.9252290186785356  0.6419881909726469  1.0000
  H   H9        1.0  0.8667331219903361  0.7472750569669414  0.666789461030568  1.0000
  H   H10       1.0  0.4935192088974958  0.9383816951259121  0.8976579541089221  1.0000
  H   H11       1.0  0.42477315585379943  0.05763860901394207  0.9297038282567271  1.0000
  H   H12       1.0  0.6683526373618919  0.34151010440206864  0.876720428184356  1.0000
  H   H13       1.0  0.5132867961553131  0.48443191671621105  0.9388326934209275  1.0000
  H   H14       1.0  0.806673741697921  0.5918967888391222  0.7883639971195535  1.0000
  H   H15       1.0  0.830606688764057  0.15778134017219256  0.5756156320151504  1.0000
  H   H16       1.0  0.06665386504487002  0.32148652713966896  0.5486346746779275  1.0000
  H   H17       1.0  0.0747709680731674  0.9108064415696403  0.858011401674531  1.0000
  H   H18       1.0  0.2527242458426073  0.13326742183102167  0.8332113457551743  1.0000
  H   H19       1.0  0.938382385665989  0.4935192509078872  0.3976579484161036  1.0000
  H   H20       1.0  0.0576390558893962  0.4247734880379852  0.4297041473730516  1.0000
  H   H21       1.0  0.3415095242558906  0.6683542058228652  0.3767217799753196  1.0000
  H   H22       1.0  0.48443261719805264  0.513289156260093  0.4388327095371025  1.0000
  H   H23       1.0  0.5918953054650872  0.8066767226010402  0.2883642022955044  1.0000
  H   H24       1.0  0.157782565247679  0.8306053168553548  0.07561614216407256  1.0000
  H   H25       1.0  0.3214860936366009  0.06665417932625671  0.0486348078680976  1.0000
  H   H26       1.0  0.9108054620530057  0.07477133464413996  0.35801186803658414  1.0000
  H   H27       1.0  0.1332674835424541  0.2527239253067819  0.333211108297064  1.0000
  H   H28       1.0  0.5064797266492107  0.0616186581967639  0.10234210490030189  1.0000
  H   H29       1.0  0.5752274442939225  0.9423588078253287  0.07029845186277577  1.0000
  H   H30       1.0  0.3316471223399091  0.6584868224654556  0.12327822415896608  1.0000
  H   H31       1.0  0.4867104575039249  0.5155666756501984  0.06116655228493779  1.0000
  H   H32       1.0  0.1933251905906204  0.40810278119817417  0.2116350550012598  1.0000
  H   H33       1.0  0.16939308609730833  0.8422195019859232  0.42438433020154775  1.0000
  H   H34       1.0  0.9333459127514416  0.6785150979791652  0.451365230264706  1.0000
  H   H35       1.0  0.9252288067881979  0.08919440058847532  0.1419885605421669  1.0000
  H   H36       1.0  0.7472763627867351  0.8667323435657506  0.1667896983796311  1.0000
  C   C1        1.0  0.6308900025114923  0.15389641904438636  0.70572780841173  1.0000
  C   C2        1.0  0.5430541780063791  0.250558156005134  0.6705616712430427  1.0000
  C   C3        1.0  0.5720063170242184  0.3349163349753182  0.6287259485328462  1.0000
  C   C4        1.0  0.4908480312869018  0.42271408014978096  0.5937867290915619  1.0000
  C   C5        1.0  0.37889359362181113  0.4295101724772152  0.6009140842161285  1.0000
  C   C6        1.0  0.3485484492937161  0.3471284749752783  0.6449995929346883  1.0000
  C   C7        1.0  0.4311435908232967  0.25801586780341507  0.678740666857621  1.0000
  C   C8        1.0  0.29292321303656627  0.5262572691445085  0.5630064445127729  1.0000
  C   C9        1.0  0.2301514595735554  0.3512679969092929  0.6559124627264126  1.0000
  C   C10       1.0  0.8086038034586378  0.10584432148843351  0.9153847335996373  1.0000
  C   C11       1.0  0.7247608976456733  0.9871755770755899  0.9296581867166651  1.0000
  C   C12       1.0  0.0178592183827391  0.8994281500460205  0.6586088836596247  1.0000
  C   C13       1.0  0.904857036756205  0.8094010640360453  0.6705129567700965  1.0000
  C   C14       1.0  0.8461008449235197  0.3691125353940163  0.7942712608109375  1.0000
  C   C15       1.0  0.7494400003019662  0.4569479164093339  0.8294369077349087  1.0000
  C   C16       1.0  0.6650833795801177  0.4279953096615968  0.8712725733646633  1.0000
  C   C17       1.0  0.5772848458382215  0.5091532055041696  0.906213011189088  1.0000
  C   C18       1.0  0.5704889230394842  0.621107096188368  0.8990857315696059  1.0000
  C   C19       1.0  0.6528719306210249  0.6514505624094225  0.8549996965340796  1.0000
  C   C20       1.0  0.7419828059578251  0.5688579334190109  0.8212584963141083  1.0000
  C   C21       1.0  0.4737414757906606  0.7070775242235499  0.9369929351117107  1.0000
  C   C22       1.0  0.6487305915213213  0.7698493685117994  0.8440879405375269  1.0000
  C   C23       1.0  0.8941534015969594  0.19139909583257972  0.5846147166799085  1.0000
  C   C24       1.0  0.0128240321291955  0.2752397873035762  0.5703422096976991  1.0000
  C   C25       1.0  0.10057031302626032  0.9821408000642293  0.841390298794849  1.0000
  C   C26       1.0  0.190598448721893  0.09514272085643677  0.8294873696084224  1.0000
  C   C27       1.0  0.3691105968281789  0.8461009969832388  0.2942718113015487  1.0000
  C   C28       1.0  0.4569472630980655  0.749440531331672  0.3294361981599181  1.0000
  C   C29       1.0  0.4279951333698975  0.6650847017306348  0.37127334529163386  1.0000
  C   C30       1.0  0.5091525799541685  0.5772864678830559  0.40621319360668906  1.0000
  C   C31       1.0  0.6211078538373584  0.5704900812680194  0.3990852668824232  1.0000
  C   C32       1.0  0.6514530006155753  0.65287256124369  0.35499810464606435  1.0000
  C   C33       1.0  0.5688561835532369  0.7419849738677156  0.3212576991153568  1.0000
  C   C34       1.0  0.7070782370343309  0.47374376723678324  0.4369917851492175  1.0000
  C   C35       1.0  0.7698474787464917  0.6487331392117709  0.3440870069275022  1.0000
  C   C36       1.0  0.19139931121326736  0.8941537784094605  0.08461571717262469  1.0000
  C   C37       1.0  0.2752397108220563  0.012824188158852187  0.0703423253368953  1.0000
  C   C38       1.0  0.9821397140674151  0.1005714201535995  0.3413907005424335  1.0000
  C   C39       1.0  0.09514273517021371  0.1905989951613449  0.32948706272068046  1.0000
  C   C40       1.0  0.15389893303439814  0.6308890898871482  0.20572917621294096  1.0000
  C   C41       1.0  0.2505597745593989  0.5430529257487817  0.17056305448179637  1.0000
  C   C42       1.0  0.3349180647824923  0.5720041609605886  0.1287263029267081  1.0000
  C   C43       1.0  0.4227157623062894  0.4908465594056183  0.09378643670198267  1.0000
  C   C44       1.0  0.42951168200847434  0.3788918855983708  0.10091324151429146  1.0000
  C   C45       1.0  0.3471286630103592  0.3485452878590891  0.14500056980858733  1.0000
  C   C46       1.0  0.25801529614413  0.4311434969896625  0.17874154493950556  1.0000
  C   C47       1.0  0.5262591207756699  0.2929191090056803  0.0630072739568845  1.0000
  C   C48       1.0  0.35126834418699815  0.23015098497319997  0.155912650552942  1.0000
  C   C49       1.0  0.1058455425929807  0.808603606209921  0.41538463842586276  1.0000
  C   C50       1.0  0.9871749063524647  0.7247613489798183  0.42965779203746013  1.0000
  C   C51       1.0  0.8994286256170057  0.017860336381495756  0.15861023502155547  1.0000
  C   C52       1.0  0.8094013264626909  0.9048581216263399  0.17051365677076552  1.0000
  N   N1        1.0  0.8149460304191507  0.06738665577079668  0.8515824607978288  1.0000
  N   N2        1.0  0.7608901541503101  0.9916650637299045  0.8609080060249781  1.0000
  N   N3        1.0  0.7529850983231939  0.05749844735691293  0.9661156645247716  1.0000
  N   N4        1.0  0.934072419546574  0.9528361983661428  0.7043503793103908  1.0000
  N   N5        1.0  0.8618415237544782  0.8950068460268096  0.7115221926002349  1.0000
  N   N6        1.0  0.002957767986004  0.8091404740305135  0.6357420960499951  1.0000
  N   N7        1.0  0.9326118433604479  0.1850550102080887  0.6484175823771706  1.0000
  N   N8        1.0  0.0083343374306892  0.23911060856256233  0.6390918549907596  1.0000
  N   N9        1.0  0.9424998693687459  0.2470165090254212  0.5338849037943163  1.0000
  N   N10       1.0  0.0471649255611624  0.06592691000577132  0.7956493749067802  1.0000
  N   N11       1.0  0.10499235059950962  0.13815802607980743  0.7884771597369635  1.0000
  N   N12       1.0  0.19085904823023722  0.9970425267462986  0.8642580228177081  1.0000
  N   N13       1.0  0.1850562420031494  0.9326101723309321  0.1484181440410239  1.0000
  N   N14       1.0  0.239110451220867  0.008333918381488609  0.1390920312214092  1.0000
  N   N15       1.0  0.24701550737120215  0.9425005350791408  0.033885436884105495  1.0000
  N   N16       1.0  0.0659265187734732  0.04716493775492129  0.29564909034352377  1.0000
  N   N17       1.0  0.1381574088572819  0.10499272433514759  0.28847792368306807  1.0000
  N   N18       1.0  0.9970411675607096  0.19085987929215528  0.3642579629592291  1.0000
  N   N19       1.0  0.0673870980561588  0.8149469090360243  0.351582362083917  1.0000
  N   N20       1.0  0.991665443462182  0.7608917996793281  0.36090852475904706  1.0000
  N   N21       1.0  0.057498235991367615  0.7529857046686247  0.46611614434770837  1.0000
  N   N22       1.0  0.9528365223828389  0.9340733442264407  0.20435157243549898  1.0000
  N   N23       1.0  0.8950082609647795  0.8618425222776837  0.21152382712376994  1.0000
  N   N24       1.0  0.8091398905746418  0.00295860986175708  0.135743043079934  1.0000
  O   O1        1.0  0.7286426756383407  0.15680616024393845  0.7040953811996999  1.0000
  O   O2        1.0  0.6008530921256181  0.07186728230256988  0.7344596960482264  1.0000
  O   O3        1.0  0.22770981252624273  0.6003743279061595  0.6062509241441205  1.0000
  O   O4        1.0  0.2887012827187121  0.5324180220723418  0.4970097250291444  1.0000
  O   O5        1.0  0.1630248956333418  0.3964602545509877  0.6074165269949177  1.0000
  O   O6        1.0  0.2034413442594669  0.3039175472872131  0.7155233210159508  1.0000
  O   O7        1.0  0.003542125055403701  0.5840102748928899  0.5923898920559338  1.0000
  O   O8        1.0  0.8431942775670791  0.271358633845935  0.7959035079100473  1.0000
  O   O9        1.0  0.9281322383460803  0.39914848787680784  0.7655387254025143  1.0000
  O   O10       1.0  0.3996260023235436  0.7722915285949696  0.8937478201503382  1.0000
  O   O11       1.0  0.467579619266779  0.7113002498392405  0.0029890720534666813  1.0000
  O   O12       1.0  0.6035379987934988  0.8369754081654647  0.8925839842958396  1.0000
  O   O13       1.0  0.6960826441676674  0.7965588022143918  0.7844770067545853  1.0000
  O   O14       1.0  0.4159893137340377  0.9964575260856423  0.9076112418572747  1.0000
  O   O15       1.0  0.2713570933531316  0.8431931159927329  0.29590469556514165  1.0000
  O   O16       1.0  0.39914667654263525  0.9281319936094474  0.2655393165541327  1.0000
  O   O17       1.0  0.772291634448095  0.3996259253520834  0.39374683071069677  1.0000
  O   O18       1.0  0.7113010006353379  0.4675819370606218  0.5029879903072185  1.0000
  O   O19       1.0  0.8369757211544027  0.603541859078632  0.3925822169927002  1.0000
  O   O20       1.0  0.7965592694317253  0.6960837832193576  0.2844749481644939  1.0000
  O   O21       1.0  0.9964559747580355  0.41599037320437304  0.407612334796724  1.0000
  O   O22       1.0  0.1568096796776501  0.7286407381727713  0.2040978529581068  1.0000
  O   O23       1.0  0.0718666999739668  0.6008526482442633  0.23446074425140745  1.0000
  O   O24       1.0  0.6003762707452012  0.22770530015607446  0.106254913013494  1.0000
  O   O25       1.0  0.5324243167868801  0.2886936408051072  0.9970105614082029  1.0000
  O   O26       1.0  0.3964592607356323  0.16302475012238923  0.10741514686188938  1.0000
  O   O27       1.0  0.30392047098906255  0.2034392981704869  0.2155250402614044  1.0000
  O   O28       1.0  0.5840087880446916  0.0035439039983699355  0.0923877352338494  1.0000
