data_image0
_chemical_formula_structural       Ag2H16C16N2O4
_chemical_formula_sum              "Ag2 H16 C16 N2 O4"
_cell_length_a       4.810253604393774
_cell_length_b       7.940299101611661
_cell_length_c       11.688566706075308
_cell_angle_alpha    99.11627132584987
_cell_angle_beta     99.55852110424415
_cell_angle_gamma    102.88860861066787

_space_group_name_H-M_alt    "P 1"
_space_group_IT_number       1

loop_
  _space_group_symop_operation_xyz
  'x, y, z'

loop_
  _atom_site_type_symbol
  _atom_site_label
  _atom_site_symmetry_multiplicity
  _atom_site_fract_x
  _atom_site_fract_y
  _atom_site_fract_z
  _atom_site_occupancy
  Ag  Ag1       1.0  0.7451690493719243  0.9462647083185871  0.9116269803245984  1.0000
  Ag  Ag2       1.0  0.2548131978869038  0.05374332912606408  0.08837370975871292  1.0000
  H   H1        1.0  0.5249967552604673  0.793154577819912  0.2942385231845677  1.0000
  H   H2        1.0  0.47500206295621455  0.20684782240315513  0.7057694229488973  1.0000
  H   H3        1.0  0.758001827988558  0.6489393266319823  0.2877826906671359  1.0000
  H   H4        1.0  0.24201038762873847  0.3510696585716245  0.7122209052930728  1.0000
  H   H5        1.0  0.19650586339485437  0.6146703100330766  0.1063765496596716  1.0000
  H   H6        1.0  0.8035048305895173  0.38533076789412485  0.893624309024908  1.0000
  H   H7        1.0  0.4132077363907173  0.46471274569326937  0.09713896095422571  1.0000
  H   H8        1.0  0.5868117280967057  0.5352934170221103  0.9028690511422964  1.0000
  H   H9        1.0  0.8159197161805739  0.32238225507950347  0.07148490151683973  1.0000
  H   H10       1.0  0.18408791097270683  0.6776216111924567  0.9285109519812379  1.0000
  H   H11       1.0  0.4369749448648222  0.532923038875083  0.40264851572000276  1.0000
  H   H12       1.0  0.5630279721446743  0.4670608732666181  0.5973506818142837  1.0000
  H   H13       1.0  0.10048666555234573  0.3326496527945365  0.49524266947040724  1.0000
  H   H14       1.0  0.8995110875872498  0.6673277881414847  0.5047503010227175  1.0000
  H   H15       1.0  0.6298792214008273  0.1405266284941504  0.3693474787102105  1.0000
  H   H16       1.0  0.3701154887288709  0.8594628525821832  0.6306432846735531  1.0000
  C   C1        1.0  0.7611246565841371  0.8076780440858965  0.15625924728521307  1.0000
  C   C2        1.0  0.23886842252740342  0.19233510245287982  0.8437461655226599  1.0000
  C   C3        1.0  0.5993481468055037  0.6999034130707213  0.23350987905590156  1.0000
  C   C4        1.0  0.40065631574343297  0.30010694304064595  0.7664959429784446  1.0000
  C   C5        1.0  0.33923289544822655  0.5540170983464275  0.16075743210043913  1.0000
  C   C6        1.0  0.6607727296950829  0.44598666086422156  0.8392451244095865  1.0000
  C   C7        1.0  0.8902773780698185  0.32855496798909906  0.165952691062131  1.0000
  C   C8        1.0  0.10972397009094687  0.671448957773613  0.8340436187787644  1.0000
  C   C9        1.0  0.1577398341985372  0.4435482195125714  0.2282475071377021  1.0000
  C   C10       1.0  0.8422618490942643  0.5564516737340027  0.7717509182787196  1.0000
  C   C11       1.0  0.2334890374013696  0.44529665588691353  0.34918249634030474  1.0000
  C   C12       1.0  0.7665120585322995  0.5546926167390038  0.6508155008848604  1.0000
  C   C13       1.0  0.04648183379392623  0.3344160774780746  0.40123221286624755  1.0000
  C   C14       1.0  0.9535195260641417  0.6655692619381526  0.5987627731449621  1.0000
  C   C15       1.0  0.7844403649478694  0.22701282024042505  0.3319061671405663  1.0000
  C   C16       1.0  0.21555764041882242  0.7729792738323907  0.6680851159682817  1.0000
  N   N1        1.0  0.7057819119942864  0.2251378024964055  0.21574448387765696  1.0000
  N   N2        1.0  0.2942155180518497  0.7748622242000917  0.7842494037994641  1.0000
  O   O1        1.0  0.6154951951068385  0.8065617954133585  0.05434022234501868  1.0000
  O   O2        1.0  0.3845005681466845  0.19344337660339045  0.9456635730668667  1.0000
  O   O3        1.0  0.02529593673927611  0.8905290985580122  0.19965697277073963  1.0000
  O   O4        1.0  0.9746953450323164  0.10948937536283407  0.8003489486578559  1.0000
