data_image0
_chemical_formula_structural       Al2H18C30N2O14
_chemical_formula_sum              "Al2 H18 C30 N2 O14"
_cell_length_a       6.766931938416026
_cell_length_b       17.034816408827368
_cell_length_c       17.728693471908382
_cell_angle_alpha    85.80601021487658
_cell_angle_beta     79.66270844983825
_cell_angle_gamma    81.71812971024467

_space_group_name_H-M_alt    "P 1"
_space_group_IT_number       1

loop_
  _space_group_symop_operation_xyz
  'x, y, z'

loop_
  _atom_site_type_symbol
  _atom_site_label
  _atom_site_symmetry_multiplicity
  _atom_site_fract_x
  _atom_site_fract_y
  _atom_site_fract_z
  _atom_site_occupancy
  Al  Al1       1.0  0.5000065532266403  0.499999318110447  0.5000005511847547  1.0000
  Al  Al2       1.0  1.0308132715402785e-05  0.5000000852264604  0.4999975397285041  1.0000
  H   H1        1.0  0.7705691646354113  0.558824403231874  0.4144411919105266  1.0000
  H   H2        1.0  0.22942805605282499  0.441181307730531  0.5855640066306265  1.0000
  H   H3        1.0  0.1544071773279754  0.25912724082824207  0.49579168893868103  1.0000
  H   H4        1.0  0.21269755565122483  0.11131804798485938  0.4984502954967737  1.0000
  H   H5        1.0  0.5761960067851392  0.10829347987785809  0.4997783971343281  1.0000
  H   H6        1.0  0.4238149534730623  0.8917111858766728  0.5002163030831923  1.0000
  H   H7        1.0  0.787310147111583  0.8886830291231077  0.5015465339361143  1.0000
  H   H8        1.0  0.8456077137570048  0.7408745221744936  0.5041983887985141  1.0000
  H   H9        1.0  0.6821825421856431  0.49636169891535054  0.2741699578742143  1.0000
  H   H10       1.0  0.7696921261620631  0.49789841635858767  0.13186810240708274  1.0000
  H   H11       1.0  0.05268723644623925  0.4960150378476553  0.2618851342782946  1.0000
  H   H12       1.0  0.9473171431439055  0.5040531073890122  0.7381108776122645  1.0000
  H   H13       1.0  0.3178517199594142  0.5035971000302623  0.7258353379020976  1.0000
  H   H14       1.0  0.23034444508162719  0.502066890964521  0.8681383471541082  1.0000
  H   H15       1.0  0.4853274628544498  0.3195957051965478  0.4942488426229588  1.0000
  H   H16       1.0  0.5146905372520506  0.6804101989957799  0.5057419050632461  1.0000
  H   H17       1.0  0.16826440685041893  0.49962075757495933  0.05730643575960671  1.0000
  H   H18       1.0  0.8316875915867074  0.5005440439060889  0.9426972782109998  1.0000
  C   C1        1.0  0.31475121445084403  0.49753353904318937  0.36161298620415755  1.0000
  C   C2        1.0  0.19462695720110187  0.6446689224456886  0.5042409518215011  1.0000
  C   C3        1.0  0.6852792687872051  0.5024626911512726  0.6383892865125489  1.0000
  C   C4        1.0  0.8053923132727759  0.3553333772488471  0.4957527350235439  1.0000
  C   C5        1.0  0.8338916840951923  0.2681102437044273  0.4956121586493012  1.0000
  C   C6        1.0  0.028820744236412607  0.22575266529599247  0.4963776890338281  1.0000
  C   C7        1.0  0.062382911924458995  0.14390730687338757  0.4979271403313632  1.0000
  C   C8        1.0  0.8967875181475335  0.10171330598548418  0.49907121377840713  1.0000
  C   C9        1.0  0.7020625669379754  0.14194135528006052  0.49858485055724344  1.0000
  C   C10       1.0  0.6683067026063441  0.22512975689659231  0.4964660576964094  1.0000
  C   C11       1.0  0.2979486393860141  0.8580626835555306  0.5014121249903525  1.0000
  C   C12       1.0  0.10322128129061528  0.8982889590740085  0.5009254697487435  1.0000
  C   C13       1.0  0.9376239258541831  0.8560961870064215  0.5020667899411039  1.0000
  C   C14       1.0  0.9711953194287446  0.7742502278103556  0.5036161896266479  1.0000
  C   C15       1.0  0.16612626532464256  0.7318914784295315  0.5043805264368473  1.0000
  C   C16       1.0  0.3317057488668668  0.7748749173475104  0.5035279727810719  1.0000
  C   C17       1.0  0.3630433548784283  0.4967092690465047  0.2762634195984647  1.0000
  C   C18       1.0  0.564881374384946  0.49692675810775444  0.23939736001914724  1.0000
  C   C19       1.0  0.6130359684919995  0.4976846367887119  0.16008402091568294  1.0000
  C   C20       1.0  0.4596001011572497  0.4983508851057577  0.11575324627562367  1.0000
  C   C21       1.0  0.2559818865701827  0.49783390823390056  0.153484738403705  1.0000
  C   C22       1.0  0.20874968085868054  0.4967512535116184  0.23320140543639672  1.0000
  C   C23       1.0  0.4965126193897476  0.49955757303769127  0.03487391730888592  1.0000
  C   C24       1.0  0.5034784659970056  0.5004926376813186  0.9651319650111746  1.0000
  C   C25       1.0  0.5404060556419877  0.5016815276055123  0.8842514729113873  1.0000
  C   C26       1.0  0.7440209944924661  0.5022300133988722  0.8465161359576997  1.0000
  C   C27       1.0  0.7912627628262925  0.5032978304875397  0.7667990873505914  1.0000
  C   C28       1.0  0.6369879137125949  0.5032934858278465  0.7237389851450119  1.0000
  C   C29       1.0  0.43514861666645294  0.5030534038281116  0.7606081316363813  1.0000
  C   C30       1.0  0.38698375780140293  0.5023079953672819  0.8399214743857115  1.0000
  N   N1        1.0  0.9108893948905176  0.017905800489330694  0.5008473447493672  1.0000
  N   N2        1.0  0.08911729441425105  0.9820982459335068  0.49914938468747755  1.0000
  O   O1        1.0  0.46366753829673263  0.5000523098945847  0.3961443336752595  1.0000
  O   O2        1.0  0.04390822582641364  0.6088692034359935  0.501555090588326  1.0000
  O   O3        1.0  0.8692333015830087  0.5033649425936773  0.6060062428064512  1.0000
  O   O4        1.0  0.6228538191114193  0.3910708737207216  0.4943946060257218  1.0000
  O   O5        1.0  0.5363628834110942  0.4999397465054967  0.6038593126086766  1.0000
  O   O6        1.0  0.9561140053903968  0.39113312976566306  0.4984361291112124  1.0000
  O   O7        1.0  0.1307935369324582  0.4966330935305121  0.3939944902291188  1.0000
  O   O8        1.0  0.37716253399371164  0.6089313594107322  0.5056038032956992  1.0000
  O   O9        1.0  0.7524104940660122  0.5360063372523668  0.46655166776923107  1.0000
  O   O10       1.0  0.247604157820014  0.4639922661381631  0.5334515840238225  1.0000
  O   O11       1.0  0.47758564411874  0.2611670350674656  0.4957549245481232  1.0000
  O   O12       1.0  0.5224281142291999  0.738837788154029  0.5042288510331333  1.0000
  O   O13       1.0  0.10511921358550323  0.4985245303470759  0.11167102614078321  1.0000
  O   O14       1.0  0.8948551965361701  0.5016010610031998  0.8883344999992319  1.0000
