data_image0
_chemical_formula_structural       Cu2H48C44N4O8
_chemical_formula_sum              "Cu2 H48 C44 N4 O8"
_cell_length_a       10.856188310734915
_cell_length_b       10.833752837776794
_cell_length_c       10.897587163151451
_cell_angle_alpha    110.05458939478478
_cell_angle_beta     109.6730179831287
_cell_angle_gamma    95.42334832165426

_space_group_name_H-M_alt    "P 1"
_space_group_IT_number       1

loop_
  _space_group_symop_operation_xyz
  'x, y, z'

loop_
  _atom_site_type_symbol
  _atom_site_label
  _atom_site_symmetry_multiplicity
  _atom_site_fract_x
  _atom_site_fract_y
  _atom_site_fract_z
  _atom_site_occupancy
  Cu  Cu1       1.0  0.703527858760559  0.6999359014256686  0.5449262576816097  1.0000
  Cu  Cu2       1.0  0.29647072662917406  0.3000639829520324  0.45507482978850083  1.0000
  H   H1        1.0  0.5676098218513701  0.3907266097582608  0.41049028568516394  1.0000
  H   H2        1.0  0.43239658170793405  0.60926917626518  0.589509288225152  1.0000
  H   H3        1.0  0.6572897377367327  0.187301517924837  0.4036276334904159  1.0000
  H   H4        1.0  0.34272011745938613  0.8126962982799527  0.5963692256526515  1.0000
  H   H5        1.0  0.9054206570277116  0.2142342539449801  0.5332542380443143  1.0000
  H   H6        1.0  0.09458744506076756  0.7857645401118917  0.466749704794978  1.0000
  H   H7        1.0  0.14111852555733861  0.3792974063790311  0.6888145280990798  1.0000
  H   H8        1.0  0.8588878688474679  0.6207064563827417  0.31119242105047845  1.0000
  H   H9        1.0  0.27596290623399267  0.6103358327528811  0.8167059332211863  1.0000
  H   H10       1.0  0.7240449930273699  0.3896700821328737  0.18329672992484097  1.0000
  H   H11       1.0  0.2879621086990057  0.867851604134593  0.8923563771659316  1.0000
  H   H12       1.0  0.7120402043551266  0.1321513527775622  0.1076378610484809  1.0000
  H   H13       1.0  0.16385116638728187  0.04849351195807121  0.8752970323134761  1.0000
  H   H14       1.0  0.8361474467789379  0.9515104447488058  0.1247027183608793  1.0000
  H   H15       1.0  0.91334349908  0.9806931120144643  0.7275248761183594  1.0000
  H   H16       1.0  0.08665138805782391  0.019303730701523105  0.2724784929571129  1.0000
  H   H17       1.0  0.4504648055821648  0.45062002520614197  0.06093146610071904  1.0000
  H   H18       1.0  0.5495408388483655  0.5493767493089764  0.9390727797687293  1.0000
  H   H19       1.0  0.3934942947928448  0.599382249848155  0.09314650610170368  1.0000
  H   H20       1.0  0.6065106728638626  0.4006155996023183  0.9068496223058986  1.0000
  H   H21       1.0  0.26832117561929897  0.5252295062542133  0.2252246152466527  1.0000
  H   H22       1.0  0.7316791334655974  0.47476936939866504  0.7747739561775832  1.0000
  H   H23       1.0  0.3192019178380434  0.3718539340349381  0.18285255278318158  1.0000
  H   H24       1.0  0.6807957222687905  0.6281419476431013  0.8171404073288928  1.0000
  H   H25       1.0  0.20415377600540555  0.3245875025499458  0.9203749424442975  1.0000
  H   H26       1.0  0.7958401818610029  0.6754093974464582  0.0796207895375077  1.0000
  H   H27       1.0  0.15323767231816288  0.47697768476820124  0.9668149726582345  1.0000
  H   H28       1.0  0.8467609483665444  0.523022236656786  0.033180633631467164  1.0000
  H   H29       1.0  0.06778820307672366  0.23685708820016074  0.032687500591073636  1.0000
  H   H30       1.0  0.9322082049291325  0.7631458666198869  0.9673120727452443  1.0000
  H   H31       1.0  0.022394461595602936  0.39257533080845525  0.08591598535428352  1.0000
  H   H32       1.0  0.9776051220195044  0.6074286118398292  0.9140850077032427  1.0000
  H   H33       1.0  0.955835976070084  0.2100560959427114  0.775071866383037  1.0000
  H   H34       1.0  0.044158445614030574  0.789942796141702  0.22492929957289942  1.0000
  H   H35       1.0  0.9062181244917511  0.36166359539345194  0.8349756651113012  1.0000
  H   H36       1.0  0.09377560277105358  0.6383363531026662  0.16502012397299387  1.0000
  H   H37       1.0  0.8230516335253386  0.10560484219153213  0.8772688159038825  1.0000
  H   H38       1.0  0.17694035664131044  0.8944001441367462  0.12273454714102174  1.0000
  H   H39       1.0  0.7768806779922245  0.25766674650612503  0.9448036140795467  1.0000
  H   H40       1.0  0.22310745390885967  0.7423383207547191  0.0551911253123692  1.0000
  H   H41       1.0  0.7091616453149213  0.11316756207389035  0.6266002517260674  1.0000
  H   H42       1.0  0.29084032602967375  0.8868221540212673  0.3733993907738693  1.0000
  H   H43       1.0  0.6383110434000798  0.2399758828548643  0.7086487500921307  1.0000
  H   H44       1.0  0.36168763774558954  0.760020058859162  0.2913344900422886  1.0000
  H   H45       1.0  0.4761678811078128  0.026460463685616307  0.60809664347655  1.0000
  H   H46       1.0  0.5238273039515775  0.9735414875381069  0.3919021678447692  1.0000
  H   H47       1.0  0.5437931636212312  0.06821455833066642  0.793778956103104  1.0000
  H   H48       1.0  0.45620300365203553  0.9317873911835549  0.20621927054126138  1.0000
  C   C1        1.0  0.6744495231845207  0.4009158898507367  0.46686830597911216  1.0000
  C   C2        1.0  0.32555563814481303  0.5990829155091717  0.5331364773609978  1.0000
  C   C3        1.0  0.7267269644171321  0.2863809602894777  0.4641758743354316  1.0000
  C   C4        1.0  0.2732764983830195  0.7136148370370139  0.5358245400757016  1.0000
  C   C5        1.0  0.8629239733061453  0.3018807933829067  0.5353666506524349  1.0000
  C   C6        1.0  0.13708484509763258  0.6981210104168911  0.4646422457928098  1.0000
  C   C7        1.0  0.9485918427308987  0.4332668651899709  0.6114648239242584  1.0000
  C   C8        1.0  0.051407691213739906  0.5667289389745067  0.3885379291947262  1.0000
  C   C9        1.0  0.09111795854605019  0.46195505549031407  0.6883537290188216  1.0000
  C   C10       1.0  0.9088920988157059  0.538051811885886  0.3116564197057914  1.0000
  C   C11       1.0  0.16749341677464005  0.5921581218776951  0.7598889872709478  1.0000
  C   C12       1.0  0.8325061625939726  0.4078417731396017  0.24010968846206282  1.0000
  C   C13       1.0  0.10809909933637853  0.7046679722783014  0.7597438440131656  1.0000
  C   C14       1.0  0.8919068312507222  0.29533389839546953  0.24025767116226882  1.0000
  C   C15       1.0  0.17958656274927165  0.8418630888897526  0.8306652644393752  1.0000
  C   C16       1.0  0.8204181726678357  0.15814185051686286  0.16933415192530527  1.0000
  C   C17       1.0  0.11114648897466857  0.942003708278726  0.8209159162740747  1.0000
  C   C18       1.0  0.8888496782985984  0.057998241235495115  0.17908231037028347  1.0000
  C   C19       1.0  0.9714420792315935  0.9057535531458285  0.7396769970098164  1.0000
  C   C20       1.0  0.02855918265470341  0.09424528992481382  0.2603255573878016  1.0000
  C   C21       1.0  0.9675738845477255  0.6782038413129217  0.6824435771352526  1.0000
  C   C22       1.0  0.03242638499569493  0.3217909496616898  0.31755815814487687  1.0000
  C   C23       1.0  0.8874111262430305  0.5423561651012253  0.6088312162867171  1.0000
  C   C24       1.0  0.11259573361548555  0.45764564829211474  0.39117793598238404  1.0000
  C   C25       1.0  0.540918482166596  0.5947632905105708  0.2758308399596246  1.0000
  C   C26       1.0  0.4590778921802893  0.4052355858057482  0.7241709837025212  1.0000
  C   C27       1.0  0.4185700114827214  0.5225531570259888  0.1367086505092772  1.0000
  C   C28       1.0  0.5814300509870804  0.47744470714651754  0.8632894877530647  1.0000
  C   C29       1.0  0.29501218649269123  0.4522988770600662  0.14504876088674484  1.0000
  C   C30       1.0  0.7049859350793355  0.5476990152296253  0.8549468926092417  1.0000
  C   C31       1.0  0.17565603482141515  0.39431889967785605  0.0015687695941580542  1.0000
  C   C32       1.0  0.824339891719248  0.6056820445305464  0.9984281103582404  1.0000
  C   C33       1.0  0.04832364063545215  0.322853244922591  0.0025805070536506418  1.0000
  C   C34       1.0  0.9516717910390259  0.6771497177815037  0.9974187374295553  1.0000
  C   C35       1.0  0.928109537537104  0.27400988945851174  0.8604284513619904  1.0000
  C   C36       1.0  0.07188539502468679  0.7259910441102876  0.13957084032751518  1.0000
  C   C37       1.0  0.801442941205444  0.19569830495360926  0.8562557161047623  1.0000
  C   C38       1.0  0.1985498080899789  0.8043056928829916  0.14374297498101654  1.0000
  C   C39       1.0  0.6788252243364  0.1526318523915152  0.7166261796772703  1.0000
  C   C40       1.0  0.321170950455354  0.8473660618408164  0.28336790258243394  1.0000
  C   C41       1.0  0.5687944843456236  0.04127913134871621  0.6995711379595236  1.0000
  C   C42       1.0  0.43120094308235235  0.9587197837243908  0.30042578919916724  1.0000
  C   C43       1.0  0.61033563352688  0.9069848114343415  0.6729708630870733  1.0000
  C   C44       1.0  0.3896627052477584  0.09301406146298771  0.32702979122115045  1.0000
  N   N1        1.0  0.7533747642329517  0.5254238006286941  0.5373223510877453  1.0000
  N   N2        1.0  0.24662477559418516  0.474572009710329  0.4626794885011663  1.0000
  N   N3        1.0  0.9018987002441535  0.7773181158114684  0.6726317329096576  1.0000
  N   N4        1.0  0.09810132693066721  0.2226797113137522  0.3273718865331007  1.0000
  O   O1        1.0  0.5235312535099654  0.6062766328504028  0.39127464049295924  1.0000
  O   O2        1.0  0.4764614882669633  0.39373140026808784  0.6087281949774735  1.0000
  O   O3        1.0  0.6515784282994092  0.6404513469899275  0.2759148630872873  1.0000
  O   O4        1.0  0.3484235237617028  0.35954239203802274  0.7240907508574423  1.0000
  O   O5        1.0  0.6651058698856716  0.8772236848660953  0.5801160481730748  1.0000
  O   O6        1.0  0.33489469757930834  0.12277621461625189  0.41988112935290195  1.0000
  O   O7        1.0  0.5915632163653798  0.8330751649295395  0.7347470533136615  1.0000
  O   O8        1.0  0.4084359093145125  0.16692679180528103  0.26524759223967465  1.0000
