data_image0
_chemical_formula_structural       CuH22C22N8O2
_chemical_formula_sum              "Cu1 H22 C22 N8 O2"
_cell_length_a       7.5181929348982175
_cell_length_b       8.46413986673327
_cell_length_c       10.732921958541446
_cell_angle_alpha    94.16648704985197
_cell_angle_beta     110.31075051961187
_cell_angle_gamma    110.24564706760523

_space_group_name_H-M_alt    "P 1"
_space_group_IT_number       1

loop_
  _space_group_symop_operation_xyz
  'x, y, z'

loop_
  _atom_site_type_symbol
  _atom_site_label
  _atom_site_symmetry_multiplicity
  _atom_site_fract_x
  _atom_site_fract_y
  _atom_site_fract_z
  _atom_site_occupancy
  Cu  Cu1       1.0  0.9999951643385361  0.9999863820494923  0.9999993476986547  1.0000
  H   H1        1.0  0.5924441077253989  0.4169981422272216  0.3144565362453023  1.0000
  H   H2        1.0  0.4075620118882527  0.5829937054539728  0.6855355675009989  1.0000
  H   H3        1.0  0.8208418678497227  0.498911944498481  0.4664448187633141  1.0000
  H   H4        1.0  0.17917031632644864  0.5011045520378304  0.5335468940972562  1.0000
  H   H5        1.0  0.23744759378237035  0.27148973682668043  0.25763953202759643  1.0000
  H   H6        1.0  0.7625557985964448  0.7284905207465402  0.7423500998898903  1.0000
  H   H7        1.0  0.37671293935250116  0.2825890394078954  0.5067662742794568  1.0000
  H   H8        1.0  0.6232906028041044  0.7174092745434778  0.4932257211192665  1.0000
  H   H9        1.0  0.07882567137319561  0.726628569204593  0.40981359716273164  1.0000
  H   H10       1.0  0.9211678137235424  0.2733714335760098  0.5902050476606321  1.0000
  H   H11       1.0  0.958208317024102  0.7383647141056074  0.16400916554688666  1.0000
  H   H12       1.0  0.04177952995584634  0.26161475218210484  0.836002832657826  1.0000
  H   H13       1.0  0.38922188126311846  0.9074054700939412  0.6433440682707215  1.0000
  H   H14       1.0  0.6107935987151906  0.09261426916756221  0.35666824548878406  1.0000
  H   H15       1.0  0.17196560786394616  0.9339380449826538  0.6493407647091161  1.0000
  H   H16       1.0  0.8280369745314501  0.06606367156207679  0.35066617949802753  1.0000
  H   H17       1.0  0.5926963938817593  0.2326724554138551  0.7156947761719294  1.0000
  H   H18       1.0  0.4072897689226522  0.7673514450235502  0.28430441593059197  1.0000
  H   H19       1.0  0.4944485969895426  0.1451599321544776  0.8343771673705831  1.0000
  H   H20       1.0  0.5055420729897763  0.854870356393242  0.16562544645059774  1.0000
  H   H21       1.0  0.3711866683584192  0.25689341055654324  0.7259779232718914  1.0000
  H   H22       1.0  0.6287849930161827  0.7431152038159256  0.2740110722692535  1.0000
  C   C1        1.0  0.7291190001113534  0.3031173262795122  0.1544610575216154  1.0000
  C   C2        1.0  0.27088737614982966  0.6968809504620027  0.8455325359062797  1.0000
  C   C3        1.0  0.825217209549017  0.24087822165008535  0.0860639268323454  1.0000
  C   C4        1.0  0.17477998130517142  0.7591096252984215  0.9139304203308356  1.0000
  C   C5        1.0  0.5172732133400686  0.2626674592637385  0.08948877703255681  1.0000
  C   C6        1.0  0.48273723735531604  0.737333241873593  0.9105106255515737  1.0000
  C   C7        1.0  0.8481939356056644  0.3979803460895184  0.29643329253774203  1.0000
  C   C8        1.0  0.15182021215770183  0.6020283047260832  0.7035610731736881  1.0000
  C   C9        1.0  0.21051056166950133  0.15365208599054372  0.2961736048375343  1.0000
  C   C10       1.0  0.7894896469363957  0.8463330800250547  0.7038240433158336  1.0000
  C   C11       1.0  0.2850588576385534  0.15836510171677531  0.4351406892902929  1.0000
  C   C12       1.0  0.7149434592963502  0.8416303938744321  0.564858255141722  1.0000
  C   C13       1.0  0.23963362386874107  0.004514317211018703  0.4809888133773512  1.0000
  C   C14       1.0  0.7603669219390597  0.9954861722710434  0.5190156912583532  1.0000
  C   C15       1.0  0.11886754419812466  0.8508882387899279  0.38107436873411876  1.0000
  C   C16       1.0  0.8811270893429253  0.14910559875607285  0.6189347502952884  1.0000
  C   C17       1.0  0.051293291610853886  0.8552590483579152  0.2441452625356817  1.0000
  C   C18       1.0  0.9486976360492533  0.1447270476166125  0.7558623832728913  1.0000
  C   C19       1.0  0.3110587008445692  0.997389296032651  0.6289805159168225  1.0000
  C   C20       1.0  0.6889425381284439  0.002621497035626397  0.3710258810029927  1.0000
  C   C21       1.0  0.44995599270708214  0.16832242741148923  0.731080699374516  1.0000
  C   C22       1.0  0.5500305323556205  0.8316963044979602  0.2689181785965857  1.0000
  N   N1        1.0  0.7467141859773039  0.4506244831207411  0.3619702837121467  1.0000
  N   N2        1.0  0.25329712642249563  0.5493842346342461  0.6380215539567474  1.0000
  N   N3        1.0  0.9080566247161173  0.19059464287823158  0.02712049515634625  1.0000
  N   N4        1.0  0.0919390817508514  0.8093840161088792  0.9728774513318116  1.0000
  N   N5        1.0  0.3392786841690595  0.2308134259438362  0.039616346373136935  1.0000
  N   N6        1.0  0.6607220364729116  0.7691846279219589  0.9603833511300479  1.0000
  N   N7        1.0  0.09709092098940181  0.004991150411406402  0.202094844618756  1.0000
  N   N8        1.0  0.9029066434540242  0.9949912604432711  0.7979075585332682  1.0000
  O   O1        1.0  0.037620238819478416  0.4288056697965885  0.3547596193772335  1.0000
  O   O2        1.0  0.9623966273657631  0.5712147792337848  0.6452307080694624  1.0000
