data_image0
_chemical_formula_structural       Cu2H40C32Br4N16
_chemical_formula_sum              "Cu2 H40 C32 Br4 N16"
_cell_length_a       7.264567909079696
_cell_length_b       11.444371973290915
_cell_length_c       12.923257015994537
_cell_angle_alpha    110.1841538626937
_cell_angle_beta     90.00045089123968
_cell_angle_gamma    89.99957533342578

_space_group_name_H-M_alt    "P 1"
_space_group_IT_number       1

loop_
  _space_group_symop_operation_xyz
  'x, y, z'

loop_
  _atom_site_type_symbol
  _atom_site_label
  _atom_site_symmetry_multiplicity
  _atom_site_fract_x
  _atom_site_fract_y
  _atom_site_fract_z
  _atom_site_occupancy
  Cu  Cu1       1.0  0.5562267137352207  0.3273851621991994  0.4192970165768913  1.0000
  Cu  Cu2       1.0  0.05622218373351729  0.6726261552616891  0.5807018164907731  1.0000
  H   H1        1.0  0.28714588440269745  0.3920676402548509  0.5566563490857774  1.0000
  H   H2        1.0  0.7871391528358771  0.607942923120504  0.4433456187769592  1.0000
  H   H3        1.0  0.4898063637926881  0.4400022954320307  0.6146089938647634  1.0000
  H   H4        1.0  0.989806290590728  0.5600048162754304  0.3853928325458327  1.0000
  H   H5        1.0  0.8241178728308611  0.3337433668539943  0.29448236954915064  1.0000
  H   H6        1.0  0.3241137510333729  0.6662596297856568  0.7055166719227229  1.0000
  H   H7        1.0  0.6212092874589175  0.3409517377085436  0.23644387024516078  1.0000
  H   H8        1.0  0.1212005398256224  0.6590528529397232  0.7635524206332747  1.0000
  H   H9        1.0  0.3019253314225239  0.13057130040875356  0.45648367820660946  1.0000
  H   H10       1.0  0.801898971228411  0.8694327166881594  0.543503968690608  1.0000
  H   H11       1.0  0.1385738689289724  0.20176036031248398  0.5626010651552207  1.0000
  H   H12       1.0  0.6385661726099625  0.7982311531056325  0.43738278320576274  1.0000
  H   H13       1.0  0.28563501657381346  0.08231554900893909  0.5734942782419097  1.0000
  H   H14       1.0  0.7856216230042534  0.9176866614031096  0.4264911934927297  1.0000
  H   H15       1.0  0.5595749079080862  0.21781230996289475  0.5893359283036546  1.0000
  H   H16       1.0  0.05955573593457329  0.7821971277843219  0.4106669863815354  1.0000
  H   H17       1.0  0.215079164857606  0.45832955375706763  0.743225728230378  1.0000
  H   H18       1.0  0.7150871838820692  0.5416672770981491  0.2567732510811993  1.0000
  H   H19       1.0  0.18647417980438516  0.5272338163936254  0.9465950988443338  1.0000
  H   H20       1.0  0.6864719729262347  0.4727593766814237  0.053407278554153836  1.0000
  H   H21       1.0  0.5245250448506695  0.21896630329126765  0.9499992468339825  1.0000
  H   H22       1.0  0.0245215958940648  0.7810274300724629  0.049993278015769166  1.0000
  H   H23       1.0  0.5665306522848608  0.1574938794674523  0.7476726367337392  1.0000
  H   H24       1.0  0.06653062050006747  0.842507165052389  0.25232231962988994  1.0000
  H   H25       1.0  0.7929422187473564  0.09928399042235715  0.3393329244143715  1.0000
  H   H26       1.0  0.29296360603354527  0.9007311973353824  0.6606782254904715  1.0000
  H   H27       1.0  0.8526188207468622  0.9949905331694708  0.20588527834272688  1.0000
  H   H28       1.0  0.3526306472661957  0.005011415589457599  0.7941298206148844  1.0000
  H   H29       1.0  0.9825371092447737  0.1334144920845546  0.2675470147776977  1.0000
  H   H30       1.0  0.4825392367905862  0.866587966495764  0.7324680543644391  1.0000
  H   H31       1.0  0.5761395234071569  0.12037690417227508  0.1987347650453799  1.0000
  H   H32       1.0  0.07613968522583289  0.8796324796986141  0.8012682080980865  1.0000
  H   H33       1.0  0.9181471766989018  0.3242174645122233  0.1306806931054751  1.0000
  H   H34       1.0  0.4181479379601355  0.6757805739616245  0.8693157060350812  1.0000
  H   H35       1.0  0.005111646198614  0.2977462912259768  0.9397592960198722  1.0000
  H   H36       1.0  0.5051068078105913  0.7022409734935094  0.06024121721198127  1.0000
  H   H37       1.0  0.7495285031444678  0.9355027369960638  0.8255300294451757  1.0000
  H   H38       1.0  0.24951186632320335  0.06448837882057029  0.1744789604936159  1.0000
  H   H39       1.0  0.6513201165827237  0.96491352186856  0.01682806453792546  1.0000
  H   H40       1.0  0.151313526679715  0.0350835024102381  0.9831799712109303  1.0000
  C   C1        1.0  0.278167973256167  0.1626054744871368  0.5457476932712666  1.0000
  C   C2        1.0  0.7781449007184377  0.8374023425279518  0.4542417849597982  1.0000
  C   C3        1.0  0.421606487711145  0.259962812751155  0.6066310536687709  1.0000
  C   C4        1.0  0.9215933734214872  0.7400435966323257  0.393365606083492  1.0000
  C   C5        1.0  0.3961589004851333  0.3041961900340907  0.7309252771506606  1.0000
  C   C6        1.0  0.8961556217392256  0.6958084435908204  0.2690684016900207  1.0000
  C   C7        1.0  0.28812059431090375  0.4074933630869637  0.7880933705111203  1.0000
  C   C8        1.0  0.7881081235728757  0.5925116148143701  0.21190456792923126  1.0000
  C   C9        1.0  0.2690105835153105  0.445958573738686  0.9024470821658566  1.0000
  C   C10       1.0  0.7689942505601762  0.5540427355077924  0.09755428786184692  1.0000
  C   C11       1.0  0.3548210255700042  0.3777652983746905  0.9595887605838342  1.0000
  C   C12       1.0  0.8548265016408294  0.6222208388003168  0.040406798544985585  1.0000
  C   C13       1.0  0.4598282084682451  0.27259155976673816  0.9047966048285617  1.0000
  C   C14       1.0  0.9598373155322047  0.7273905226051481  0.09519122198777541  1.0000
  C   C15       1.0  0.4810484418940816  0.2379053648084835  0.7908168536454028  1.0000
  C   C16       1.0  0.9810463089004527  0.7620952713295139  0.2091744360400014  1.0000
  C   C17       1.0  0.8436590961108763  0.09331812474279391  0.257757010540189  1.0000
  C   C18       1.0  0.3436622580823538  0.9066857231631144  0.7422532135213089  1.0000
  C   C19       1.0  0.7142383792533026  0.16143579724853643  0.20451366983960637  1.0000
  C   C20       1.0  0.21423757299670138  0.8385684805952848  0.7954899101790431  1.0000
  C   C21       1.0  0.7748579267636445  0.1474112341727505  0.0882004469090347  1.0000
  C   C22       1.0  0.2748516640588861  0.852585397770582  0.9118018370013061  1.0000
  C   C23       1.0  0.8766168873340093  0.23929288963880418  0.06493032434114097  1.0000
  C   C24       1.0  0.3766134109496305  0.7606987543977368  0.9350724382784605  1.0000
  C   C25       1.0  0.9286908726208265  0.2248636750996481  0.9571706340818054  1.0000
  C   C26       1.0  0.42867363015176346  0.7751212841004148  0.0428295408025221  1.0000
  C   C27       1.0  0.8805614411399247  0.11587921812149199  0.8722441936569679  1.0000
  C   C28       1.0  0.38055507986676657  0.8841049561557948  0.12776248708092897  1.0000
  C   C29       1.0  0.7828619084238041  0.0211561608525983  0.8928355999658634  1.0000
  C   C30       1.0  0.2828472576202329  0.9788301917916866  0.1071720804498922  1.0000
  C   C31       1.0  0.7298904026733054  0.0381714488841709  0.0008604074993598962  1.0000
  C   C32       1.0  0.22987990920496765  0.961823455765135  0.9991488814164384  1.0000
  Br  Br1       1.0  0.3185595247118158  0.4273787975015324  0.11528864967217341  1.0000
  Br  Br2       1.0  0.8185454911246024  0.5726186245158401  0.8847133003357256  1.0000
  Br  Br3       1.0  0.9490050791751514  0.09770036291687488  0.7249248805363563  1.0000
  Br  Br4       1.0  0.4490005193451338  0.9022836015753339  0.2750735337098006  1.0000
  N   N1        1.0  0.42048230952762816  0.36365136834514533  0.5624742878537177  1.0000
  N   N2        1.0  0.9204737843119729  0.6363559710298645  0.43752574714202547  1.0000
  N   N3        1.0  0.695338135163368  0.2933387523062904  0.2765418594072742  1.0000
  N   N4        1.0  0.19533790887982144  0.7066683810176568  0.7234617367620186  1.0000
  N   N5        1.0  0.7905427173005535  0.3185967200030646  0.5025498110201454  1.0000
  N   N6        1.0  0.2905424491113208  0.6814091763498168  0.49745151518508374  1.0000
  N   N7        1.0  0.3271337161358048  0.25959531875613345  0.3275697019349408  1.0000
  N   N8        1.0  0.8271244189238443  0.740409533478676  0.6724276006667793  1.0000
  N   N9        1.0  0.9059657651433425  0.39517783282476426  0.5401953844170607  1.0000
  N   N10       1.0  0.4059769031830669  0.6048249000447042  0.4598023988724264  1.0000
  N   N11       1.0  0.026055050890789692  0.4667343541196372  0.5793771914457793  1.0000
  N   N12       1.0  0.5260571541235989  0.5332742627440438  0.4206245461864384  1.0000
  N   N13       1.0  0.2055995509813329  0.3275297078008562  0.3222256271905124  1.0000
  N   N14       1.0  0.7055828744283659  0.6724718110337307  0.6777731988468005  1.0000
  N   N15       1.0  0.08332755961912136  0.390669582257715  0.31295326568496756  1.0000
  N   N16       1.0  0.5833186425312249  0.6093351257560897  0.6870467588092808  1.0000
