data_image0
_chemical_formula_structural       La4Cu4H32C56N8O32
_chemical_formula_sum              "La4 Cu4 H32 C56 N8 O32"
_cell_length_a       9.329111863334925
_cell_length_b       11.379418518539481
_cell_length_c       17.4800550555237
_cell_angle_alpha    107.45681467226889
_cell_angle_beta     89.99853655469369
_cell_angle_gamma    114.1868327183241

_space_group_name_H-M_alt    "P 1"
_space_group_IT_number       1

loop_
  _space_group_symop_operation_xyz
  'x, y, z'

loop_
  _atom_site_type_symbol
  _atom_site_label
  _atom_site_symmetry_multiplicity
  _atom_site_fract_x
  _atom_site_fract_y
  _atom_site_fract_z
  _atom_site_occupancy
  La  La1       1.0  0.30163198544781256  0.961385227732961  0.9229032249829172  1.0000
  La  La2       1.0  0.3403718861174169  0.03868062109601309  0.5770682789734635  1.0000
  La  La3       1.0  0.6983660116953628  0.03860140419298119  0.07708920170404099  1.0000
  La  La4       1.0  0.6596483939558269  0.9613398665316167  0.4229361084512178  1.0000
  Cu  Cu1       1.0  0.2465289644239518  0.33200626509167813  0.1367970997849355  1.0000
  Cu  Cu2       1.0  0.9148414552346935  0.6680221204566833  0.3631569751089927  1.0000
  Cu  Cu3       1.0  0.753450122654364  0.6679682697476891  0.8631971030988621  1.0000
  Cu  Cu4       1.0  0.08517500521185177  0.33198214861474173  0.6368472845118234  1.0000
  H   H1        1.0  0.6180806118339034  0.19681969355466575  0.779931272992968  1.0000
  H   H2        1.0  0.42119461422979737  0.8027291148757667  0.7198374093161346  1.0000
  H   H3        1.0  0.38193606730485635  0.8031957347980949  0.22007332650654376  1.0000
  H   H4        1.0  0.5788026150677438  0.19727313646811237  0.28016705080192134  1.0000
  H   H5        1.0  0.7865576975832339  0.30581259214715567  0.6886070881642465  1.0000
  H   H6        1.0  0.4807633562528294  0.6940053477011998  0.8113480360297486  1.0000
  H   H7        1.0  0.21346546261974444  0.6942029355539531  0.31140039055072316  1.0000
  H   H8        1.0  0.5192202868743365  0.3059804460063873  0.1886493860074197  1.0000
  H   H9        1.0  0.16108434313571962  0.23715844232430777  0.7615978998819413  1.0000
  H   H10       1.0  0.9241418488503611  0.7629783073550981  0.738612961374926  1.0000
  H   H11       1.0  0.8389222542239025  0.7628325285880777  0.23840276481913486  1.0000
  H   H12       1.0  0.07585330894707445  0.23702194436573612  0.26139227464517484  1.0000
  H   H13       1.0  0.011615293536749479  0.13570085761866574  0.8614274784763294  1.0000
  H   H14       1.0  0.8762143572129086  0.8642784056996713  0.6386991200142873  1.0000
  H   H15       1.0  0.9883865188739378  0.8642869739485376  0.1385703189718512  1.0000
  H   H16       1.0  0.12378446144879968  0.1357270253727734  0.3613093592027639  1.0000
  H   H17       1.0  0.5555556056135345  0.7314531413410917  0.0577274664751357  1.0000
  H   H18       1.0  0.8240571322479225  0.2683858866149435  0.4420780094246338  1.0000
  H   H19       1.0  0.44442813739662757  0.26853285249440256  0.9422757143483195  1.0000
  H   H20       1.0  0.17594970919006403  0.7316205835193655  0.5579312334061655  1.0000
  H   H21       1.0  0.4937776238176779  0.5782340261076725  0.13801639151894557  1.0000
  H   H22       1.0  0.9155896744850551  0.42160149239899164  0.3618408672674676  1.0000
  H   H23       1.0  0.5062036392224839  0.4217384285804256  0.8619762836339361  1.0000
  H   H24       1.0  0.08441936747012581  0.5783986577074244  0.6381614889745248  1.0000
  H   H25       1.0  0.045996049384122224  0.3276580101477719  0.003725042669309201  1.0000
  H   H26       1.0  0.7187443447230066  0.6725170836548597  0.49627548646398606  1.0000
  H   H27       1.0  0.9539914880861529  0.672320563486181  0.9962687600491902  1.0000
  H   H28       1.0  0.28126528589965716  0.3274949654377579  0.5037193352983065  1.0000
  H   H29       1.0  0.08671992121593762  0.48266906266903203  0.9210187889461635  1.0000
  H   H30       1.0  0.6044237534737745  0.5174912924793771  0.57897035299019  1.0000
  H   H31       1.0  0.9132631998220972  0.5173178310929246  0.07898112457754541  1.0000
  H   H32       1.0  0.395582617055581  0.4825249568220967  0.42102867596157256  1.0000
  C   C1        1.0  0.7016823993891704  0.09075712721936918  0.8844648324305593  1.0000
  C   C2        1.0  0.6110165495039154  0.9089011503485191  0.6153850165290746  1.0000
  C   C3        1.0  0.29831527209110925  0.9092438639678021  0.1155325291719294  1.0000
  C   C4        1.0  0.3889854470553331  0.09110206036385897  0.3846179037770553  1.0000
  C   C5        1.0  0.8012019789002804  0.1571431322070751  0.8283754242502539  1.0000
  C   C6        1.0  0.6441627472332597  0.842576020642724  0.6715476389638935  1.0000
  C   C7        1.0  0.19880483944093186  0.8428568580355387  0.17162232502193578  1.0000
  C   C8        1.0  0.3558317885920488  0.15742513100457958  0.3284543297564682  1.0000
  C   C9        1.0  0.7389117138025796  0.20647285751781644  0.7791029860434548  1.0000
  C   C10       1.0  0.5324319266247598  0.7932029414953232  0.7207698408420808  1.0000
  C   C11       1.0  0.2611039157483717  0.7935404710286846  0.22089950993534302  1.0000
  C   C12       1.0  0.4675626092005487  0.20679821015198027  0.2792321278782808  1.0000
  C   C13       1.0  0.8320256258878942  0.26617103039845347  0.7273279945112705  1.0000
  C   C14       1.0  0.5658560981027987  0.7336480010460986  0.7726355559599938  1.0000
  C   C15       1.0  0.16799436328567197  0.7338402978094152  0.2726752771919081  1.0000
  C   C16       1.0  0.4341311659354544  0.26634289196193345  0.2273628057596113  1.0000
  C   C17       1.0  0.04168653985814786  0.22862313827494768  0.7688770672206926  1.0000
  C   C18       1.0  0.8131984576452139  0.7713551907340345  0.7312347167879236  1.0000
  C   C19       1.0  0.9583235662518914  0.7713748517482981  0.2311214578054859  1.0000
  C   C20       1.0  0.18679298705706768  0.22864192152234605  0.2687676519496661  1.0000
  C   C21       1.0  0.9568967461273629  0.17117208154495955  0.8237763130892474  1.0000
  C   C22       1.0  0.7859297273785301  0.8287387616960158  0.6762789454559692  1.0000
  C   C23       1.0  0.04311069647534532  0.828824868820085  0.17622144817512003  1.0000
  C   C24       1.0  0.21406271468070054  0.17126249025378118  0.3237259027167595  1.0000
  C   C25       1.0  0.3453737025048582  0.7279072587274981  0.9443344579876507  1.0000
  C   C26       1.0  0.6176388928297456  0.2721856668605227  0.5556271611005315  1.0000
  C   C27       1.0  0.6546052878106393  0.2720735158500745  0.05566432791121661  1.0000
  C   C28       1.0  0.3823636932277949  0.7278380226552769  0.444381821834817  1.0000
  C   C29       1.0  0.3233383165503623  0.6221347121729364  0.9836575710384066  1.0000
  C   C30       1.0  0.7013397872076368  0.3778690952948692  0.5162391219629467  1.0000
  C   C31       1.0  0.6766422754069764  0.3778471221948934  0.016342554530510308  1.0000
  C   C32       1.0  0.2986687424271395  0.6221514736958582  0.48376756930199594  1.0000
  C   C33       1.0  0.4403436295654046  0.6446284256636899  0.042988036828852216  1.0000
  C   C34       1.0  0.7957269603289915  0.35526405289503055  0.45685005468820344  1.0000
  C   C35       1.0  0.5596369723802398  0.3553534287169313  0.9570126646186947  1.0000
  C   C36       1.0  0.20427232819098134  0.6447423180102019  0.543156308956746  1.0000
  C   C37       1.0  0.4075641145775392  0.557444913605451  0.08802389324802816  1.0000
  C   C38       1.0  0.8501943742134228  0.44246447129850697  0.4118446244796558  1.0000
  C   C39       1.0  0.5924159276151498  0.44253582082727394  0.9119737408639706  1.0000
  C   C40       1.0  0.14981458325660665  0.5575397986077845  0.5881596353484608  1.0000
  C   C41       1.0  0.15642867530847582  0.41928859021788883  0.013733515685160628  1.0000
  C   C42       1.0  0.7374098056920245  0.5807965421315088  0.48621690080216234  1.0000
  C   C43       1.0  0.8435567184542238  0.5806899836546009  0.9862602870925625  1.0000
  C   C44       1.0  0.26259465002983257  0.4192115878854636  0.5137817763083559  1.0000
  C   C45       1.0  0.18001055613162714  0.5048139358921871  0.9677335231193563  1.0000
  C   C46       1.0  0.6754581675032085  0.4952749567121658  0.5322080920838416  1.0000
  C   C47       1.0  0.8199689539836253  0.49516787858211575  0.03226602660054569  1.0000
  C   C48       1.0  0.3245487727674003  0.5047424325499887  0.46779458008210634  1.0000
  C   C49       1.0  0.9440539588738445  0.9263441902747045  0.9738605614632972  1.0000
  C   C50       1.0  0.017592764240205786  0.07357454286194808  0.5262749555107078  1.0000
  C   C51       1.0  0.05595193119771839  0.07364322054682049  0.026125142415239094  1.0000
  C   C52       1.0  0.9824321655245356  0.9264445240295912  0.47371772625093184  1.0000
  C   C53       1.0  0.21317204422578576  0.9224840432412762  0.7277046260677904  1.0000
  C   C54       1.0  0.29077911043967214  0.0775240699497886  0.7722085853501425  1.0000
  C   C55       1.0  0.7868232346702442  0.07752502768187948  0.2722919357371438  1.0000
  C   C56       1.0  0.7092328259927214  0.9224861591578418  0.2277921951034045  1.0000
  N   N1        1.0  0.9805443404566887  0.27529225030837523  0.7205542659207608  1.0000
  N   N2        1.0  0.7053226316798913  0.7246525693932283  0.7795105205224856  1.0000
  N   N3        1.0  0.019468416883007836  0.7247088993113805  0.27944770229617427  1.0000
  N   N4        1.0  0.29466360045776696  0.2753384037852341  0.22049014474124817  1.0000
  N   N5        1.0  0.2671277220581273  0.44641664624801064  0.07465327611620147  1.0000
  N   N6        1.0  0.8208992693768309  0.553581921624371  0.425259778306561  1.0000
  N   N7        1.0  0.7328571196505462  0.553562967640481  0.9253412905121791  1.0000
  N   N8        1.0  0.17911059784483288  0.4464241679091144  0.5747385227414623  1.0000
  O   O1        1.0  0.5519992807405458  0.03779254941058239  0.8650125806904467  1.0000
  O   O2        1.0  0.5144918582720238  0.9620929925164108  0.6348797582182399  1.0000
  O   O3        1.0  0.44799892281717013  0.9622073617350106  0.13498286530414555  1.0000
  O   O4        1.0  0.48551907622468343  0.03791737680002429  0.3651250534153121  1.0000
  O   O5        1.0  0.7747901166264769  0.09432445257694158  0.9469566378927465  1.0000
  O   O6        1.0  0.6803475163804148  0.9050092529961229  0.5528123571452922  1.0000
  O   O7        1.0  0.22519708519260456  0.9056684603054563  0.05304152386266031  1.0000
  O   O8        1.0  0.31965505220946266  0.09499295772583588  0.44719095106744067  1.0000
  O   O9        1.0  0.23613189982327024  0.7059978857061038  0.8915442284133446  1.0000
  O   O10       1.0  0.5305588222999943  0.29424113993519535  0.60852810804424  1.0000
  O   O11       1.0  0.7638512534690419  0.29398692814312705  0.10845415743867898  1.0000
  O   O12       1.0  0.4694484688000811  0.705785528823469  0.3914791351149844  1.0000
  O   O13       1.0  0.47082167914756196  0.8418291662311571  0.9688943345937985  1.0000
  O   O14       1.0  0.6289979909034287  0.15815836150017756  0.5310348711574802  1.0000
  O   O15       1.0  0.529164826422125  0.15814948757322608  0.031101771668829794  1.0000
  O   O16       1.0  0.3710040730649735  0.8418664280699985  0.46897660326440865  1.0000
  O   O17       1.0  0.0005704427480564147  0.863896891714965  0.9182892532543219  1.0000
  O   O18       1.0  0.13646962891706238  0.13585723316425194  0.5818698668023714  1.0000
  O   O19       1.0  0.9994322717153351  0.1360905995155193  0.08169875422756688  1.0000
  O   O20       1.0  0.8635590484864721  0.8641607533279013  0.4181208992625257  1.0000
  O   O21       1.0  0.8033552308603831  0.8764707271225233  0.9889391168776596  1.0000
  O   O22       1.0  0.9266343014046539  0.12346644952429392  0.5113665556806097  1.0000
  O   O23       1.0  0.19664851550360396  0.12351668393753809  0.011046587060100404  1.0000
  O   O24       1.0  0.07337332992537418  0.8765416000837188  0.48862981782656323  1.0000
  O   O25       1.0  0.19938691228621508  0.8456191413473703  0.7694790024248161  1.0000
  O   O26       1.0  0.3538346540177528  0.15432875210222358  0.7304033061723201  1.0000
  O   O27       1.0  0.8006111069033677  0.15438468947019857  0.23051258836961347  1.0000
  O   O28       1.0  0.6461836866926446  0.8456878561175356  0.2696060882690077  1.0000
  O   O29       1.0  0.16610130646981247  0.8854087599765065  0.6525931446982154  1.0000
  O   O30       1.0  0.28089277765471365  0.11469394544179318  0.8473241714520369  1.0000
  O   O31       1.0  0.8338993114989889  0.11461956914189386  0.3474035328591824  1.0000
  O   O32       1.0  0.7191066076280703  0.8853061857252338  0.15267760917785003  1.0000
