data_image0
_chemical_formula_structural       Zn8H54C78N6O32
_chemical_formula_sum              "Zn8 H54 C78 N6 O32"
_cell_length_a       19.15767195349753
_cell_length_b       18.503133204587733
_cell_length_c       20.30179498782278
_cell_angle_alpha    65.32836639406867
_cell_angle_beta     67.67335756712713
_cell_angle_gamma    66.30074133623131

_space_group_name_H-M_alt    "P 1"
_space_group_IT_number       1

loop_
  _space_group_symop_operation_xyz
  'x, y, z'

loop_
  _atom_site_type_symbol
  _atom_site_label
  _atom_site_symmetry_multiplicity
  _atom_site_fract_x
  _atom_site_fract_y
  _atom_site_fract_z
  _atom_site_occupancy
  Zn  Zn1       1.0  0.9070717164936255  0.9619869453332299  0.11227182994528574  1.0000
  Zn  Zn2       1.0  0.8906831004723231  0.12318764389946323  0.9677296969962729  1.0000
  Zn  Zn3       1.0  0.9195622025287378  0.9382494032667738  0.9603167717498879  1.0000
  Zn  Zn4       1.0  0.05585311363535077  0.9811403612021438  0.9750764987633863  1.0000
  Zn  Zn5       1.0  0.4729714628054327  0.5504589194734637  0.4032215953788808  1.0000
  Zn  Zn6       1.0  0.4644362381447991  0.37822532882146487  0.5311401778968375  1.0000
  Zn  Zn7       1.0  0.32935781916403783  0.5429681436812928  0.5502806325004813  1.0000
  Zn  Zn8       1.0  0.5057686990060476  0.5030727991413003  0.565197366933653  1.0000
  H   H1        1.0  0.4573727012068646  0.2983207026342215  0.15213724368964415  1.0000
  H   H2        1.0  0.431063135504381  0.2213424669502331  0.14330654073579308  1.0000
  H   H3        1.0  0.5220176518899038  0.24349729073981052  0.087412432969174  1.0000
  H   H4        1.0  0.5453197323152921  0.11045827280285894  0.1931712565876254  1.0000
  H   H5        1.0  0.4797501328427103  0.161218070613657  0.2594350210703382  1.0000
  H   H6        1.0  0.6650460329747078  0.11189010094612682  0.14284791189508178  1.0000
  H   H7        1.0  0.685035473888689  0.323413620520718  0.2794369589313563  1.0000
  H   H8        1.0  0.4352311410561854  0.34897212252585064  0.3611922692441781  1.0000
  H   H9        1.0  0.4493987696416469  0.2652714849476682  0.28707406860555557  1.0000
  H   H10       1.0  0.9038742324448847  0.4548872265412599  0.2092314027729004  1.0000
  H   H11       1.0  0.008319648985207085  0.4213443239563191  0.17742192820250582  1.0000
  H   H12       1.0  0.952557347584012  0.5125152105828974  0.12094497949487977  1.0000
  H   H13       1.0  0.017063299662851222  0.5501732287583538  0.18428996187427066  1.0000
  H   H14       1.0  0.9717352655200384  0.49217045831540673  0.2728763757479485  1.0000
  H   H15       1.0  0.963147856771677  0.6757638753570347  0.12903796722375926  1.0000
  H   H16       1.0  0.6336528651911876  0.7173882386185186  0.30416679632001126  1.0000
  H   H17       1.0  0.7391410624747082  0.466110701713248  0.4284755098679513  1.0000
  H   H18       1.0  0.8676977419359418  0.47000857971082877  0.3374749635633306  1.0000
  H   H19       1.0  0.25257745788511704  0.034186636777001005  0.23949649649789967  1.0000
  H   H20       1.0  0.193993764633845  0.13914488025550042  0.23017019354955448  1.0000
  H   H21       1.0  0.21294025241895298  0.0947350645992344  0.16010730754192798  1.0000
  H   H22       1.0  0.07565730629954  0.10178107093282308  0.2425155551101029  1.0000
  H   H23       1.0  0.11198677020301061  0.044355520841271805  0.3229975544749523  1.0000
  H   H24       1.0  0.0610989851506361  0.045515333707612605  0.17842536805037676  1.0000
  H   H25       1.0  0.25706277173516406  0.7021920550245115  0.28018047780705774  1.0000
  H   H26       1.0  0.27182981153508484  0.8052946271136748  0.42829013617524936  1.0000
  H   H27       1.0  0.19729884757671812  0.943753776461918  0.36265065521605094  1.0000
  H   H28       1.0  0.5096988514127645  0.9910286121989246  0.9355026806907178  1.0000
  H   H29       1.0  0.4776941136409788  0.9490286160518622  0.03461192430315664  1.0000
  H   H30       1.0  0.580028753753382  0.932048123881735  0.9898884278834432  1.0000
  H   H31       1.0  0.5309921470806743  0.04106523809456771  0.05244575832838188  1.0000
  H   H32       1.0  0.4596077304042582  0.1012576319334144  0.0006669060546897015  1.0000
  H   H33       1.0  0.6584025827894776  0.025783187718232597  0.0030124661458330146  1.0000
  H   H34       1.0  0.6445306007663802  0.2880610747867181  0.7142934356586257  1.0000
  H   H35       1.0  0.4245967576649079  0.23682654155860666  0.7705643224112608  1.0000
  H   H36       1.0  0.44609349715865687  0.13985803241258313  0.8932470090728589  1.0000
  H   H37       1.0  0.25743245173488555  0.0670135354993775  0.5874460113945548  1.0000
  H   H38       1.0  0.20601995938495318  0.019194880504350902  0.5683699425662783  1.0000
  H   H39       1.0  0.19811793488710802  0.005673360676091504  0.6623869778940945  1.0000
  H   H40       1.0  0.0763006626128018  0.10912833402370131  0.6241785640744129  1.0000
  H   H41       1.0  0.131842668868245  0.17029030118366964  0.5468299205145544  1.0000
  H   H42       1.0  0.05746070892551809  0.09899807225237112  0.7407683300184049  1.0000
  H   H43       1.0  0.18847573250116056  0.3592572246751332  0.6926559229123372  1.0000
  H   H44       1.0  0.2991003002694442  0.31448042275116  0.47903889087258034  1.0000
  H   H45       1.0  0.22164512899770022  0.2189125725928137  0.515745922672217  1.0000
  H   H46       1.0  0.3720645799989768  0.587293587233354  0.9683460304488141  1.0000
  H   H47       1.0  0.33843645692847707  0.5487610948164701  0.06767002734743946  1.0000
  H   H48       1.0  0.3089362650327914  0.6571480589988923  0.020458979666926867  1.0000
  H   H49       1.0  0.19902267269300464  0.5969369947622668  0.05763126926489553  1.0000
  H   H50       1.0  0.2591429636312057  0.523406264725864  0.009973298062774907  1.0000
  H   H51       1.0  0.1508166593423184  0.7291803409647315  0.0005928295796238606  1.0000
  H   H52       1.0  0.2324922110975506  0.7154352741476872  0.6958598256794634  1.0000
  H   H53       1.0  0.40607008182714577  0.494985436516025  0.7873874867650134  1.0000
  H   H54       1.0  0.3460417177505377  0.516395216334658  0.911303539248323  1.0000
  C   C1        1.0  0.4804490019659511  0.23750273750614073  0.1431110900946068  1.0000
  C   C2        1.0  0.5211764199575767  0.1706122248612374  0.20363263569250736  1.0000
  C   C3        1.0  0.6613077292355386  0.15557908095229322  0.16800353068496326  1.0000
  C   C4        1.0  0.7271187560634759  0.1729750627825339  0.1609244981988169  1.0000
  C   C5        1.0  0.8032738140827363  0.1273976631480878  0.1186987721120047  1.0000
  C   C6        1.0  0.723334378179956  0.22841634840301595  0.19671914004609903  1.0000
  C   C7        1.0  0.6428031095025375  0.2616171002687011  0.24067061643459212  1.0000
  C   C8        1.0  0.6325344305154915  0.3113483425242194  0.2822741794789182  1.0000
  C   C9        1.0  0.5589273342559269  0.3415395733730904  0.3260589967735826  1.0000
  C   C10       1.0  0.4931252055537456  0.32462151370190645  0.3269368892628962  1.0000
  C   C11       1.0  0.5014060239105547  0.276873050343049  0.2856554596789637  1.0000
  C   C12       1.0  0.5765989837005918  0.24280884769298444  0.2434753687264149  1.0000
  C   C13       1.0  0.5440876935911801  0.3895366346074527  0.3763702368843411  1.0000
  C   C14       1.0  0.9566769852931499  0.4762625549273666  0.17879546593569273  1.0000
  C   C15       1.0  0.9645721988848874  0.5283670801324192  0.2158671444389242  1.0000
  C   C16       1.0  0.9042970281972842  0.6770360247059841  0.16631003265906938  1.0000
  C   C17       1.0  0.8445233184249051  0.7497141644205456  0.16055516380119872  1.0000
  C   C18       1.0  0.8653968257074002  0.828094390325873  0.11004547485360648  1.0000
  C   C19       1.0  0.7645272521293263  0.7509939977642759  0.20662295974546657  1.0000
  C   C20       1.0  0.758224674573853  0.6696922705651149  0.26361270896134664  1.0000
  C   C21       1.0  0.6846776209430981  0.6631516052331677  0.31287449663593525  1.0000
  C   C22       1.0  0.6774175738972659  0.5904988825566236  0.3715085328546765  1.0000
  C   C23       1.0  0.744956239221949  0.522156959790067  0.38133912454821967  1.0000
  C   C24       1.0  0.8171795523799189  0.5249645779057064  0.3304130747490961  1.0000
  C   C25       1.0  0.824939817502248  0.5984784156976631  0.2706693038941664  1.0000
  C   C26       1.0  0.5991081784248918  0.581229360659016  0.4217098539938608  1.0000
  C   C27       1.0  0.2010849872900239  0.08206300396805942  0.22062752151092724  1.0000
  C   C28       1.0  0.1265027263662688  0.0541533957721541  0.26264434297790024  1.0000
  C   C29       1.0  0.09856762074679182  0.9836878898114066  0.2014101530107838  1.0000
  C   C30       1.0  0.10832719486462852  0.9181263855468843  0.18088002005342224  1.0000
  C   C31       1.0  0.06427826368852858  0.9322916495292617  0.1274205528198565  1.0000
  C   C32       1.0  0.16123005528594792  0.8366536121039871  0.2082841033732735  1.0000
  C   C33       1.0  0.19597540464398827  0.8312221029719353  0.2646813053267537  1.0000
  C   C34       1.0  0.2441234495327364  0.7543029597519324  0.2992890748781535  1.0000
  C   C35       1.0  0.2709730658578238  0.744859691186484  0.35774416807231574  1.0000
  C   C36       1.0  0.25204548893883333  0.8136747868863737  0.38114608197831495  1.0000
  C   C37       1.0  0.2094318537700701  0.8912557175487521  0.34457743920272343  1.0000
  C   C38       1.0  0.1797412292166598  0.9011069556379354  0.28654428022097994  1.0000
  C   C39       1.0  0.3178812705277848  0.6633292946630718  0.39947819952545444  1.0000
  C   C40       1.0  0.5216960382866916  0.9775741670784512  0.9888044514532698  1.0000
  C   C41       1.0  0.518420062680164  0.05610943807691632  0.9989431204485801  1.0000
  C   C42       1.0  0.6489407509877978  0.0758154444418366  0.9512529978510219  1.0000
  C   C43       1.0  0.7067601319735458  0.11217141618116953  0.9030358396493133  1.0000
  C   C44       1.0  0.7838622291153425  0.0822185235375414  0.9221925990798927  1.0000
  C   C45       1.0  0.6942048289408476  0.1789092559368441  0.8337197917121703  1.0000
  C   C46       1.0  0.6168579128970322  0.19726710052690782  0.8203716574513964  1.0000
  C   C47       1.0  0.6006802533082549  0.2557793458896995  0.7528090265925446  1.0000
  C   C48       1.0  0.5324723500235607  0.2699894761024666  0.7341738212161676  1.0000
  C   C49       1.0  0.47746537225692975  0.22665027982844782  0.785561006851417  1.0000
  C   C50       1.0  0.48991419911042305  0.17192267629773997  0.8544970379012968  1.0000
  C   C51       1.0  0.5601815237522703  0.15551361885055576  0.872746920665222  1.0000
  C   C52       1.0  0.5190825678743777  0.3287175934873404  0.659945155448952  1.0000
  C   C53       1.0  0.20254064402462293  0.05043246311695531  0.6056295059633785  1.0000
  C   C54       1.0  0.13074661544861504  0.1270453831659282  0.6039370646134545  1.0000
  C   C55       1.0  0.08286452107468278  0.14887808285804033  0.7253821227696097  1.0000
  C   C56       1.0  0.07512457438458846  0.18245018794583254  0.7770318442873932  1.0000
  C   C57       1.0  0.036644485024723415  0.14322114012772857  0.8568747171162487  1.0000
  C   C58       1.0  0.10926741391885028  0.24847561113612932  0.7569262892709009  1.0000
  C   C59       1.0  0.15521911807357466  0.2708833514261997  0.6776209443070444  1.0000
  C   C60       1.0  0.1959732274279489  0.3294204679161297  0.6530934145479821  1.0000
  C   C61       1.0  0.247851072401744  0.3448764726588466  0.5824576149897215  1.0000
  C   C62       1.0  0.2568967376004139  0.30361706810371913  0.5336685169512024  1.0000
  C   C63       1.0  0.2138252022313551  0.2494393183790891  0.5547452414446499  1.0000
  C   C64       1.0  0.16317071940255087  0.2309630808999614  0.6275533607197163  1.0000
  C   C65       1.0  0.3001263146985095  0.3967716202859536  0.5608777931242984  1.0000
  C   C66       1.0  0.3216081242323269  0.5954492953968755  0.016623329286055356  1.0000
  C   C67       1.0  0.24926342064002677  0.5862371869810801  0.009755988019278997  1.0000
  C   C68       1.0  0.16920601125913493  0.7194332124357886  0.9463705198595778  1.0000
  C   C69       1.0  0.13777726767827397  0.7797587220762098  0.8887633385704706  1.0000
  C   C70       1.0  0.08102611837290405  0.8562818400067868  0.9075030239256425  1.0000
  C   C71       1.0  0.16351643145561912  0.7687035386623864  0.8151824830125779  1.0000
  C   C72       1.0  0.2264254717834647  0.6891047740937992  0.8107717467303607  1.0000
  C   C73       1.0  0.2584227018698328  0.6717343940045951  0.7424127281829558  1.0000
  C   C74       1.0  0.3224079466124438  0.6024182526668156  0.7339408818322898  1.0000
  C   C75       1.0  0.35473493974652826  0.5478893021575219  0.7951231155935051  1.0000
  C   C76       1.0  0.32111591711074533  0.5604093262843932  0.8643862531942904  1.0000
  C   C77       1.0  0.2568386548594077  0.6309952183097779  0.8731232140477662  1.0000
  C   C78       1.0  0.3577264000113586  0.5820090599670281  0.6621514479858067  1.0000
  N   N1        1.0  0.5873843654313688  0.1893855752052573  0.2061483460230137  1.0000
  N   N2        1.0  0.8970369323469499  0.6028993707187525  0.21885442802072658  1.0000
  N   N3        1.0  0.13330681222868887  0.9778455157878626  0.2516854892204209  1.0000
  N   N4        1.0  0.5761566063736867  0.09796819773932701  0.9400167788315488  1.0000
  N   N5        1.0  0.12316434756120742  0.17274410600352752  0.651855708678163  1.0000
  N   N6        1.0  0.2237170151755449  0.6458934642900761  0.9419062002262923  1.0000
  O   O1        1.0  0.9414532063689194  0.0027972047605545015  0.002801343860674949  1.0000
  O   O2        1.0  0.8352272858325877  0.16751717937169275  0.05314353427634437  1.0000
  O   O3        1.0  0.8271505214438336  0.0499402683008157  0.15259414757268536  1.0000
  O   O4        1.0  0.7817648355969525  0.24458455164147355  0.19368338983765906  1.0000
  O   O5        1.0  0.544088432821269  0.3467914051998378  0.4445600130825229  1.0000
  O   O6        1.0  0.529128664993671  0.46818623324076475  0.3481942459322057  1.0000
  O   O7        1.0  0.8983231218300035  0.8349833804446547  0.040879030699272734  1.0000
  O   O8        1.0  0.8509129630620363  0.880279456901185  0.1425763242973588  1.0000
  O   O9        1.0  0.7064600467408579  0.8135628299186596  0.19903564273957397  1.0000
  O   O10       1.0  0.5966438752835899  0.5386957694331828  0.4906445755942386  1.0000
  O   O11       1.0  0.5410106602730095  0.6144219846960867  0.391869297726501  1.0000
  O   O12       1.0  0.09711416421427536  0.9595665816355423  0.05810640489998784  1.0000
  O   O13       1.0  0.9977168455613921  0.9176115612996301  0.15613317989538425  1.0000
  O   O14       1.0  0.17543184660553376  0.7765409532729635  0.18742111668255768  1.0000
  O   O15       1.0  0.2896771668944992  0.6408393756331067  0.4702438941129687  1.0000
  O   O16       1.0  0.3819245172759337  0.6249122469955283  0.36196276461376453  1.0000
  O   O17       1.0  0.8228002167045999  0.006230464144501003  0.9271482439753175  1.0000
  O   O18       1.0  0.8024721564254591  0.1346179885313248  0.9322481119216451  1.0000
  O   O19       1.0  0.7440839452160333  0.21490618577621493  0.7881017709672096  1.0000
  O   O20       1.0  0.5506342082130046  0.3877976508692314  0.6282944601694569  1.0000
  O   O21       1.0  0.4768438868338264  0.3146434578059498  0.6327513392635  1.0000
  O   O22       1.0  0.08148375598255342  0.07629455742482351  0.8906586957639964  1.0000
  O   O23       1.0  0.9642997437815879  0.17742687676069122  0.8826706794611785  1.0000
  O   O24       1.0  0.1036503513292715  0.28096579034886565  0.8020531751933222  1.0000
  O   O25       1.0  0.2750975626409371  0.4570713875417525  0.5873125000575431  1.0000
  O   O26       1.0  0.36848666660058177  0.3751813610831789  0.5176008875997484  1.0000
  O   O27       1.0  0.10412195454244255  0.8811081823446544  0.9438018025481087  1.0000
  O   O28       1.0  0.015052837695513683  0.8887462680367264  0.8904551408375672  1.0000
  O   O29       1.0  0.1398882343527532  0.8213060673591671  0.7596020654116703  1.0000
  O   O30       1.0  0.30999299471331887  0.5923714390813899  0.6269795588496553  1.0000
  O   O31       1.0  0.432950691138032  0.5539520711754095  0.6436495636320814  1.0000
  O   O32       1.0  0.44305870669995784  0.4972412992249247  0.5115760720294349  1.0000
