data_image0
_chemical_formula_structural       K2H50C28N4O14
_chemical_formula_sum              "K2 H50 C28 N4 O14"
_cell_length_a       8.018696033455322
_cell_length_b       8.156144781806622
_cell_length_c       13.97666663503004
_cell_angle_alpha    89.99976423271268
_cell_angle_beta     90.00004169688167
_cell_angle_gamma    98.16395295151999

_space_group_name_H-M_alt    "P 1"
_space_group_IT_number       1

loop_
  _space_group_symop_operation_xyz
  'x, y, z'

loop_
  _atom_site_type_symbol
  _atom_site_label
  _atom_site_symmetry_multiplicity
  _atom_site_fract_x
  _atom_site_fract_y
  _atom_site_fract_z
  _atom_site_occupancy
  K   K1        1.0  0.40070690153413585  0.837920025171364  0.7506108223636332  1.0000
  K   K2        1.0  0.9007160636531494  0.8379167246609  0.2493855523572037  1.0000
  H   H1        1.0  0.35237003217405777  0.5662198461513626  0.5311832794397731  1.0000
  H   H2        1.0  0.8523715005611975  0.56622129393088  0.4688187306683957  1.0000
  H   H3        1.0  0.15961110963456804  0.5940711157389061  0.47325379880528834  1.0000
  H   H4        1.0  0.6596123963019237  0.5940709153034758  0.5267473471263813  1.0000
  H   H5        1.0  0.015218798346012353  0.5643315687016892  0.636029382138389  1.0000
  H   H6        1.0  0.515220049500158  0.5643325194545528  0.36397177303078365  1.0000
  H   H7        1.0  0.0968803750597473  0.38266643939369516  0.5957932697198416  1.0000
  H   H8        1.0  0.5968828797634913  0.38266709022268236  0.4042090688562396  1.0000
  H   H9        1.0  0.1039578289569931  0.3063993527138323  0.767294197247864  1.0000
  H   H10       1.0  0.6039623970693312  0.3063987086645311  0.2327083261600364  1.0000
  H   H11       1.0  0.0431270394011847  0.50284125537096  0.8037547181476867  1.0000
  H   H12       1.0  0.5431278652458289  0.5028409152564635  0.196248741956687  1.0000
  H   H13       1.0  0.2142525971277536  0.3604277194038871  0.9237384687013659  1.0000
  H   H14       1.0  0.714254174228394  0.3604331819539012  0.07626397299974741  1.0000
  H   H15       1.0  0.38653240505456676  0.3895821175980458  0.841496400430117  1.0000
  H   H16       1.0  0.8865342730774445  0.3895807905236524  0.1585046143866791  1.0000
  H   H17       1.0  0.5628080554335853  0.5813730844052927  0.9390673997659533  1.0000
  H   H18       1.0  0.06280858527605199  0.581372454575174  0.0609315886668185  1.0000
  H   H19       1.0  0.4079610712229426  0.5383606154588276  0.0315885225237267  1.0000
  H   H20       1.0  0.907954518285827  0.5383623530841817  0.9684135777312833  1.0000
  H   H21       1.0  0.363244057873132  0.8389085361557348  0.0267965973807449  1.0000
  H   H22       1.0  0.8632439241949753  0.8389114016173949  0.9732054828032233  1.0000
  H   H23       1.0  0.5644222923243944  0.8004527232326593  0.0687594813979189  1.0000
  H   H24       1.0  0.06441919911031142  0.8004534309718566  0.9312404164294605  1.0000
  H   H25       1.0  0.6567962661346486  0.08811777453198738  0.025918947728129603  1.0000
  H   H26       1.0  0.1568027517187005  0.08811557936184759  0.9740798257210486  1.0000
  H   H27       1.0  0.4618308208456483  0.1121483476646148  0.9690886864186723  1.0000
  H   H28       1.0  0.96183495621478  0.11214665371693397  0.0309094445153733  1.0000
  H   H29       1.0  0.7045858787966351  0.3029681641848184  0.902067523293809  1.0000
  H   H30       1.0  0.20458995666616892  0.3029659880779362  0.0979307583940283  1.0000
  H   H31       1.0  0.8026158305399278  0.12897470780772838  0.8659947727526217  1.0000
  H   H32       1.0  0.30261598760849034  0.12897108412767713  0.1340068274782027  1.0000
  H   H33       1.0  0.7667005063523361  0.21322561890977446  0.6927423389682019  1.0000
  H   H34       1.0  0.2666998451649151  0.21322326237859096  0.3072540367380654  1.0000
  H   H35       1.0  0.678001770089928  0.38690782692795966  0.7393798426716031  1.0000
  H   H36       1.0  0.1780025378570187  0.3869070233890355  0.2606182275646347  1.0000
  H   H37       1.0  0.5688554046940623  0.3347614270184138  0.5817070931858765  1.0000
  H   H38       1.0  0.06885947383644009  0.33476443176580517  0.4182910547494814  1.0000
  H   H39       1.0  0.40199787935116404  0.27930571849001495  0.6652900000721614  1.0000
  H   H40       1.0  0.9020001745340095  0.2793056222988  0.3347098532708301  1.0000
  H   H41       1.0  0.40261489431992464  0.14538065664872588  0.46754486961450686  1.0000
  H   H42       1.0  0.902615987874384  0.14537917731511377  0.5324553032479501  1.0000
  H   H43       1.0  0.24783965769314878  0.09650288196153409  0.559137549459912  1.0000
  H   H44       1.0  0.7478411199811603  0.09650452744926238  0.44086195834840686  1.0000
  H   H45       1.0  0.2536741090605545  0.8789301229626786  0.4300772331375455  1.0000
  H   H46       1.0  0.7536716708346133  0.8789296632573951  0.5699225584246008  1.0000
  H   H47       1.0  0.45646931408198554  0.8449129979726563  0.4727970881233503  1.0000
  H   H48       1.0  0.956468111307025  0.8449128250241883  0.5272050175573284  1.0000
  H   H49       1.0  0.9155996782711284  0.033575994479491604  0.7207235055304011  1.0000
  H   H50       1.0  0.41560974658005995  0.03357866707933971  0.2792683536586651  1.0000
  C   C1        1.0  0.22956832729569507  0.6109056925621986  0.5415383156524669  1.0000
  C   C2        1.0  0.7295710381947417  0.6109071982129066  0.4584642509746004  1.0000
  C   C3        1.0  0.132117509597272  0.5124765449866472  0.6201043555827682  1.0000
  C   C4        1.0  0.6321185698675224  0.5124761445865644  0.3798969731169919  1.0000
  C   C5        1.0  0.1497030874936414  0.4374770994799064  0.7839074541097091  1.0000
  C   C6        1.0  0.649705356797725  0.437477842169109  0.21609549184024252  1.0000
  C   C7        1.0  0.27311214445411025  0.44055532422010657  0.8655027548172995  1.0000
  C   C8        1.0  0.7731133455435357  0.440557897860252  0.1344995210094453  1.0000
  C   C9        1.0  0.4473670780168248  0.6199383743019026  0.9698700957383153  1.0000
  C   C10       1.0  0.9473666228484066  0.6199392243611683  0.0301318268777919  1.0000
  C   C11       1.0  0.4824796226842309  0.7959047553638358  0.0053208810572656  1.0000
  C   C12       1.0  0.982477665845188  0.7959037687336801  0.994678490645164  1.0000
  C   C13       1.0  0.5857923625847477  0.07006902559056268  0.9579480523057171  1.0000
  C   C14       1.0  0.08579662262120993  0.0700684832041532  0.042052164804047706  1.0000
  C   C15       1.0  0.6797860804630179  0.1715426305280516  0.8793884473122091  1.0000
  C   C16       1.0  0.1797864289676809  0.1715403401010747  0.12061228351620912  1.0000
  C   C17       1.0  0.6489892428607432  0.2558494687213226  0.7176981419352302  1.0000
  C   C18       1.0  0.1489887705871951  0.2558485272032627  0.2823002283335114  1.0000
  C   C19       1.0  0.5214472163765862  0.2448964486898078  0.6380704147250712  1.0000
  C   C20       1.0  0.02144820060492241  0.24489616719434787  0.3619272117150416  1.0000
  C   C21       1.0  0.3655476798431323  0.06208408696849688  0.5289351352219214  1.0000
  C   C22       1.0  0.8655475152328905  0.062083057161217384  0.4710652203769996  1.0000
  C   C23       1.0  0.3358328828505677  0.8857612076876008  0.49362100609544507  1.0000
  C   C24       1.0  0.8358329203032541  0.8857611666563443  0.506379519742346  1.0000
  C   C25       1.0  0.007910141813766779  0.959639829471385  0.75347751448777  1.0000
  C   C26       1.0  0.5079029269256096  0.9596355103893754  0.2465191178264377  1.0000
  C   C27       1.0  0.8063361248428722  0.7321999966588706  0.7363143499907353  1.0000
  C   C28       1.0  0.3063415993834155  0.7322053179957351  0.2636829519197406  1.0000
  N   N1        1.0  0.9574762486828092  0.7956000830794777  0.7626732383037408  1.0000
  N   N2        1.0  0.4574775944427998  0.7956031598601923  0.2373239770099218  1.0000
  N   N3        1.0  0.6724019204674576  0.6616061350328905  0.7139929172926642  1.0000
  N   N4        1.0  0.17239464207234792  0.6616015285245852  0.2860073576338635  1.0000
  O   O1        1.0  0.2557509713492009  0.7818922119459157  0.5679235217459677  1.0000
  O   O2        1.0  0.7557495534616834  0.7818914732352836  0.4320765020254527  1.0000
  O   O3        1.0  0.2356794058046958  0.5174414177977694  0.7030375940000226  1.0000
  O   O4        1.0  0.7356818871106158  0.51744282708551  0.2969644825613074  1.0000
  O   O5        1.0  0.3170247602218196  0.6064238614589355  0.8994505751540204  1.0000
  O   O6        1.0  0.8170282490886791  0.6064254059330024  0.10055347045711469  1.0000
  O   O7        1.0  0.5627157829465402  0.8999259110771335  0.930831866211861  1.0000
  O   O8        1.0  0.06271899848632498  0.8999264308047897  0.0691685092394039  1.0000
  O   O9        1.0  0.5782906956701338  0.15531568468148998  0.7955179463443969  1.0000
  O   O10       1.0  0.07828915600573079  0.1553165474100382  0.2044806333893447  1.0000
  O   O11       1.0  0.49497996925235554  0.0803935935002826  0.599866932273251  1.0000
  O   O12       1.0  0.9949824730671182  0.0803942731461689  0.4001334349446993  1.0000
  O   O13       1.0  0.1485778247977763  0.031229520762089194  0.7792208405279483  1.0000
  O   O14       1.0  0.6485865919575389  0.03122394555662569  0.2207694792902757  1.0000
