data_image0
_chemical_formula_structural       Tb8H80C96N8O68
_chemical_formula_sum              "Tb8 H80 C96 N8 O68"
_cell_length_a       8.5424750630033
_cell_length_b       15.452588704001819
_cell_length_c       28.239081265012764
_cell_angle_alpha    89.99994937212766
_cell_angle_beta     89.99990281635229
_cell_angle_gamma    89.99997659881814

_space_group_name_H-M_alt    "P 1"
_space_group_IT_number       1

loop_
  _space_group_symop_operation_xyz
  'x, y, z'

loop_
  _atom_site_type_symbol
  _atom_site_label
  _atom_site_symmetry_multiplicity
  _atom_site_fract_x
  _atom_site_fract_y
  _atom_site_fract_z
  _atom_site_occupancy
  Tb  Tb1       1.0  0.054228745392457305  0.7959303766082968  0.41250577782010833  1.0000
  Tb  Tb2       1.0  0.4457718735952625  0.2959298249852153  0.5874948470672126  1.0000
  Tb  Tb3       1.0  0.554228801414915  0.7040695989904859  0.08749438884760963  1.0000
  Tb  Tb4       1.0  0.9457701216487138  0.20406981566102897  0.9125056676613854  1.0000
  Tb  Tb5       1.0  0.9457698550115623  0.2040700786549649  0.5874947399377817  1.0000
  Tb  Tb6       1.0  0.5542302386737248  0.7040699831374652  0.41250496245158547  1.0000
  Tb  Tb7       1.0  0.445769798992302  0.29593020913288365  0.9125050665529246  1.0000
  Tb  Tb8       1.0  0.05422964937670121  0.79592934532058  0.08749485009651183  1.0000
  H   H1        1.0  0.038615179687298  0.0087515606965951  0.452990291659063  1.0000
  H   H2        1.0  0.46138330870796557  0.5087511549116712  0.5470101176595821  1.0000
  H   H3        1.0  0.538614079648177  0.4912483345838579  0.047009416071254924  1.0000
  H   H4        1.0  0.9613858033867402  0.9912492131938038  0.9529908560065654  1.0000
  H   H5        1.0  0.9613869325836504  0.9912482474266612  0.5470088096213959  1.0000
  H   H6        1.0  0.5386141210749003  0.49124994749249135  0.45299040009845043  1.0000
  H   H7        1.0  0.46138803261982275  0.5087514735385383  0.9529907475667162  1.0000
  H   H8        1.0  0.0386139676401669  0.008751242069898496  0.04700895351268742  1.0000
  H   H9        1.0  0.9312324049622802  0.1986860114926826  0.41162747957734797  1.0000
  H   H10       1.0  0.5687676926713935  0.6986856280507678  0.5883725795288158  1.0000
  H   H11       1.0  0.4312318068345036  0.3013137945043596  0.08837237922782043  1.0000
  H   H12       1.0  0.0687676375851325  0.8013141821977923  0.9116275348239998  1.0000
  H   H13       1.0  0.068768536683578  0.8013144437703162  0.5883730381799382  1.0000
  H   H14       1.0  0.43123324897643306  0.3013148272128063  0.4116272299901313  1.0000
  H   H15       1.0  0.5687679641936328  0.6986860136188682  0.9116270761724155  1.0000
  H   H16       1.0  0.9312333040612016  0.19868497878368874  0.08837298293359913  1.0000
  H   H17       1.0  0.1298767789919211  0.21583726063014547  0.4283661875483561  1.0000
  H   H18       1.0  0.37012506936626016  0.7158381300289065  0.571634121860214  1.0000
  H   H19       1.0  0.6298745232519495  0.2841626138968182  0.0716338271049821  1.0000
  H   H20       1.0  0.8701243410616541  0.7841629059705467  0.9283665448821525  1.0000
  H   H21       1.0  0.8701253332758441  0.7841631946330095  0.5716339760894515  1.0000
  H   H22       1.0  0.6298747016594319  0.2841629723752703  0.4283660417780483  1.0000
  H   H23       1.0  0.3701240771540455  0.715837841367019  0.928365982414569  1.0000
  H   H24       1.0  0.12987660058518458  0.21583754929274324  0.0716336187559605  1.0000
  H   H25       1.0  0.007304503119279102  0.14701965087387947  0.46311630404824217  1.0000
  H   H26       1.0  0.49269505447591666  0.6470192543563087  0.5368840385624198  1.0000
  H   H27       1.0  0.507303560829186  0.35298025152646767  0.036883773993700714  1.0000
  H   H28       1.0  0.9926952530060474  0.8529804594885134  0.9631165647922661  1.0000
  H   H29       1.0  0.9926964385275664  0.8529808043894035  0.5368838595898782  1.0000
  H   H30       1.0  0.5073035459293324  0.35298055376648574  0.4631161250764536  1.0000
  H   H31       1.0  0.4926962101979628  0.6470195565964826  0.9631160355257082  1.0000
  H   H32       1.0  0.007304518019879001  0.1470199957749045  0.036883598846152714  1.0000
  H   H33       1.0  0.1864145754634876  0.0517819693900137  0.33566879166888713  1.0000
  H   H34       1.0  0.31358388136936094  0.5517820544869706  0.6643312427703807  1.0000
  H   H35       1.0  0.6864140249736154  0.44821853942083567  0.16433083962585476  1.0000
  H   H36       1.0  0.8135847190042966  0.948218994370329  0.8356690990930036  1.0000
  H   H37       1.0  0.8135840249430117  0.9482197801556322  0.6643306637311854  1.0000
  H   H38       1.0  0.6864158896553434  0.44821904791692185  0.3356692749870548  1.0000
  H   H39       1.0  0.31358340481071423  0.5517812687020935  0.8356693240133242  1.0000
  H   H40       1.0  0.18641739326346143  0.051781460892819105  0.16433106454481117  1.0000
  H   H41       1.0  0.2086223481256297  0.16499793831425077  0.34834232956670536  1.0000
  H   H42       1.0  0.29137602566022747  0.6649980489713201  0.6516583584896412  1.0000
  H   H43       1.0  0.7086207805583059  0.33500256544598966  0.1516579984817596  1.0000
  H   H44       1.0  0.7913780464634145  0.8350036520764944  0.8483423489773616  1.0000
  H   H45       1.0  0.7913774228998208  0.8350038112306919  0.6516578340714009  1.0000
  H   H46       1.0  0.7086237453634966  0.3350030534322882  0.34834251338695316  1.0000
  H   H47       1.0  0.29137664922405543  0.664997242676364  0.8483428733957584  1.0000
  H   H48       1.0  0.20862406580608453  0.16499745032798777  0.15165710642195765  1.0000
  H   H49       1.0  0.0250210651200362  0.12408703131091409  0.3277103417484498  1.0000
  H   H50       1.0  0.4749796799184409  0.624086419685426  0.6722896578066727  1.0000
  H   H51       1.0  0.5250205233930814  0.3759141613417896  0.17229008125002576  1.0000
  H   H52       1.0  0.9749782736178502  0.8759145924696553  0.8277109547097157  1.0000
  H   H53       1.0  0.9749775352844946  0.8759147182341634  0.6722898218899618  1.0000
  H   H54       1.0  0.5250236029702434  0.37591403557759406  0.3277105058308366  1.0000
  H   H55       1.0  0.47497690638903844  0.6240862939213229  0.8277107906273361  1.0000
  H   H56       1.0  0.025023838649431702  0.1240871570750173  0.1722892089277793  1.0000
  H   H57       1.0  0.898617646949539  0.5225269088800317  0.4007864056423146  1.0000
  H   H58       1.0  0.6013802386587273  0.022526416607796303  0.5992130302144076  1.0000
  H   H59       1.0  0.39861568867917196  0.9774729884032779  0.09921358292327655  1.0000
  H   H60       1.0  0.10138128528736702  0.4774726552157063  0.900785183783498  1.0000
  H   H61       1.0  0.10138212407713351  0.4774741935244364  0.5992134038767747  1.0000
  H   H62       1.0  0.3986171911251262  0.9774746857966505  0.4007871334244586  1.0000
  H   H63       1.0  0.6013829117263114  0.022526172578757598  0.9007865807157531  1.0000
  H   H64       1.0  0.8986184857439597  0.5225265057676223  0.09921320925938913  1.0000
  H   H65       1.0  0.8617933361026006  0.3712111243198635  0.45260435559339396  1.0000
  H   H66       1.0  0.6382054643620378  0.8712114385441295  0.547395266158681  1.0000
  H   H67       1.0  0.36179309246713126  0.12878999174887437  0.04739624736050981  1.0000
  H   H68       1.0  0.13820764912575362  0.6287890030564538  0.9526023334490721  1.0000
  H   H69       1.0  0.1382076055430161  0.6287899780838939  0.5473961621637289  1.0000
  H   H70       1.0  0.36179313604348107  0.1287903110012323  0.4526045433605575  1.0000
  H   H71       1.0  0.6382078491787269  0.8712104635141246  0.9526042703967764  1.0000
  H   H72       1.0  0.8617921219065537  0.3712101579271661  0.04739570547464212  1.0000
  H   H73       1.0  0.6481682421969738  0.591288314128235  0.2989014111334073  1.0000
  H   H74       1.0  0.8518331048347605  0.09128824715472918  0.7010986997865846  1.0000
  H   H75       1.0  0.1481669382199797  0.9087103458268826  0.20109870695363707  1.0000
  H   H76       1.0  0.3518335980433989  0.40871012057216655  0.7989015094035425  1.0000
  H   H77       1.0  0.35183152882895297  0.40871214113518317  0.7010987525050114  1.0000
  H   H78       1.0  0.14817017805415839  0.9087115609675323  0.29890146385108113  1.0000
  H   H79       1.0  0.8518316621847576  0.09128816801410268  0.7989018108047221  1.0000
  H   H80       1.0  0.6481673436046265  0.5912870989873225  0.20109865423535217  1.0000
  C   C1        1.0  0.0753329777871059  0.0127030282118241  0.41565797602394394  1.0000
  C   C2        1.0  0.42466550770875244  0.5127025703589538  0.5843427855074952  1.0000
  C   C3        1.0  0.5753281611140508  0.4872936230157308  0.08434135860012763  1.0000
  C   C4        1.0  0.9246693835800671  0.9872939232510374  0.9156589153863879  1.0000
  C   C5        1.0  0.9246703051059485  0.987293544207496  0.5843411252569981  1.0000
  C   C6        1.0  0.5753295808317346  0.4872946492003364  0.4156584404904252  1.0000
  C   C7        1.0  0.42467395115127  0.5127081265283734  0.9156595132757065  1.0000
  C   C8        1.0  0.07533038744684718  0.0127065320126647  0.08434089413285763  1.0000
  C   C9        1.0  0.03544046982322871  0.16748356201426154  0.42700286482976696  1.0000
  C   C10       1.0  0.4645602433831685  0.6674837605909898  0.5729971137884251  1.0000
  C   C11       1.0  0.535439341653401  0.3325156868473725  0.07299684454253  1.0000
  C   C12       1.0  0.9645606578136781  0.8325159596518007  0.9270035041162787  1.0000
  C   C13       1.0  0.9645616424459931  0.8325155989676531  0.5729969446891874  1.0000
  C   C14       1.0  0.5354395276422467  0.3325154003906263  0.42700340396947933  1.0000
  C   C15       1.0  0.4645604293737478  0.667484121275571  0.9270029649768718  1.0000
  C   C16       1.0  0.03544028383340251  0.16748384847072365  0.07299665952199061  1.0000
  C   C17       1.0  0.12827796864615243  0.10949138907931649  0.34969155776672534  1.0000
  C   C18       1.0  0.3717204458552885  0.6094914836494636  0.6503088029496953  1.0000
  C   C19       1.0  0.6282763678704981  0.39050913295190526  0.15030845771312334  1.0000
  C   C20       1.0  0.8717224184370949  0.8905089048461291  0.8496918629670633  1.0000
  C   C21       1.0  0.8717218023805203  0.8905097133251444  0.6503082517523711  1.0000
  C   C22       1.0  0.6282781545487381  0.39050897161379794  0.3496917148081949  1.0000
  C   C23       1.0  0.3717210619126092  0.6094913223114914  0.8496920600450654  1.0000
  C   C24       1.0  0.12827852321097313  0.10949090327668637  0.15030794655203294  1.0000
  C   C25       1.0  0.1470530271317116  0.33581255911877866  0.5105508392205709  1.0000
  C   C26       1.0  0.3529463919854692  0.8358135654301223  0.4894479958296005  1.0000
  C   C27       1.0  0.6470461939347771  0.1641877965997836  0.9894487676357999  1.0000
  C   C28       1.0  0.852950417144541  0.6641882836623693  0.010549891638106603  1.0000
  C   C29       1.0  0.8529572794814939  0.6641878961431543  0.4894496785342924  1.0000
  C   C30       1.0  0.6470440140743322  0.16418624269388724  0.5105518136922245  1.0000
  C   C31       1.0  0.3529535770901617  0.8358126586633503  0.010551750121784704  1.0000
  C   C32       1.0  0.14704584202379323  0.335811524462123  0.9894485014055265  1.0000
  C   C33       1.0  0.20657808168635938  0.6024915664432483  0.4209185941940136  1.0000
  C   C34       1.0  0.29342267919405174  0.10249235736282707  0.5790807075412022  1.0000
  C   C35       1.0  0.7065780426212314  0.8975083745114246  0.07908043132790973  1.0000
  C   C36       1.0  0.7934207385528894  0.39750667078762797  0.920919885975842  1.0000
  C   C37       1.0  0.7934193481006844  0.3975088888212922  0.579080507087504  1.0000
  C   C38       1.0  0.7065794330734718  0.8975087450410797  0.42091945609645637  1.0000
  C   C39       1.0  0.29342055778744225  0.1024901393307047  0.9209186699537714  1.0000
  C   C40       1.0  0.206579032472014  0.6024911959121795  0.07908098590154113  1.0000
  C   C41       1.0  0.10239391745374601  0.39940646913206723  0.47399865477042635  1.0000
  C   C42       1.0  0.39760896688120084  0.8994080532737171  0.5259994413593605  1.0000
  C   C43       1.0  0.6023908795884552  0.1005940587860579  0.026000665857537814  1.0000
  C   C44       1.0  0.8976092899991246  0.6005949179002172  0.9739983782154558  1.0000
  C   C45       1.0  0.8976081948142535  0.6005933389903221  0.5260015088675447  1.0000
  C   C46       1.0  0.6023919747676132  0.10059240199014138  0.4740000140404137  1.0000
  C   C47       1.0  0.3976088914360147  0.8994076907586005  0.9739998518997414  1.0000
  C   C48       1.0  0.10239282227257722  0.39940553736407475  0.026000368945680908  1.0000
  C   C49       1.0  0.9830123416044927  0.48937256583347727  0.4230647369978443  1.0000
  C   C50       1.0  0.5169887134304078  0.989372859817635  0.5769344736272687  1.0000
  C   C51       1.0  0.4830096790795864  0.010627875529557696  0.07693509502941963  1.0000
  C   C52       1.0  0.016987637322358803  0.5106276093480202  0.9230638969075929  1.0000
  C   C53       1.0  0.016988600042118704  0.5106285365705715  0.5769354266401125  1.0000
  C   C54       1.0  0.48300988697435804  0.010628242586676597  0.423065690011292  1.0000
  C   C55       1.0  0.5169900919465746  0.9893719325931015  0.9230650686091555  1.0000
  C   C56       1.0  0.9830121337077457  0.4893721987757829  0.07693485025430392  1.0000
  C   C57       1.0  0.9644158123265854  0.41208064267231487  0.44957022615595604  1.0000
  C   C58       1.0  0.5355864700243416  0.912081622464086  0.5504286676391461  1.0000
  C   C59       1.0  0.4644120699305034  0.08792045006053678  0.05042961548873142  1.0000
  C   C60       1.0  0.03558636039826269  0.5879207838950931  0.949568985038724  1.0000
  C   C61       1.0  0.03558747056185751  0.5879204597314638  0.550429937481397  1.0000
  C   C62       1.0  0.46441213038141177  0.0879194799405099  0.4495711418802487  1.0000
  C   C63       1.0  0.5355888717151132  0.9120806523432207  0.9495709022683986  1.0000
  C   C64       1.0  0.9644122400116686  0.41207967136988793  0.050429408004149016  1.0000
  C   C65       1.0  0.8550624591339897  0.7345594012655141  0.33519216378498135  1.0000
  C   C66       1.0  0.6449411240495523  0.23456008721353774  0.6648075238936645  1.0000
  C   C67       1.0  0.3550602915059287  0.7654398587820025  0.16480749318645854  1.0000
  C   C68       1.0  0.14494152046941622  0.2654402689841717  0.835192438172186  1.0000
  C   C69       1.0  0.1449408237556753  0.2654410539977972  0.6648076457333616  1.0000
  C   C70       1.0  0.355058646976616  0.7654397209091213  0.3351926397449106  1.0000
  C   C71       1.0  0.6449418207630586  0.23455994934067084  0.8351923163323395  1.0000
  C   C72       1.0  0.8550594211788863  0.7345588919978849  0.16480737134706666  1.0000
  C   C73       1.0  0.8083442901927143  0.700497190133767  0.2888911026930004  1.0000
  C   C74       1.0  0.6916593179733753  0.20049908480653042  0.7111093096570615  1.0000
  C   C75       1.0  0.308341840017171  0.7995001391154445  0.2111085784395429  1.0000
  C   C76       1.0  0.19165760573520882  0.2994993193451875  0.7888906282492274  1.0000
  C   C77       1.0  0.1916578220757614  0.29950132370710486  0.7111090609452763  1.0000
  C   C78       1.0  0.3083427942936368  0.7995007233155745  0.28889120810007546  1.0000
  C   C79       1.0  0.691656760390039  0.20049966900791819  0.7888908769609916  1.0000
  C   C80       1.0  0.8083456771568649  0.7004972530738414  0.21110882715088056  1.0000
  C   C81       1.0  0.7133238830474297  0.6327098646624664  0.2750397723071743  1.0000
  C   C82       1.0  0.786677433600488  0.13271171531104636  0.7249603186284548  1.0000
  C   C83       1.0  0.21332247671466584  0.8672881333346182  0.22496102032278745  1.0000
  C   C84       1.0  0.28667926055246085  0.3672873143734563  0.7750395701376152  1.0000
  C   C85       1.0  0.28667822921982383  0.36728929631888  0.724960745450119  1.0000
  C   C86       1.0  0.2133246786670355  0.8672893870928675  0.27503984500920353  1.0000
  C   C87       1.0  0.7866761236888493  0.1327110276468346  0.7750398515545813  1.0000
  C   C88       1.0  0.71332519295931  0.6327099051859193  0.224960239381197  1.0000
  C   C89       1.0  0.1313001297001364  0.5196109537857152  0.4330103868078724  1.0000
  C   C90       1.0  0.36870186259665877  0.0196123942968427  0.5669882466744414  1.0000
  C   C91       1.0  0.631297755861347  0.9803890042872253  0.06698938588340303  1.0000
  C   C92       1.0  0.8686997938976475  0.4803885581582035  0.9330108914344426  1.0000
  C   C93       1.0  0.8687031531895287  0.48038950147758896  0.5669894227104635  1.0000
  C   C94       1.0  0.6312979084305255  0.9803900023894271  0.4330112087251693  1.0000
  C   C95       1.0  0.3687031857854919  0.019611450976064794  0.9330107777547102  1.0000
  C   C96       1.0  0.13129763588790408  0.5196106028242512  0.06698891808572682  1.0000
  N   N1        1.0  0.0827207843995481  0.0936454661004831  0.398513629124608  1.0000
  N   N2        1.0  0.4172788123469076  0.5936456293229851  0.6014863851172125  1.0000
  N   N3        1.0  0.5827194435878555  0.40635441914987785  0.10148640991548062  1.0000
  N   N4        1.0  0.9172793310970988  0.9063541016721003  0.8985139031201473  1.0000
  N   N5        1.0  0.9172801572472977  0.9063549891628001  0.6014865345135052  1.0000
  N   N6        1.0  0.5827209586790189  0.4063548259404328  0.39851377852120623  1.0000
  N   N7        1.0  0.4172791568173865  0.5936453889729164  0.8985137537233998  1.0000
  N   N8        1.0  0.0827227811711424  0.09364505930953017  0.10148626051798004  1.0000
  O   O1        1.0  0.10788649873007472  0.9469775707004472  0.3917543441865804  1.0000
  O   O2        1.0  0.3921093269798988  0.4469782919783398  0.608245853709491  1.0000
  O   O3        1.0  0.6078830382473087  0.553023686977937  0.10824614885149944  1.0000
  O   O4        1.0  0.8921136543671224  0.0530239494336655  0.8917543346496333  1.0000
  O   O5        1.0  0.8921132722961219  0.053024825985538385  0.6082454653322034  1.0000
  O   O6        1.0  0.6078857615636083  0.5530241047084629  0.3917536016913347  1.0000
  O   O7        1.0  0.3921120502966459  0.4469748268640216  0.8917536606694302  1.0000
  O   O8        1.0  0.10788611665927313  0.9469752115482352  0.10824582898909803  1.0000
  O   O9        1.0  0.28566269163342645  0.33965266350127615  0.5267744180762082  1.0000
  O   O10       1.0  0.21433672466477563  0.8396543747291217  0.47322512335946965  1.0000
  O   O11       1.0  0.785660633987206  0.16034571927423968  0.9732247629774664  1.0000
  O   O12       1.0  0.7143383211514021  0.6603455644607267  0.026774252268779705  1.0000
  O   O13       1.0  0.7143370793954134  0.6603452031996754  0.4732250373244967  1.0000
  O   O14       1.0  0.7856653876019664  0.1603434919704156  0.5267757485173095  1.0000
  O   O15       1.0  0.2143344545545744  0.8396560302712359  0.02677540066184751  1.0000
  O   O16       1.0  0.28566496174047273  0.33965424366239455  0.9732248490113806  1.0000
  O   O17       1.0  0.0409467618957606  0.282813674444931  0.5227920708871567  1.0000
  O   O18       1.0  0.45905035485525764  0.7828133821567106  0.4772067897333374  1.0000
  O   O19       1.0  0.5409469816443176  0.2171867054019074  0.9772075908408414  1.0000
  O   O20       1.0  0.9590507611775293  0.7171877956660138  0.022792105220709406  1.0000
  O   O21       1.0  0.9590459854026893  0.7171867808187142  0.47720880099142005  1.0000
  O   O22       1.0  0.540954098657025  0.21718513168446657  0.5227926656659962  1.0000
  O   O23       1.0  0.45904693627725385  0.7828131027214198  0.022792572799247107  1.0000
  O   O24       1.0  0.0409501804708086  0.282813953879362  0.977207350178752  1.0000
  O   O25       1.0  0.20607347597663764  0.4644395821630098  0.4636041522963837  1.0000
  O   O26       1.0  0.2939258487951052  0.9644411730607915  0.5363932042206303  1.0000
  O   O27       1.0  0.7060727692346234  0.03556027503714179  0.03639476059350241  1.0000
  O   O28       1.0  0.7939274480538785  0.5355611745499971  0.963605023093486  1.0000
  O   O29       1.0  0.7939274656724181  0.5355602259600901  0.5363953031035467  1.0000
  O   O30       1.0  0.7060739222349994  0.0355586350630119  0.4636055429412665  1.0000
  O   O31       1.0  0.2939270017903155  0.964440180225992  0.9636057571640892  1.0000
  O   O32       1.0  0.2060734935937134  0.4644399278543361  0.036394786425304915  1.0000
  O   O33       1.0  0.12316904941572202  0.6536746056133537  0.39641709808961434  1.0000
  O   O34       1.0  0.3768328445443458  0.1536753379132705  0.6035814707136212  1.0000
  O   O35       1.0  0.6231653997367844  0.8463240600284009  0.10358126233065693  1.0000
  O   O36       1.0  0.8768334189852213  0.34632302412941135  0.8964176631902137  1.0000
  O   O37       1.0  0.8768330628488172  0.34632390822636683  0.6035844820253402  1.0000
  O   O38       1.0  0.6231645852486096  0.8463251173529895  0.39641550585287905  1.0000
  O   O39       1.0  0.3768332006763373  0.15367574809668125  0.8964160683548601  1.0000
  O   O40       1.0  0.12316635203499972  0.6536741954282022  0.10358497928316984  1.0000
  O   O41       1.0  0.343505561346916  0.61785142416619  0.4365514999313335  1.0000
  O   O42       1.0  0.15649284702232083  0.11785162438227559  0.5634488567517482  1.0000
  O   O43       1.0  0.8435067911277017  0.8821497799307421  0.06344887125381862  1.0000
  O   O44       1.0  0.656493171931551  0.3821493763287123  0.9365518075782692  1.0000
  O   O45       1.0  0.6564977215407808  0.3821490310965458  0.5634490178253488  1.0000
  O   O46       1.0  0.8435034121445568  0.8821494780234501  0.43654989041074554  1.0000
  O   O47       1.0  0.1564953211408096  0.11785132247345587  0.9365509382646666  1.0000
  O   O48       1.0  0.34350191660798407  0.6178504317936203  0.06344941841902603  1.0000
  O   O49       1.0  0.954970245841494  0.7958779172836898  0.3365112170651515  1.0000
  O   O50       1.0  0.5450356336046839  0.29587992236698574  0.66348879514851  1.0000
  O   O51       1.0  0.45496930114894246  0.7041213200438818  0.16348874235727356  1.0000
  O   O52       1.0  0.0450337264225737  0.20412045654911276  0.836512280942124  1.0000
  O   O53       1.0  0.045029525185889006  0.20412124369849488  0.6634885924544066  1.0000
  O   O54       1.0  0.4549641374214417  0.7041172971923472  0.3365117226098563  1.0000
  O   O55       1.0  0.5450339817392589  0.29588042950065596  0.8365114212799232  1.0000
  O   O56       1.0  0.9549648739802236  0.7958806458546235  0.16348859093477597  1.0000
  O   O57       1.0  0.7984979638302506  0.7006537313088613  0.3729366864908387  1.0000
  O   O58       1.0  0.7014997911195381  0.20065252405677822  0.627063017547627  1.0000
  O   O59       1.0  0.2985006637816809  0.7993448944606667  0.12706264561297337  1.0000
  O   O60       1.0  0.20150112332428452  0.29934717213834716  0.8729369152685112  1.0000
  O   O61       1.0  0.20150063657668943  0.2993441353919337  0.6270631230293378  1.0000
  O   O62       1.0  0.29850115052826  0.7993453426434627  0.3729371460911112  1.0000
  O   O63       1.0  0.7015002778663799  0.20065491366214158  0.8729371639061231  1.0000
  O   O64       1.0  0.7985021595661266  0.7006539302660072  0.12706254013050267  1.0000
  O   O65       1.0  0.867582484153921  0.7417957967589215  0.24999887728463938  1.0000
  O   O66       1.0  0.6324257762061619  0.24179958338368832  0.7500000986624972  1.0000
  O   O67       1.0  0.36757750668201083  0.7581995775975229  0.25000041909449794  1.0000
  O   O68       1.0  0.1324231399799913  0.25820077565984423  0.7500005781148646  1.0000
