data_image0
_chemical_formula_structural       Cd4H32C56N32O24
_chemical_formula_sum              "Cd4 H32 C56 N32 O24"
_cell_length_a       9.364001186000088
_cell_length_b       14.974116820000317
_cell_length_c       19.167521250000288
_cell_angle_alpha    90.00001875929703
_cell_angle_beta     89.99999334740716
_cell_angle_gamma    90.0000142643741

_space_group_name_H-M_alt    "P 1"
_space_group_IT_number       1

loop_
  _space_group_symop_operation_xyz
  'x, y, z'

loop_
  _atom_site_type_symbol
  _atom_site_label
  _atom_site_symmetry_multiplicity
  _atom_site_fract_x
  _atom_site_fract_y
  _atom_site_fract_z
  _atom_site_occupancy
  Cd  Cd1       1.0  0.8216048901726937  2.2159139950000011e-07  0.7499999277709153  1.0000
  Cd  Cd2       1.0  0.6783959677406344  0.5000002117896969  0.24999950668911455  1.0000
  Cd  Cd3       1.0  0.1783959323389581  6.637231560000001e-08  0.2500005003491382  1.0000
  Cd  Cd4       1.0  0.3216050522294864  0.500000288540285  0.7500000059239583  1.0000
  H   H1        1.0  0.11456317834134921  0.303565980698167  0.7404974538385576  1.0000
  H   H2        1.0  0.3854378084840562  0.1964343702328577  0.24049746505323105  1.0000
  H   H3        1.0  0.3854379261103419  0.8035660073706625  0.2595026083858158  1.0000
  H   H4        1.0  0.1145621857399277  0.6964338960706797  0.7595025697615514  1.0000
  H   H5        1.0  0.88543784162858  0.6964338518129055  0.2595025804902989  1.0000
  H   H6        1.0  0.6145621435664452  0.8035661300971528  0.7595025692757391  1.0000
  H   H7        1.0  0.6145620259398968  0.19643315732131575  0.7404974259429765  1.0000
  H   H8        1.0  0.8854377663104457  0.3035659364403145  0.24049746456733356  1.0000
  H   H9        1.0  0.9450617699624145  0.11048017182186952  0.6020741861331588  1.0000
  H   H10       1.0  0.5549380551644277  0.38952019957990563  0.10207426550875452  1.0000
  H   H11       1.0  0.5549380636616023  0.6104795368054211  0.3979252765930568  1.0000
  H   H12       1.0  0.9450618886572573  0.8895205031024247  0.8979257903256865  1.0000
  H   H13       1.0  0.0549371141685313  0.8895203285080627  0.3979258481958397  1.0000
  H   H14       1.0  0.44506296480550134  0.610479632931174  0.8979257688200946  1.0000
  H   H15       1.0  0.44506188838877847  0.38952029570557306  0.602074757735828  1.0000
  H   H16       1.0  0.054939131312615096  0.1104793294087614  0.10207476571903842  1.0000
  H   H17       1.0  0.16211978940372523  0.30087597789223963  0.5899902497593319  1.0000
  H   H18       1.0  0.3378812331679981  0.19912430997771924  0.0899897426457983  1.0000
  H   H19       1.0  0.33788131398552684  0.8008753923432579  0.41000981177673174  1.0000
  H   H20       1.0  0.16211769419887642  0.6991245741590649  0.9100102928573224  1.0000
  H   H21       1.0  0.8378812305663388  0.699124522437856  0.41000978456960985  1.0000
  H   H22       1.0  0.6621187188825742  0.8008761903521845  0.9100097699673029  1.0000
  H   H23       1.0  0.6621175701453551  0.19912444016753741  0.5899897008363129  1.0000
  H   H24       1.0  0.8378822578514972  0.30087525835192963  0.08998974147156252  1.0000
  H   H25       1.0  0.8321784710119573  0.3812607114323257  0.4635174452797914  1.0000
  H   H26       1.0  0.6678223361897365  0.11873981141058469  0.9635179054701554  1.0000
  H   H27       1.0  0.6678225374675008  0.8812608200044637  0.5364820867255347  1.0000
  H   H28       1.0  0.8321775006960623  0.6187390684623253  0.0364820810851398  1.0000
  H   H29       1.0  0.16782254895816348  0.6187397888976636  0.5364820673332744  1.0000
  H   H30       1.0  0.33217761586070793  0.881260688919532  0.03648265057468341  1.0000
  H   H31       1.0  0.3321774145828797  0.11873901250653061  0.4635179476033502  1.0000
  H   H32       1.0  0.16782351927386693  0.38126076404875414  0.9635179532437166  1.0000
  C   C1        1.0  0.0662846610380114  0.24210191405383344  0.7221878289335424  1.0000
  C   C2        1.0  0.43371526221633866  0.25789776138655185  0.22218785313329192  1.0000
  C   C3        1.0  0.43371641914056625  0.742101955974462  0.2778116958494152  1.0000
  C   C4        1.0  0.0662836883611391  0.7578979551383114  0.7778121974069806  1.0000
  C   C5        1.0  0.9337163589319175  0.7578979184572461  0.277812205395314  1.0000
  C   C6        1.0  0.5662836219144795  0.7421020711243571  0.7778121811956283  1.0000
  C   C7        1.0  0.5662867366685447  0.2578978765366742  0.7221878167635085  1.0000
  C   C8        1.0  0.933713059930568  0.2421018773724271  0.22218783692199656  1.0000
  C   C9        1.0  0.9778522408239922  0.1435171912418838  0.6497793667479358  1.0000
  C   C10       1.0  0.522147572972628  0.3564832001478636  0.14977943953230272  1.0000
  C   C11       1.0  0.5221476058468895  0.6435165310914075  0.35022010443078244  1.0000
  C   C12       1.0  0.9778523578021991  0.8564834888284594  0.8502206078496357  1.0000
  C   C13       1.0  0.022147711226516303  0.8564833090881264  0.3502206675810343  1.0000
  C   C14       1.0  0.47785344699730814  0.6435166323632161  0.8502205947965465  1.0000
  C   C15       1.0  0.4778523462033561  0.3564826336005638  0.6497799298980171  1.0000
  C   C16       1.0  0.022148662167865  0.14351701150163623  0.14977942647930584  1.0000
  C   C17       1.0  0.9817758454213106  0.4241520840259696  0.5425772258337676  1.0000
  C   C18       1.0  0.5182239938363863  0.0758482624471739  0.0425772270405673  1.0000
  C   C19       1.0  0.5182241120770926  0.9241521359953637  0.4574223171453156  1.0000
  C   C20       1.0  0.9817758261109758  0.575847928840993  0.9574222268251308  1.0000
  C   C21       1.0  0.0182251745486823  0.5758477484849964  0.45742228677921304  1.0000
  C   C22       1.0  0.48177595821412206  0.9241522378828436  0.9574228072884026  1.0000
  C   C23       1.0  0.48177477205372543  0.0758476965155452  0.5425777171835977  1.0000
  C   C24       1.0  0.018225193859088103  0.4241525714891027  0.04257780750380391  1.0000
  C   C25       1.0  0.9478170502840869  0.34289654689027327  0.5854716516967431  1.0000
  C   C26       1.0  0.5521838467055106  0.15710381755527433  0.08547167176509872  1.0000
  C   C27       1.0  0.5521839430447103  0.8428965862168312  0.4145278704931315  1.0000
  C   C28       1.0  0.9478160053310135  0.6571034606472068  0.9145278028897864  1.0000
  C   C29       1.0  0.052183969685906106  0.6571032856206926  0.4145278609162447  1.0000
  C   C30       1.0  0.44781610534499094  0.842896682774736  0.9145283625638715  1.0000
  C   C31       1.0  0.4478160090056704  0.1571032462941631  0.5854721638357534  1.0000
  C   C32       1.0  0.0521850146389795  0.34289637186376604  0.08547170972320123  1.0000
  C   C33       1.0  0.0765153987054319  0.49245187181446676  0.563236165232766  1.0000
  C   C34       1.0  0.4234856302204051  0.007548404846019701  0.06323664767725033  1.0000
  C   C35       1.0  0.4234847124209011  0.992451978728653  0.4367639453179991  1.0000
  C   C36       1.0  0.0765153573289439  0.5075479989832274  0.9367633388111329  1.0000
  C   C37       1.0  0.9234856212645682  0.507547960696506  0.43676334738021444  1.0000
  C   C38       1.0  0.5765143218300963  0.9924520954839906  0.9367633866517199  1.0000
  C   C39       1.0  0.5765141717098529  0.0075478537823628  0.563236610726783  1.0000
  C   C40       1.0  0.9234856626410562  0.4924518335277384  0.06323617380185452  1.0000
  C   C41       1.0  0.156015593788247  0.49081640358146916  0.6315214659594731  1.0000
  C   C42       1.0  0.3439832830802843  0.0091832338705586  0.13152143161914154  1.0000
  C   C43       1.0  0.3439845166920037  0.9908158015893563  0.36847916588863683  1.0000
  C   C44       1.0  0.1560145013561396  0.5091834796928155  0.8684785552876877  1.0000
  C   C45       1.0  0.8439843582621265  0.5091834289295251  0.36847856836941173  1.0000
  C   C46       1.0  0.6560156010503987  0.9908159308213342  0.8684786027096866  1.0000
  C   C47       1.0  0.6560165032779252  0.0091840309217233  0.6315208684402124  1.0000
  C   C48       1.0  0.8439833148551089  0.49081568499877903  0.1315204356094384  1.0000
  C   C49       1.0  0.9062750098409539  0.43314157682578985  0.48011323159740743  1.0000
  C   C50       1.0  0.5937257934192174  0.06685895297047749  0.9801131610041268  1.0000
  C   C51       1.0  0.5937249512073635  0.9331409989969471  0.5198868353974222  1.0000
  C   C52       1.0  0.9062740229781666  0.5668588825163995  0.019886290561693405  1.0000
  C   C53       1.0  0.0937260101290391  0.5668582556851831  0.5198862810155733  1.0000
  C   C54       1.0  0.40627415863128397  0.933141547359533  0.019886873324843207  1.0000
  C   C55       1.0  0.40627393292326275  0.0668581656950522  0.48011372064727464  1.0000
  C   C56       1.0  0.09372592907240572  0.4331416178134972  0.980113222051408  1.0000
  N   N1        1.0  0.022751970323959404  0.1742454958854722  0.7599663109737237  1.0000
  N   N2        1.0  0.47724794395793424  0.3257548632027252  0.2599663500635501  1.0000
  N   N3        1.0  0.4772490830569254  0.6742455288093228  0.24003371816407798  1.0000
  N   N4        1.0  0.022752101336927  0.8257550342939766  0.7400342395537579  1.0000
  N   N5        1.0  0.977247981726549  0.8257550044445381  0.24003372335524634  1.0000
  N   N6        1.0  0.5227520080924392  0.6742449693082619  0.7400336842653348  1.0000
  N   N7        1.0  0.5227519369130035  0.32575430370175706  0.7599663161647714  1.0000
  N   N8        1.0  0.9772478507135177  0.1742454660361403  0.2599663164910808  1.0000
  N   N9        1.0  0.9659769616274828  0.11257981987990463  0.7138773747572742  1.0000
  N   N10       1.0  0.5340228369455247  0.3874205983662408  0.2138774547828889  1.0000
  N   N11       1.0  0.5340228728258367  0.6125798025557216  0.28612208850621107  1.0000
  N   N12       1.0  0.9659771060468573  0.8874201905077472  0.7861226005142827  1.0000
  N   N13       1.0  0.034022990423018505  0.8874206804501057  0.2861226595716957  1.0000
  N   N14       1.0  0.46597711510498385  0.6125799019637699  0.7861225795460813  1.0000
  N   N15       1.0  0.46597707922453674  0.3874200299552725  0.7138779458226736  1.0000
  N   N16       1.0  0.03402391392314999  0.11258030982245511  0.2138779555305277  1.0000
  N   N17       1.0  0.04062576273449281  0.22508720451739345  0.6526603188095308  1.0000
  N   N18       1.0  0.45937524495268883  0.274913109610786  0.1526603459060638  1.0000
  N   N19       1.0  0.4593753107245675  0.7250866117771508  0.3473392016201445  1.0000
  N   N20       1.0  0.04062584818354511  0.774913328467008  0.8473397089875122  1.0000
  N   N21       1.0  0.9593741893160085  0.7749132958126168  0.3473397155194392  1.0000
  N   N22       1.0  0.5406247070978195  0.7250873907192246  0.8473396884229064  1.0000
  N   N23       1.0  0.5406246413257421  0.2749125529147137  0.6526603109927863  1.0000
  N   N24       1.0  0.9593751717865189  0.22508717186308763  0.15266032534142232  1.0000
  N   N25       1.0  0.058454697720868906  0.282752030908874  0.5971429749430259  1.0000
  N   N26       1.0  0.4415452552323558  0.21724825995814007  0.09714351001395731  1.0000
  N   N27       1.0  0.4415453305915663  0.782752126450738  0.40285656024028793  1.0000
  N   N28       1.0  0.05845367929183  0.7172478370543376  0.90285653012608  1.0000
  N   N29       1.0  0.941546322249124  0.7172478016020917  0.4028565376699619  1.0000
  N   N30       1.0  0.5584546968180888  0.7827522403719839  0.9028570460308816  1.0000
  N   N31       1.0  0.5584535535392519  0.21724770606017074  0.5971434740886326  1.0000
  N   N32       1.0  0.9415462727585432  0.28275199545665697  0.09714350420280483  1.0000
  O   O1        1.0  0.8250030918340768  0.3255085373138585  0.6038464858540495  1.0000
  O   O2        1.0  0.6749967328717831  0.17449183483058306  0.103847025115769  1.0000
  O   O3        1.0  0.6749968267083518  0.8255085882155768  0.39615303188714535  1.0000
  O   O4        1.0  0.8250031260315539  0.674491450949489  0.8961524539878312  1.0000
  O   O5        1.0  0.17499792813604392  0.6744919630161306  0.39615302675902353  1.0000
  O   O6        1.0  0.3250032191786616  0.8255086654995409  0.8961535309290699  1.0000
  O   O7        1.0  0.32500312534177306  0.1744905764766145  0.6038480458733916  1.0000
  O   O8        1.0  0.17499682601901867  0.3255090493804148  0.10384705862527  1.0000
  O   O9        1.0  0.12088209158440581  0.433935593362513  0.6775039312008178  1.0000
  O   O10       1.0  0.37911784228254675  0.0660640633558813  0.17750443113498454  1.0000
  O   O11       1.0  0.37911586059414765  0.9339376488937816  0.32249616437890444  1.0000
  O   O12       1.0  0.12088210045604339  0.5660636165789654  0.8224955703246268  1.0000
  O   O13       1.0  0.8791178604658967  0.5660635713293517  0.3224955814121131  1.0000
  O   O14       1.0  0.6208821097677628  0.9339357691552194  0.822496124909769  1.0000
  O   O15       1.0  0.620879819778267  0.0660635192549179  0.6775038699502718  1.0000
  O   O16       1.0  0.8791178515945289  0.4339368837509384  0.17750394228847455  1.0000
  O   O17       1.0  0.2569852623026847  0.5474167462950349  0.6395564164284339  1.0000
  O   O18       1.0  0.24301274219649827  0.9525837747088632  0.13955597954725366  1.0000
  O   O19       1.0  0.2430093334735304  0.047415244904840406  0.3604456671237629  1.0000
  O   O20       1.0  0.25698735318518123  0.45258382064465513  0.8604446425191487  1.0000
  O   O21       1.0  0.7430136218282044  0.45258375403500395  0.3604441396164334  1.0000
  O   O22       1.0  0.7569872098538752  0.047416057802131185  0.8604440547816311  1.0000
  O   O23       1.0  0.7569852789785471  0.952583251968129  0.6395564540685826  1.0000
  O   O24       1.0  0.7430104630260814  0.5474160118661686  0.13955539180980037  1.0000
