data_image0
_chemical_formula_structural       Ag4H12C8S4N12Cl4
_chemical_formula_sum              "Ag4 H12 C8 S4 N12 Cl4"
_cell_length_a       4.396095632058374
_cell_length_b       6.366990127446145
_cell_length_c       21.60621085722867
_cell_angle_alpha    89.99972093981238
_cell_angle_beta     89.99955082788217
_cell_angle_gamma    98.09739065295314

_space_group_name_H-M_alt    "P 1"
_space_group_IT_number       1

loop_
  _space_group_symop_operation_xyz
  'x, y, z'

loop_
  _atom_site_type_symbol
  _atom_site_label
  _atom_site_symmetry_multiplicity
  _atom_site_fract_x
  _atom_site_fract_y
  _atom_site_fract_z
  _atom_site_occupancy
  Ag  Ag1       1.0  0.08955976509101053  0.011172881512777604  0.9542153491757546  1.0000
  Ag  Ag2       1.0  0.9104951976765108  0.9888264555044233  0.4542105279620827  1.0000
  Ag  Ag3       1.0  0.4267662464504697  0.44283525901231263  0.9189892486336007  1.0000
  Ag  Ag4       1.0  0.5732463676043835  0.5571625108422751  0.418982349908319  1.0000
  H   H1        1.0  0.00295313998170597  0.8192048763651982  0.8134827154024293  1.0000
  H   H2        1.0  0.9970488184098661  0.1807902610821516  0.3134773351210143  1.0000
  H   H3        1.0  0.6077657676687809  0.8123989624698424  0.0624004330315415  1.0000
  H   H4        1.0  0.39222020926643353  0.18760136599973262  0.5623942877376606  1.0000
  H   H5        1.0  0.47557668778102885  0.2965748428823646  0.7790304622665971  1.0000
  H   H6        1.0  0.524416437396461  0.7034287945009015  0.2790202357661258  1.0000
  H   H7        1.0  0.15917307261308622  0.33805051125685287  0.07454348673648781  1.0000
  H   H8        1.0  0.8408408066019819  0.6619421434620989  0.574538232017197  1.0000
  H   H9        1.0  0.04152588233071699  0.9150322562032046  0.6982365915599118  1.0000
  H   H10       1.0  0.9584332917519096  0.08495672669383943  0.19823186411555582  1.0000
  H   H11       1.0  0.9742266161401221  0.4309520034667644  0.1855459327553532  1.0000
  H   H12       1.0  0.025774470463716215  0.5690538143377141  0.6855446348349901  1.0000
  C   C1        1.0  0.9026069382756959  0.5780710435805931  0.043017910600355  1.0000
  C   C2        1.0  0.09738765080295762  0.4219361856347562  0.5430138819622741  1.0000
  C   C3        1.0  0.7079102801148097  0.0625671150409275  0.8214714252702748  1.0000
  C   C4        1.0  0.2921035952643365  0.9374328039919532  0.3214618100924369  1.0000
  C   C5        1.0  0.9005544832008429  0.9831312560963997  0.7317404621376724  1.0000
  C   C6        1.0  0.09941016002751722  0.016869742944230402  0.23173418954836222  1.0000
  C   C7        1.0  0.912444783972177  0.49897309541349705  0.1421815660739867  1.0000
  C   C8        1.0  0.0875484841534728  0.5010319477751821  0.642170516354156  1.0000
  S   S1        1.0  0.9609548105564942  0.5902537575192925  0.9647069928773178  1.0000
  S   S2        1.0  0.039062032992895  0.4097509964714376  0.464703128267999  1.0000
  S   S3        1.0  0.6259276883885719  0.07815911347809391  0.8983544782633999  1.0000
  S   S4        1.0  0.3741192191635891  0.921849204249995  0.3983414886216253  1.0000
  N   N1        1.0  0.8968221436757846  0.9385778219286821  0.7937018433007026  1.0000
  N   N2        1.0  0.10317904704383102  0.06142247679891712  0.2936918063525908  1.0000
  N   N3        1.0  0.7239860959784611  0.6902249008533871  0.0769027105184037  1.0000
  N   N4        1.0  0.2760140036993662  0.3097674569656165  0.5769007986944388  1.0000
  N   N5        1.0  0.6054985763695698  0.17297529516133645  0.7744979232635528  1.0000
  N   N6        1.0  0.3945007645446027  0.8270238081966357  0.2744928798453756  1.0000
  N   N7        1.0  0.023874017343160935  0.45502398204317285  0.0852853605320405  1.0000
  N   N8        1.0  0.9761137805607093  0.5449916915456188  0.5852753673498441  1.0000
  N   N9        1.0  0.7273322942831374  0.6429609173252475  0.1383707100539553  1.0000
  N   N10       1.0  0.27268574232580534  0.35701460778292937  0.6383631925276703  1.0000
  N   N11       1.0  0.7238950157735361  0.1267417761047511  0.7186574154688756  1.0000
  N   N12       1.0  0.2760635212947592  0.8732609807102139  0.2186479090898032  1.0000
  Cl  Cl1       1.0  0.24988872965530373  0.5510450811958238  0.8093555943651793  1.0000
  Cl  Cl2       1.0  0.7501088142050706  0.4489500676827874  0.3093457197656662  1.0000
  Cl  Cl3       1.0  0.39043180157591456  0.08967835806188164  0.05323010628463011  1.0000
  Cl  Cl4       1.0  0.6095590732354169  0.9103222576660529  0.5532203521460133  1.0000
