data_image0
_chemical_formula_structural       Hg4H32C28N8Cl8O4
_chemical_formula_sum              "Hg4 H32 C28 N8 Cl8 O4"
_cell_length_a       7.394301045103933
_cell_length_b       11.326867621058101
_cell_length_c       12.218807334962685
_cell_angle_alpha    89.99896931555125
_cell_angle_beta     90.00194898435323
_cell_angle_gamma    99.62138478769809

_space_group_name_H-M_alt    "P 1"
_space_group_IT_number       1

loop_
  _space_group_symop_operation_xyz
  'x, y, z'

loop_
  _atom_site_type_symbol
  _atom_site_label
  _atom_site_symmetry_multiplicity
  _atom_site_fract_x
  _atom_site_fract_y
  _atom_site_fract_z
  _atom_site_occupancy
  Hg  Hg1       1.0  0.5543455734642037  0.05145735304875387  0.33324000636586953  1.0000
  Hg  Hg2       1.0  0.9456475831363348  0.9485481170564044  0.8332428781033983  1.0000
  Hg  Hg3       1.0  0.445639861417483  0.9485507712922614  0.6667549649369704  1.0000
  Hg  Hg4       1.0  0.0543685235319558  0.05145828141453281  0.16676027763857354  1.0000
  H   H1        1.0  0.4831398155415981  0.39902714543009676  0.0301847015560455  1.0000
  H   H2        1.0  0.016879979336231084  0.6009713007170134  0.530197500574957  1.0000
  H   H3        1.0  0.5168778722760408  0.600974781500568  0.9698127253662179  1.0000
  H   H4        1.0  0.9831126811010691  0.39902251898314495  0.46981383913180963  1.0000
  H   H5        1.0  0.3995797644374477  0.35329771688167705  0.3364784249862822  1.0000
  H   H6        1.0  0.10037903975248234  0.6466811273215  0.8365036643694809  1.0000
  H   H7        1.0  0.6003838018835665  0.6466987270789558  0.6635083620806983  1.0000
  H   H8        1.0  0.8996336857195286  0.3533225791523122  0.16349867294911752  1.0000
  H   H9        1.0  0.325724002612681  0.5201944413975141  0.45442640420307623  1.0000
  H   H10       1.0  0.17422042228484708  0.4797496183281068  0.954439591261611  1.0000
  H   H11       1.0  0.6742693356201812  0.4797966948848184  0.5455710225548813  1.0000
  H   H12       1.0  0.8257970440059594  0.5202460432296975  0.04556765663620871  1.0000
  H   H13       1.0  0.25104942526904483  0.7054665909344707  0.36200671816396124  1.0000
  H   H14       1.0  0.24891544429209483  0.2945038563056386  0.8620065385252929  1.0000
  H   H15       1.0  0.7489727686467234  0.294542505238077  0.6379907087457113  1.0000
  H   H16       1.0  0.7510681907763584  0.7054971044358567  0.1379908880497638  1.0000
  H   H17       1.0  0.25310152581114653  0.7153787951150505  0.1594181448443948  1.0000
  H   H18       1.0  0.24692587165673527  0.2846321893666115  0.6594197243275701  1.0000
  H   H19       1.0  0.746918180568592  0.28464193053234516  0.8405833739950594  1.0000
  H   H20       1.0  0.7530866319272957  0.7153652518303346  0.3405785209883875  1.0000
  H   H21       1.0  0.4345244006362349  0.0999770648609939  0.0348671699541612  1.0000
  H   H22       1.0  0.06548549080572733  0.9000186104715197  0.534887468937491  1.0000
  H   H23       1.0  0.5655027555826633  0.9000302517796968  0.9651237097382079  1.0000
  H   H24       1.0  0.9344544014367314  0.09996972903743993  0.4651205966224339  1.0000
  H   H25       1.0  0.5560453000305968  0.2347657064893838  0.9743018861089326  1.0000
  H   H26       1.0  0.9439617274384486  0.7652261960154405  0.4743222834459502  1.0000
  H   H27       1.0  0.44397621867637577  0.7652407034074571  0.0256857198902409  1.0000
  H   H28       1.0  0.055987868287090195  0.2347523189496599  0.5256980584540969  1.0000
  H   H29       1.0  0.6569326676294764  0.16431277432333502  0.08485583070854122  1.0000
  H   H30       1.0  0.8430660973173897  0.8356782621935249  0.5848739883918839  1.0000
  H   H31       1.0  0.34308321055391383  0.8356980986361151  0.9151358672470948  1.0000
  H   H32       1.0  0.1568983894126603  0.1642895440815764  0.4151610851412073  1.0000
  C   C1        1.0  0.43417121626303856  0.3664714085764371  0.11067758749927488  1.0000
  C   C2        1.0  0.0658500546243701  0.6335205513283455  0.6106949590440109  1.0000
  C   C3        1.0  0.565844440074848  0.633533199094849  0.889311655274689  1.0000
  C   C4        1.0  0.9341525305679069  0.36646970926857136  0.3893090151015457  1.0000
  C   C5        1.0  0.3732906201213027  0.45032555535006946  0.186333393922574  1.0000
  C   C6        1.0  0.12670097889441223  0.5496608154760879  0.6863477006974464  1.0000
  C   C7        1.0  0.6266977489140899  0.5496781003085544  0.8136517565222335  1.0000
  C   C8        1.0  0.8732928093501825  0.45033211169059223  0.3136513628712763  1.0000
  C   C9        1.0  0.3682919216023137  0.4353860855758783  0.30059502701518437  1.0000
  C   C10       1.0  0.13170922240065858  0.5645915562335729  0.800623102848988  1.0000
  C   C11       1.0  0.6316926097768769  0.5646238269271109  0.6993860312851652  1.0000
  C   C12       1.0  0.8683215531504728  0.4353978683326076  0.19938169000807457  1.0000
  C   C13       1.0  0.3277167538682805  0.5286845077155746  0.3654119383285703  1.0000
  C   C14       1.0  0.17223747394695005  0.4712751301996292  0.8654096751400573  1.0000
  C   C15       1.0  0.672261468672865  0.47131644172988985  0.634582214548189  1.0000
  C   C16       1.0  0.8277800014850385  0.5287044219105539  0.1345795678611665  1.0000
  C   C17       1.0  0.2850770850793296  0.6307448230189152  0.31481732749328023  1.0000
  C   C18       1.0  0.2149164529697316  0.36923171029624063  0.814819287880951  1.0000
  C   C19       1.0  0.7149331526017163  0.3692705129974954  0.6851792808293098  1.0000
  C   C20       1.0  0.7851003383247245  0.6307612649293901  0.18518632321119105  1.0000
  C   C21       1.0  0.28857308993452335  0.6367161621727034  0.2005909449274839  1.0000
  C   C22       1.0  0.2114366078408665  0.36327989310072445  0.7005863843768267  1.0000
  C   C23       1.0  0.7114364697172704  0.3633018573236413  0.7994105738286237  1.0000
  C   C24       1.0  0.78856101481459  0.6367121470901651  0.2994151344707134  1.0000
  C   C25       1.0  0.5284466273906503  0.18382332259483997  0.050044056711847404  1.0000
  C   C26       1.0  0.9715577708354104  0.8161708947489573  0.5500652195302252  1.0000
  C   C27       1.0  0.4715699289707017  0.8161848668451553  0.9499484596836538  1.0000
  C   C28       1.0  0.02839429955100307  0.18381747018736405  0.4499485750299002  1.0000
  N   N1        1.0  0.4438932940438889  0.25394462517776617  0.1301379703878922  1.0000
  N   N2        1.0  0.0561050812321966  0.7460488061364076  0.6301589968431358  1.0000
  N   N3        1.0  0.5561068031237324  0.7460572650238573  0.8698512722463505  1.0000
  N   N4        1.0  0.9438925481051469  0.2539324942665147  0.3698531614300293  1.0000
  N   N5        1.0  0.3355244204029191  0.5509032326126116  0.136797051005594  1.0000
  N   N6        1.0  0.16451398709090634  0.44909734975342996  0.6367999053280897  1.0000
  N   N7        1.0  0.6644961891818966  0.4491157049518506  0.8632069230895923  1.0000
  N   N8        1.0  0.8354962606023548  0.5509018765838646  0.3632122529276812  1.0000
  Cl  Cl1       1.0  0.5060219721019266  0.1683896241254814  0.4869720287961812  1.0000
  Cl  Cl2       1.0  0.9939742002133656  0.8316208740746943  0.9869811265011705  1.0000
  Cl  Cl3       1.0  0.49396143149121485  0.8316211809053372  0.5130221240527036  1.0000
  Cl  Cl4       1.0  0.006034240984767801  0.1683819284510477  0.013022847601206398  1.0000
  Cl  Cl5       1.0  0.6481799217806666  0.9235163588807466  0.2005955857989576  1.0000
  Cl  Cl6       1.0  0.8518153701120711  0.07648917047274041  0.7005954488692866  1.0000
  Cl  Cl7       1.0  0.35181430998496666  0.07648909890743738  0.7994018408492567  1.0000
  Cl  Cl8       1.0  0.1481853994438892  0.923520775760245  0.2994183460194648  1.0000
  O   O1        1.0  0.3820451843162899  0.19665783568812856  0.2191874091523331  1.0000
  O   O2        1.0  0.11794857384779082  0.8033245027523466  0.7192136840567471  1.0000
  O   O3        1.0  0.617949503526873  0.8033386733601944  0.7807985598282842  1.0000
  O   O4        1.0  0.8820607705766647  0.19667651168481373  0.2807935637118462  1.0000
