data_image0
_chemical_formula_structural       Cd4H28C24S4N12O20
_chemical_formula_sum              "Cd4 H28 C24 S4 N12 O20"
_cell_length_a       8.719009760006923
_cell_length_b       9.393978618986816
_cell_length_c       11.852469636360365
_cell_angle_alpha    90.89427863843949
_cell_angle_beta     90.0001361386944
_cell_angle_gamma    90.00004456916753

_space_group_name_H-M_alt    "P 1"
_space_group_IT_number       1

loop_
  _space_group_symop_operation_xyz
  'x, y, z'

loop_
  _atom_site_type_symbol
  _atom_site_label
  _atom_site_symmetry_multiplicity
  _atom_site_fract_x
  _atom_site_fract_y
  _atom_site_fract_z
  _atom_site_occupancy
  Cd  Cd1       1.0  0.8107029741163456  0.6455077674539424  0.3367186238763793  1.0000
  Cd  Cd2       1.0  0.31070334622856416  0.8544919532509996  0.16328238108160786  1.0000
  Cd  Cd3       1.0  0.18929679581098915  0.3544903572983387  0.6632814660587911  1.0000
  Cd  Cd4       1.0  0.6892964236997229  0.1455083007677231  0.8367177285933423  1.0000
  H   H1        1.0  0.13841906467379056  0.6129444394646626  0.3478071086733365  1.0000
  H   H2        1.0  0.638419456953514  0.8870562196129375  0.152193601272856  1.0000
  H   H3        1.0  0.8615807052540205  0.3870547499208428  0.6521929911317274  1.0000
  H   H4        1.0  0.3615814598940119  0.11294403440620468  0.8478065084031101  1.0000
  H   H5        1.0  0.08319511280350161  0.6264052535541323  0.4747004940620131  1.0000
  H   H6        1.0  0.5831962334567534  0.8735953692159342  0.025300961909003706  1.0000
  H   H7        1.0  0.9168046571243096  0.37359393583137296  0.5252996057430508  1.0000
  H   H8        1.0  0.4168035364710576  0.12640382016957125  0.9746991378960602  1.0000
  H   H9        1.0  0.40425895503904036  0.47064967246016914  0.4290614674473403  1.0000
  H   H10       1.0  0.9042587770258095  0.029350748733847402  0.070938880910191  1.0000
  H   H11       1.0  0.5957396679668323  0.5293495085972992  0.5709369448545516  1.0000
  H   H12       1.0  0.09574213982442359  0.9706495136129049  0.9290629162679309  1.0000
  H   H13       1.0  0.4410174668705408  0.40360233179389127  0.29146404782221685  1.0000
  H   H14       1.0  0.9410154942894521  0.0963981121746258  0.2085355218322391  1.0000
  H   H15       1.0  0.5589834499737946  0.5963968492644157  0.7085343644817074  1.0000
  H   H16       1.0  0.05898427563883499  0.9036021418440966  0.791464587842718  1.0000
  H   H17       1.0  0.6515341147163339  0.15754617286861358  0.1223583849363976  1.0000
  H   H18       1.0  0.15153860451593462  0.3424540547867211  0.37763982868936113  1.0000
  H   H19       1.0  0.34846565521107914  0.8424551416195173  0.8776408908573785  1.0000
  H   H20       1.0  0.8484623123315843  0.6575461992324207  0.6223602809866124  1.0000
  H   H21       1.0  0.7987058600832669  0.45884036337039197  0.8911447775729684  1.0000
  H   H22       1.0  0.29870693327124087  0.0411605083083373  0.6088554741867257  1.0000
  H   H23       1.0  0.20129390984366316  0.5411598864845217  0.10885448835090732  1.0000
  H   H24       1.0  0.7012928366570463  0.958839745710385  0.3911446354882244  1.0000
  H   H25       1.0  0.8736098814798507  0.6245840613428656  0.0518814246203974  1.0000
  H   H26       1.0  0.37361233197745486  0.8754178347314435  0.4481197114022352  1.0000
  H   H27       1.0  0.1263910353686271  0.37541832194271757  0.9481187047953554  1.0000
  H   H28       1.0  0.6263897317901835  0.12458135881870194  0.5518812321559281  1.0000
  C   C1        1.0  0.4500128794821379  0.6276772205471062  0.3089526381943061  1.0000
  C   C2        1.0  0.950008795918457  0.8723257961509886  0.191048642898771  1.0000
  C   C3        1.0  0.5499868904429661  0.3723219605107815  0.6910457741086091  1.0000
  C   C4        1.0  0.049989827094663  0.12767447035873403  0.8089539980283933  1.0000
  C   C5        1.0  0.4810611416659468  0.481015904039552  0.35578418203014917  1.0000
  C   C6        1.0  0.9810600427246573  0.018983508806414303  0.1442162923694355  1.0000
  C   C7        1.0  0.5189386282600309  0.5189822165489203  0.644215064153947  1.0000
  C   C8        1.0  0.0189397272058613  0.9810156889067018  0.855785494937777  1.0000
  C   C9        1.0  0.7475475113236456  0.3526903065150862  0.19428347313610322  1.0000
  C   C10       1.0  0.24755045459060912  0.147308922707353  0.30571405677713415  1.0000
  C   C11       1.0  0.25245455243992143  0.6473088745436401  0.8057149391688371  1.0000
  C   C12       1.0  0.7524516091743153  0.852690262515182  0.6942851992788874  1.0000
  C   C13       1.0  0.7040458310856366  0.26065172174372714  0.10649994562629672  1.0000
  C   C14       1.0  0.20404798861316917  0.23934747143383106  0.39349666355255414  1.0000
  C   C15       1.0  0.2959550857610082  0.7393495927448299  0.8934993301684884  1.0000
  C   C16       1.0  0.7959517813132918  0.7606517137878654  0.6065025925014353  1.0000
  C   C17       1.0  0.7843408236874723  0.42800130758733723  0.9786960836169457  1.0000
  C   C18       1.0  0.2843439366803864  0.0720006181977553  0.5213041525934089  1.0000
  C   C19       1.0  0.21565894624129103  0.5720000110646029  0.021304035927904908  1.0000
  C   C20       1.0  0.7156569801676156  0.9280007004546039  0.4786959669524506  1.0000
  C   C21       1.0  0.8258509971684234  0.5196747286039525  0.06744725180715251  1.0000
  C   C22       1.0  0.3258557824342674  0.9803281929398867  0.43255296581999403  1.0000
  C   C23       1.0  0.17414877275945878  0.48032765051740256  0.9325520338565098  1.0000
  C   C24       1.0  0.6741451344146085  0.019672065243064203  0.5674479876070464  1.0000
  S   S1        1.0  0.7112534719367716  0.31502382723397204  0.3415434313874074  1.0000
  S   S2        1.0  0.21125941638013762  0.1849721856551483  0.158454848442247  1.0000
  S   S3        1.0  0.28874744490892107  0.6849753579881438  0.6584558246675982  1.0000
  S   S4        1.0  0.7887392066297919  0.8150270078937397  0.8415460951128753  1.0000
  N   N1        1.0  0.6409830162350331  0.4571900932067975  0.389774294514318  1.0000
  N   N2        1.0  0.14098180141038338  0.04281120800237661  0.1102272853088664  1.0000
  N   N3        1.0  0.35901560677354627  0.5428090961782814  0.6102258052897298  1.0000
  N   N4        1.0  0.8590168216009034  0.9571879897103204  0.8897745019973372  1.0000
  N   N5        1.0  0.8058018573859655  0.4818080661801647  0.17457249728749963  1.0000
  N   N6        1.0  0.3058058989750876  0.018192282859793404  0.32542767683946044  1.0000
  N   N7        1.0  0.19419791254144056  0.5181932483079663  0.8254267785062767  1.0000
  N   N8        1.0  0.6941950178724313  0.9818079711593487  0.6745724328365128  1.0000
  N   N9        1.0  0.7228659294779334  0.2999170250622001  0.9987912460187405  1.0000
  N   N10       1.0  0.2228679420209829  0.2000848390145578  0.5012055063974756  1.0000
  N   N11       1.0  0.2771349873687042  0.7000842894263501  0.001208029776044802  1.0000
  N   N12       1.0  0.7771318279073044  0.7999154150041575  0.49879460327748154  1.0000
  O   O1        1.0  0.5541371196447713  0.7201646420007535  0.3030216422640706  1.0000
  O   O2        1.0  0.0541340944025066  0.7798317009393755  0.19697972280131637  1.0000
  O   O3        1.0  0.44586379720227126  0.27983454738517116  0.6969784575420093  1.0000
  O   O4        1.0  0.9458610878533095  0.2201664404664569  0.8030237421340943  1.0000
  O   O5        1.0  0.31225522034308995  0.6511453196181662  0.2758215031573812  1.0000
  O   O6        1.0  0.8122546634556186  0.8488597337177312  0.2241812413983268  1.0000
  O   O7        1.0  0.687744549583364  0.34885386560352316  0.7241777528966085  1.0000
  O   O8        1.0  0.18774166572229226  0.15114479548783785  0.7758222827574528  1.0000
  O   O9        1.0  0.8615951594236718  0.29271586317660336  0.39338875090077613  1.0000
  O   O10       1.0  0.3615894877518215  0.2072845267486656  0.1066115219520327  1.0000
  O   O11       1.0  0.13840461050685346  0.7072833345365126  0.6066130364064365  1.0000
  O   O12       1.0  0.638409135256275  0.7927135980031964  0.8933885679821216  1.0000
  O   O13       1.0  0.6077898301141217  0.193348768045368  0.3384292284251984  1.0000
  O   O14       1.0  0.1077844207216785  0.30665357763322726  0.16157314627501762  1.0000
  O   O15       1.0  0.39221108672973776  0.8066493483797218  0.6615691740088324  1.0000
  O   O16       1.0  0.8922153492074826  0.6933456159160797  0.8384277972811206  1.0000
  O   O17       1.0  0.0544726770244992  0.5854900592725656  0.4000575844130907  1.0000
  O   O18       1.0  0.5544717786144915  0.9145116029165481  0.09994298684638642  1.0000
  O   O19       1.0  0.9455282398225435  0.4145091301133591  0.5999425153929893  1.0000
  O   O20       1.0  0.44552799131243853  0.08548864693836582  0.9000562790774965  1.0000
