data_image0
_chemical_formula_structural       Zn4H48C76N8O20
_chemical_formula_sum              "Zn4 H48 C76 N8 O20"
_cell_length_a       9.804135509011806
_cell_length_b       10.200082755093984
_cell_length_c       23.03801751390444
_cell_angle_alpha    94.14793947378773
_cell_angle_beta     89.99990474882469
_cell_angle_gamma    89.99985777888283

_space_group_name_H-M_alt    "P 1"
_space_group_IT_number       1

loop_
  _space_group_symop_operation_xyz
  'x, y, z'

loop_
  _atom_site_type_symbol
  _atom_site_label
  _atom_site_symmetry_multiplicity
  _atom_site_fract_x
  _atom_site_fract_y
  _atom_site_fract_z
  _atom_site_occupancy
  Zn  Zn1       1.0  0.873683872782273  0.4378362944313422  0.488715477871935  1.0000
  Zn  Zn2       1.0  0.3736860836268008  0.06216890498167519  0.011281654262298001  1.0000
  Zn  Zn3       1.0  0.12631333818242038  0.5621683109298417  0.5112856782931489  1.0000
  Zn  Zn4       1.0  0.6263131673094974  0.9378287258758109  0.9887158427024335  1.0000
  H   H1        1.0  0.5245860037860836  0.5441725167678372  0.046586232993334406  1.0000
  H   H2        1.0  0.0245915873996552  0.9558326324070451  0.45341087058396573  1.0000
  H   H3        1.0  0.4754132471489213  0.4558241665574767  0.9534125409327815  1.0000
  H   H4        1.0  0.9754015436553801  0.0441709900710094  0.5465902593100367  1.0000
  H   H5        1.0  0.3541423306776466  0.4875308449285711  0.2322789047111371  1.0000
  H   H6        1.0  0.8541369787607634  0.0124725207077603  0.26772123107993206  1.0000
  H   H7        1.0  0.6458650800566303  0.5124757969085606  0.7677249104634215  1.0000
  H   H8        1.0  0.1458561523112607  0.9875241154837938  0.732275805203166  1.0000
  H   H9        1.0  0.1700158473621443  0.7649640441296484  0.10302649636319222  1.0000
  H   H10       1.0  0.6700247166329021  0.7350369230127496  0.39697473222477  1.0000
  H   H11       1.0  0.8299793236706138  0.23502866050612425  0.8969704348284041  1.0000
  H   H12       1.0  0.3299673944461432  0.2649647454753675  0.6030267795356394  1.0000
  H   H13       1.0  0.9996774334577907  0.24111173060448002  0.2048626285760804  1.0000
  H   H14       1.0  0.49966476443349706  0.2588835094076316  0.29514109264523114  1.0000
  H   H15       1.0  0.0003309972660546  0.758882204395725  0.795143451521419  1.0000
  H   H16       1.0  0.5003253067039991  0.7411141096760971  0.7048559699117406  1.0000
  H   H17       1.0  0.4355268044080773  0.3476789902822617  0.0946787743355273  1.0000
  H   H18       1.0  0.9355266729944418  0.1523230920543952  0.40531779608798507  1.0000
  H   H19       1.0  0.5644775464130306  0.6523177283927238  0.9053213028226426  1.0000
  H   H20       1.0  0.06446849803525369  0.8476725494609029  0.5946787795102892  1.0000
  H   H21       1.0  0.9419382778012136  0.2779430017997129  0.3108876111272068  1.0000
  H   H22       1.0  0.4419200001612468  0.22205926467305653  0.18911633927010027  1.0000
  H   H23       1.0  0.0580793327148967  0.7220539289952795  0.6891202854301284  1.0000
  H   H24       1.0  0.5580772108164923  0.7779432334870008  0.8108795514133932  1.0000
  H   H25       1.0  0.7555452106095758  0.18952006528920853  0.5183728035000783  1.0000
  H   H26       1.0  0.2555398359479071  0.31047747254119423  0.9816250087166694  1.0000
  H   H27       1.0  0.244453020347251  0.8104775891403264  0.48162556228775355  1.0000
  H   H28       1.0  0.7444553350700218  0.689523154127869  0.018374304713098904  1.0000
  H   H29       1.0  0.29729770094235874  0.5203709332146573  0.3381368629438981  1.0000
  H   H30       1.0  0.7972844284545743  0.9796405115760648  0.1618641204571958  1.0000
  H   H31       1.0  0.7027148096740845  0.4796386926370457  0.6618683342807472  1.0000
  H   H32       1.0  0.202710742565948  0.020362010157334996  0.8381326390497961  1.0000
  H   H33       1.0  0.3747303320349857  0.39509272227431314  0.41935314321901285  1.0000
  H   H34       1.0  0.8747305787454851  0.10490861364990417  0.08064648947302541  1.0000
  H   H35       1.0  0.6252740187826049  0.6049098348035926  0.5806449195184485  1.0000
  H   H36       1.0  0.12526969216421688  0.8950890761331749  0.9193531795480683  1.0000
  H   H37       1.0  0.08465303646988791  0.572331417031748  0.1541228701754562  1.0000
  H   H38       1.0  0.584653453280616  0.9276647929506155  0.3458761219165254  1.0000
  H   H39       1.0  0.9153513143573238  0.42766328872513526  0.8458754167919551  1.0000
  H   H40       1.0  0.41534375770280724  0.07233280255331917  0.6541200718149369  1.0000
  H   H41       1.0  0.6066822896525537  0.5014541711980626  0.4318065680213651  1.0000
  H   H42       1.0  0.10668213866497207  0.9985439723390713  0.0681933281688885  1.0000
  H   H43       1.0  0.39331900122398616  0.4985484919521068  0.5681954044194697  1.0000
  H   H44       1.0  0.8933160922944694  0.0014517163138592034  0.9318049850735906  1.0000
  H   H45       1.0  0.34158331477146214  0.16907027152967655  0.4550373318984526  1.0000
  H   H46       1.0  0.8415831226805397  0.33093116013162666  0.04496276119098041  1.0000
  H   H47       1.0  0.658414916180547  0.8309322737705924  0.5449602964300483  1.0000
  H   H48       1.0  0.15841510827367242  0.6690665296540387  0.955036907830916  1.0000
  C   C1        1.0  0.11674548864505138  0.4002596317260725  0.33110238925091556  1.0000
  C   C2        1.0  0.6167280619519104  0.0997512625380566  0.1688998542081706  1.0000
  C   C3        1.0  0.8832680419478294  0.59975097701264  0.6689028342460049  1.0000
  C   C4        1.0  0.3832681290489717  0.9002492934174454  0.8310968527530704  1.0000
  C   C5        1.0  0.4275554692562623  0.549336457263216  0.06963069536039511  1.0000
  C   C6        1.0  0.9275595748290968  0.9506667237841313  0.43036736926774927  1.0000
  C   C7        1.0  0.572444801655621  0.4506602378461864  0.9303685129766707  1.0000
  C   C8        1.0  0.072436616159159  0.0493368986900435  0.5696337606250594  1.0000
  C   C9        1.0  0.4049647530569088  0.7843955435088502  0.043198614074754005  1.0000
  C   C10       1.0  0.9049693569464169  0.7156137099367398  0.45680397001294903  1.0000
  C   C11       1.0  0.5950365378361866  0.21560110445774675  0.9567988566165013  1.0000
  C   C12       1.0  0.0950237740977258  0.28439295548922416  0.5432007139899044  1.0000
  C   C13       1.0  0.26504730042331914  0.4404733836239672  0.24996157831795074  1.0000
  C   C14       1.0  0.7650337376344326  0.05953514568521708  0.2500396275091745  1.0000
  C   C15       1.0  0.7349641902167079  0.55953332892026  0.7500448433231242  1.0000
  C   C16       1.0  0.23495837345852522  0.9404644038163995  0.7499561843582898  1.0000
  C   C17       1.0  0.22830157427866027  0.6739523703222117  0.10189427946025383  1.0000
  C   C18       1.0  0.7283061260007814  0.826048413849776  0.39810560020178093  1.0000
  C   C19       1.0  0.7716976766585263  0.3260433183294253  0.8981040337818271  1.0000
  C   C20       1.0  0.27168802503549466  0.1739513006445392  0.6018962934238347  1.0000
  C   C21       1.0  0.35280114595373385  0.6667656792607274  0.0717386349581943  1.0000
  C   C22       1.0  0.8528106605712651  0.8332387564953263  0.428262555424226  1.0000
  C   C23       1.0  0.6471960650266552  0.33323099228179837  0.9282597045573624  1.0000
  C   C24       1.0  0.14718247048945443  0.1667599633265979  0.5717388775177596  1.0000
  C   C25       1.0  0.0649656157896601  0.3008552646127214  0.23453335603875303  1.0000
  C   C26       1.0  0.564951634607631  0.19915378322750843  0.2654684410555177  1.0000
  C   C27       1.0  0.9350479148067379  0.699149505723085  0.7654738818788759  1.0000
  C   C28       1.0  0.4350476163229686  0.8008506807065672  0.7345275021725258  1.0000
  C   C29       1.0  0.17968349597141037  0.362492286649463  0.21291114327598143  1.0000
  C   C30       1.0  0.6796818274385643  0.13750959041210106  0.287090379970742  1.0000
  C   C31       1.0  0.8203198348588857  0.6375084696484165  0.7870929486754721  1.0000
  C   C32       1.0  0.32031538353656686  0.8624929431040869  0.7129068139468091  1.0000
  C   C33       1.0  0.3798185571208776  0.44040852125374375  0.0967897817738574  1.0000
  C   C34       1.0  0.879820711546145  0.059593796454826986  0.403210307612504  1.0000
  C   C35       1.0  0.620183753742566  0.5595891920975048  0.9032107560691431  1.0000
  C   C36       1.0  0.12017037956604781  0.9404028986662001  0.596788900728157  1.0000
  C   C37       1.0  0.0335623993717391  0.32102112303767427  0.29346443580536896  1.0000
  C   C38       1.0  0.5335517615140901  0.1789831134622233  0.2065381233657249  1.0000
  C   C39       1.0  0.9664501112621624  0.6789786150041479  0.7065383266357517  1.0000
  C   C40       1.0  0.46644544945624494  0.8210223805042385  0.7934595837811997  1.0000
  C   C41       1.0  0.547998195458554  0.16195416913364366  0.48762088282239086  1.0000
  C   C42       1.0  0.0479945952555099  0.3380430680801965  0.012378440240688302  1.0000
  C   C43       1.0  0.45199901551921334  0.8380444681854795  0.5123775092385188  1.0000
  C   C44       1.0  0.9520036356973945  0.6619556045937713  0.9876212550538812  1.0000
  C   C45       1.0  0.0787562594908735  0.42781170248706946  0.39359037686071474  1.0000
  C   C46       1.0  0.5787432290117636  0.07219534464790911  0.10641135687655631  1.0000
  C   C47       1.0  0.9212654309230713  0.5721989180266859  0.6064152810443632  1.0000
  C   C48       1.0  0.42125500194635634  0.9278032573137903  0.8935857319498979  1.0000
  C   C49       1.0  0.2571559597914117  0.45118275948832587  0.1274398214442698  1.0000
  C   C50       1.0  0.7571572423686206  0.0488149308755865  0.3725593639186755  1.0000
  C   C51       1.0  0.7428483910301367  0.5488129880837462  0.872560663852582  1.0000
  C   C52       1.0  0.2428399686100278  0.951181764237688  0.627439844419591  1.0000
  C   C53       1.0  0.6700037481814434  0.23133079140237095  0.4957601279245766  1.0000
  C   C54       1.0  0.1700003577374076  0.2686680790146454  0.0042382832138372  1.0000
  C   C55       1.0  0.32999754270206694  0.7686698470443147  0.504239619914145  1.0000
  C   C56       1.0  0.8299968532390665  0.7313296107723063  0.9957613858084572  1.0000
  C   C57       1.0  0.23336971302458662  0.4584401370542394  0.30878352077282767  1.0000
  C   C58       1.0  0.7333645873803293  0.041568472473812804  0.19121770988488862  1.0000
  C   C59       1.0  0.7666356577520191  0.5415674994591554  0.6912207550865546  1.0000
  C   C60       1.0  0.2666316036166165  0.9584350321465887  0.8087790758943856  1.0000
  C   C61       1.0  0.45822165577951784  0.3441482385981089  0.4394852092380788  1.0000
  C   C62       1.0  0.9582208311518273  0.15584697675454606  0.06051376595328151  1.0000
  C   C63       1.0  0.5417786151319247  0.6558494276142213  0.5605135909603051  1.0000
  C   C64       1.0  0.0417784197831779  0.8441497065707751  0.9394850079728273  1.0000
  C   C65       1.0  0.1805381379233779  0.5671596711218638  0.1301027851269652  1.0000
  C   C66       1.0  0.6805466068538522  0.932840215770767  0.36989580247131937  1.0000
  C   C67       1.0  0.8194621329876313  0.4328370357729198  0.8698968576214555  1.0000
  C   C68       1.0  0.3194475441933021  0.06715838619609828  0.6301012863567267  1.0000
  C   C69       1.0  0.5851251537945643  0.404875456373155  0.4470681152268483  1.0000
  C   C70       1.0  0.08512609645546829  0.09512461189795117  0.05293038872378731  1.0000
  C   C71       1.0  0.41487817704094  0.5951271596329306  0.552932119567771  1.0000
  C   C72       1.0  0.9148721345013513  0.9048730425315766  0.9470679770640446  1.0000
  C   C73       1.0  0.4387820188589231  0.22036365333698169  0.4596849319942109  1.0000
  C   C74       1.0  0.938778916533181  0.27963849147124614  0.0403142423466392  1.0000
  C   C75       1.0  0.5612213119800556  0.7796389155275916  0.5403135651550031  1.0000
  C   C76       1.0  0.061219314419290106  0.7203592218851682  0.9596862954979672  1.0000
  N   N1        1.0  0.6884376953313448  0.349383203905063  0.47508248008118414  1.0000
  N   N2        1.0  0.18843452605766942  0.15061268294465444  0.024916272199028804  1.0000
  N   N3        1.0  0.31156257557268663  0.6506174581136718  0.524918136580638  1.0000
  N   N4        1.0  0.8115637048978429  0.8493859543731758  0.9750821198614831  1.0000
  N   N5        1.0  0.5478340959258786  0.036824054380488705  0.5097059429288963  1.0000
  N   N6        1.0  0.047834415818783796  0.46317204373421833  0.9902919795770446  1.0000
  N   N7        1.0  0.45216311505275536  0.9631745711532531  0.49029201472065875  1.0000
  N   N8        1.0  0.9521638151332469  0.5368266407251239  0.009708150128872701  1.0000
  O   O1        1.0  0.20850514873982462  0.34212450809604883  0.15410359370410023  1.0000
  O   O2        1.0  0.7084991168749752  0.1578783024337511  0.3458988020447508  1.0000
  O   O3        1.0  0.7915063419093684  0.6578772546505504  0.8459013933395383  1.0000
  O   O4        1.0  0.291501154038194  0.8421193402078231  0.6540991293309306  1.0000
  O   O5        1.0  0.5258719413461037  0.7791197601310883  0.022875108055913505  1.0000
  O   O6        1.0  0.025878033686566902  0.72089046522305  0.47712820763538843  1.0000
  O   O7        1.0  0.47412832956663215  0.22087885361340653  0.9771224151810857  1.0000
  O   O8        1.0  0.9741079575133966  0.2791142697914921  0.522877727058976  1.0000
  O   O9        1.0  0.3240814163140939  0.8821161764528967  0.041459341030559906  1.0000
  O   O10       1.0  0.8240842237884466  0.6178922989591908  0.4585432801943058  1.0000
  O   O11       1.0  0.6759188545982084  0.11788147797404488  0.958539024756469  1.0000
  O   O12       1.0  0.17590482736436286  0.3821034839883878  0.5414585083426005  1.0000
  O   O13       1.0  0.1642526868776599  0.4922282346769506  0.4263422786366817  1.0000
  O   O14       1.0  0.6642368902958751  0.007777601251802899  0.0736589273920316  1.0000
  O   O15       1.0  0.8357598237575343  0.5077724508970434  0.573659206843054  1.0000
  O   O16       1.0  0.33576032067796285  0.9922239847322203  0.9263395434869042  1.0000
  O   O17       1.0  0.9632034604803862  0.3864163017278129  0.4097184846232693  1.0000
  O   O18       1.0  0.4631929892220157  0.11358778237050159  0.09028202635449391  1.0000
  O   O19       1.0  0.03680191029929599  0.6135864674855824  0.5902873975181535  1.0000
  O   O20       1.0  0.5368042217596595  0.8864117671246557  0.9097137855109665  1.0000
