data_image0
_chemical_formula_structural       Mn2H8C4O12
_chemical_formula_sum              "Mn2 H8 C4 O12"
_cell_length_a       5.727394382848429
_cell_length_b       6.639388539050962
_cell_length_c       8.178118626729843
_cell_angle_alpha    79.90269742274539
_cell_angle_beta     69.51432933616712
_cell_angle_gamma    64.482330351613

_space_group_name_H-M_alt    "P 1"
_space_group_IT_number       1

loop_
  _space_group_symop_operation_xyz
  'x, y, z'

loop_
  _atom_site_type_symbol
  _atom_site_label
  _atom_site_symmetry_multiplicity
  _atom_site_fract_x
  _atom_site_fract_y
  _atom_site_fract_z
  _atom_site_occupancy
  Mn  Mn1       1.0  0.9265623823349926  0.7500854928426578  0.2501144833826602  1.0000
  Mn  Mn2       1.0  0.07343809512585825  0.24991047218204449  0.7498833620189773  1.0000
  H   H1        1.0  0.6230914055373589  0.18132569544878419  0.35270469280702343  1.0000
  H   H2        1.0  0.15733342951146054  0.3189288675193397  0.14699101005643914  1.0000
  H   H3        1.0  0.3769120921879079  0.8186752801702184  0.6472931435633172  1.0000
  H   H4        1.0  0.8426691034883118  0.6810670996124275  0.8530122943873338  1.0000
  H   H5        1.0  0.6780807844085571  0.1838179917930134  0.1439358693526742  1.0000
  H   H6        1.0  0.006015014568433111  0.31609358695519063  0.35572931369682703  1.0000
  H   H7        1.0  0.32192352861957796  0.8161813141552232  0.8560620050890934  1.0000
  H   H8        1.0  0.993986491129803  0.6839040493207023  0.644272281061248  1.0000
  C   C1        1.0  0.4769460552666657  0.7484098010932175  0.14848134298721055  1.0000
  C   C2        1.0  0.37367971783198317  0.7515983615018342  0.35186214911814767  1.0000
  C   C3        1.0  0.5230741024519215  0.2515861618338705  0.8514889499029651  1.0000
  C   C4        1.0  0.6262984223996992  0.2484059545014575  0.6481635026371607  1.0000
  O   O1        1.0  0.7113906636869058  0.7491899300912269  0.0724070982022411  1.0000
  O   O2        1.0  0.5330140648723897  0.7507096397200644  0.42787642180351787  1.0000
  O   O3        1.0  0.28857729411803495  0.2508093695226705  0.9276050844871975  1.0000
  O   O4        1.0  0.4669610121101683  0.24929967476437312  0.5721120012071667  1.0000
  O   O5        1.0  0.3190645767549682  0.745036007421078  0.07375613098115964  1.0000
  O   O6        1.0  0.1376497704494068  0.7552376632863588  0.4265797307203912  1.0000
  O   O7        1.0  0.6809531808472326  0.25496497662882694  0.9262574044829038  1.0000
  O   O8        1.0  0.8623658363460578  0.24476832451051683  0.5734145195567422  1.0000
  O   O9        1.0  0.7555371928861305  0.11157645578982311  0.2406847928570954  1.0000
  O   O10       1.0  0.1078665140827582  0.3886031649650193  0.25905606173785156  1.0000
  O   O11       1.0  0.24446853968492377  0.8884228506855721  0.7593135257839877  1.0000
  O   O12       1.0  0.8921388262469138  0.6113944718390913  0.7409435223896139  1.0000
