data_image0
_chemical_formula_structural       Cu6H16C20Br4N4Cl12
_chemical_formula_sum              "Cu6 H16 C20 Br4 N4 Cl12"
_cell_length_a       7.341700273820881
_cell_length_b       9.103910120411353
_cell_length_c       15.076971561805738
_cell_angle_alpha    89.97926104336392
_cell_angle_beta     90.0181994558396
_cell_angle_gamma    109.44885272851559

_space_group_name_H-M_alt    "P 1"
_space_group_IT_number       1

loop_
  _space_group_symop_operation_xyz
  'x, y, z'

loop_
  _atom_site_type_symbol
  _atom_site_label
  _atom_site_symmetry_multiplicity
  _atom_site_fract_x
  _atom_site_fract_y
  _atom_site_fract_z
  _atom_site_occupancy
  Cu  Cu1       1.0  0.9541795281190133  0.6399353571871558  0.4282739693288278  1.0000
  Cu  Cu2       1.0  0.04530380189278566  0.861375127005104  0.9279154846544628  1.0000
  Cu  Cu3       1.0  0.04573867630898583  0.36089331490453697  0.5720576914623905  1.0000
  Cu  Cu4       1.0  0.9543642063888313  0.139162051777582  0.07209119301688821  1.0000
  Cu  Cu5       1.0  0.9994787727930897  0.9975097759253869  0.49971022006478455  1.0000
  Cu  Cu6       1.0  0.9999457505951737  0.5000987045722453  1.5878944239000094e-06  1.0000
  H   H1        1.0  0.5862117192109791  0.4724500404871179  0.1419132407025643  1.0000
  H   H2        1.0  0.41345563270304087  0.0282418481482694  0.6418902558920223  1.0000
  H   H3        1.0  0.4132894839946885  0.5277992427454307  0.8582639162382081  1.0000
  H   H4        1.0  0.5875501617532279  0.9719729990083721  0.3581768963992858  1.0000
  H   H5        1.0  0.3383785602460776  0.23335045417437783  0.2037085493491873  1.0000
  H   H6        1.0  0.6611745866048365  0.26725745146944035  0.703733840555202  1.0000
  H   H7        1.0  0.6621093920473767  0.7662614273227958  0.7963811866448651  1.0000
  H   H8        1.0  0.3385294029651576  0.7334741576371757  0.2962403185315665  1.0000
  H   H9        1.0  0.35671749152027127  0.17112782554551126  0.3661283129474385  1.0000
  H   H10       1.0  0.6430943263903116  0.32910043448733006  0.8661744752346792  1.0000
  H   H11       1.0  0.6443854308860467  0.8282494565290647  0.6339150580143524  1.0000
  H   H12       1.0  0.35579116736452937  0.671990941741015  0.1337266354168847  1.0000
  H   H13       1.0  0.6230897982286618  0.3500762051447878  0.45815136038314824  1.0000
  H   H14       1.0  0.37680406288792057  0.14979782729773916  0.9581804758636991  1.0000
  H   H15       1.0  0.37824656301905424  0.6490329134956028  0.5417700134863779  1.0000
  H   H16       1.0  0.622143450515132  0.8511156904226665  0.0416457090318048  1.0000
  C   C1        1.0  0.7356529659733296  0.5288101391941352  0.2668911502542528  1.0000
  C   C2        1.0  0.26429312068891164  0.9712592203822367  0.7668252088181903  1.0000
  C   C3        1.0  0.2645558263804375  0.4710581848036739  0.7331640511440014  1.0000
  C   C4        1.0  0.7360878130184928  0.0289132855135392  0.2331424197881162  1.0000
  C   C5        1.0  0.5893154368781521  0.4398267671745585  0.2111350899993667  1.0000
  C   C6        1.0  0.41050947506683133  0.06054578371636409  0.7111339274496518  1.0000
  C   C7        1.0  0.410714510447768  0.5601236949965552  0.7889751423114433  1.0000
  C   C8        1.0  0.5899104382869138  0.9397152490559079  0.28888808163102203  1.0000
  C   C9        1.0  0.45150147787046546  0.3079997959688541  0.24641173517086662  1.0000
  C   C10       1.0  0.5482207153787115  0.1923740607737159  0.7464085813487529  1.0000
  C   C11       1.0  0.5489876052220594  0.6916714384407142  0.7536600864009485  1.0000
  C   C12       1.0  0.45161886448836  0.808222919422704  0.2535702434772631  1.0000
  C   C13       1.0  0.4619430829782162  0.2726158862669621  0.33586917011883344  1.0000
  C   C14       1.0  0.5379348374184332  0.22758195452736632  0.835894940978946  1.0000
  C   C15       1.0  0.5389365861566233  0.7268515794986924  0.6641569324472769  1.0000
  C   C16       1.0  0.46139630687353156  0.7732371279640587  0.1640234714590108  1.0000
  C   C17       1.0  0.6092196998223541  0.3701903103867251  0.38767264216065195  1.0000
  C   C18       1.0  0.3906759806115829  0.12986906316239552  0.8876660015170189  1.0000
  C   C19       1.0  0.39186437806683466  0.6292009028140554  0.6122964406558467  1.0000
  C   C20       1.0  0.6086497407018497  0.8708336508804279  0.11220665794537153  1.0000
  Br  Br1       1.0  0.9327700880112244  0.7032424771913737  0.219912973671299  1.0000
  Br  Br2       1.0  0.06754939074691188  0.7966139398437022  0.7198992922154872  1.0000
  Br  Br3       1.0  0.06682846192099841  0.297154860472773  0.7801905511637344  1.0000
  Br  Br4       1.0  0.9333844095290758  0.2031422720415037  0.2800365788461932  1.0000
  N   N1        1.0  0.7448260113969241  0.4963699822221557  0.35313268981981594  1.0000
  N   N2        1.0  0.25513445653542277  0.0037737804803227998  0.853056118335374  1.0000
  N   N3        1.0  0.25599776671838725  0.5031939321731115  0.6468383480567041  1.0000
  N   N4        1.0  0.7446357649890345  0.9966438338766395  0.1468464462205574  1.0000
  Cl  Cl1       1.0  0.15756369047628735  0.5035330189890741  0.4096194415711736  1.0000
  Cl  Cl2       1.0  0.8415729695685031  0.996682927505148  0.9095069615866507  1.0000
  Cl  Cl3       1.0  0.8418485491732851  0.4960794904969177  0.5906765024774572  1.0000
  Cl  Cl4       1.0  0.15781375930809818  0.0035730905734538995  0.09043605562195013  1.0000
  Cl  Cl5       1.0  0.7568876154151098  0.787478443939527  0.4553142893967888  1.0000
  Cl  Cl6       1.0  0.24112910524539188  0.712274290080863  0.9545438455480166  1.0000
  Cl  Cl7       1.0  0.2397924630194836  0.21041402176197718  0.5449995783456318  1.0000
  Cl  Cl8       1.0  0.7585141923570616  0.2881592611943944  0.0454555458454351  1.0000
  Cl  Cl9       1.0  0.2051007737422523  0.8666844194090756  0.4673774175405612  1.0000
  Cl  Cl10      1.0  0.7957376198699534  0.6343675304271911  0.967524244199801  1.0000
  Cl  Cl11      1.0  0.796787784685378  0.13345495068600138  0.5319084735942639  1.0000
  Cl  Cl12      1.0  0.20416709193546012  0.3659956757528349  0.0326847621472766  1.0000
