data_image0
_chemical_formula_structural       Zn2H18C34N2O10
_chemical_formula_sum              "Zn2 H18 C34 N2 O10"
_cell_length_a       9.359354672983173
_cell_length_b       11.073706695565873
_cell_length_c       13.807304463540822
_cell_angle_alpha    90.92864387712268
_cell_angle_beta     86.65699091727552
_cell_angle_gamma    92.69669800675324

_space_group_name_H-M_alt    "P 1"
_space_group_IT_number       1

loop_
  _space_group_symop_operation_xyz
  'x, y, z'

loop_
  _atom_site_type_symbol
  _atom_site_label
  _atom_site_symmetry_multiplicity
  _atom_site_fract_x
  _atom_site_fract_y
  _atom_site_fract_z
  _atom_site_occupancy
  Zn  Zn1       1.0  0.13680762954513173  0.5098783167423308  0.5306991759143926  1.0000
  Zn  Zn2       1.0  0.8611340946472695  0.5001877279311344  0.46812898390731306  1.0000
  H   H1        1.0  0.804023553526612  0.43034320970879486  0.13312349367808443  1.0000
  H   H2        1.0  0.22183240646376126  0.662922910609225  0.879747997920191  1.0000
  H   H3        1.0  0.3622436771296407  0.49237715823856126  0.2379396645561513  1.0000
  H   H4        1.0  0.6458458152619426  0.5499545012680683  0.7646990647123458  1.0000
  H   H5        1.0  0.9539775948949298  0.6283757567883086  0.18446907715800623  1.0000
  H   H6        1.0  0.060176634738937154  0.4307382833870576  0.8239201808809751  1.0000
  H   H7        1.0  0.9824624332687577  0.40742562898241624  0.9991616149385009  1.0000
  H   H8        1.0  0.0394861574606367  0.6761083391371939  0.014107117415370898  1.0000
  H   H9        1.0  0.5640374702269071  0.4794770795357548  0.19435740912628316  1.0000
  H   H10       1.0  0.4592301807767285  0.6076329323391859  0.8166442181601709  1.0000
  H   H11       1.0  0.7660023234855515  0.10987601540053048  0.5145369122417306  1.0000
  H   H12       1.0  0.2246398443571209  0.900242276161286  0.4816814258944575  1.0000
  H   H13       1.0  0.7657985911333965  0.8835185333654179  0.5187816216419421  1.0000
  H   H14       1.0  0.22520979822413523  0.12665951829292513  0.4790947315824566  1.0000
  H   H15       1.0  0.3616415250978306  0.679742062189696  0.4680988500751368  1.0000
  H   H16       1.0  0.6358531047022068  0.3305073060023531  0.5333705601035204  1.0000
  H   H17       1.0  0.5860402157056369  0.7745534500661148  0.3821399752121195  1.0000
  H   H18       1.0  0.4156233254504471  0.23754981618213827  0.6225277894144412  1.0000
  C   C1        1.0  0.9964150057672183  0.2670891051132499  0.4964863445962989  1.0000
  C   C2        1.0  0.9949045378271534  0.7432167759234074  0.5007243167838311  1.0000
  C   C3        1.0  0.5919481536223046  0.487596640634642  0.11704973538906666  1.0000
  C   C4        1.0  0.42946083776682537  0.5942015955763793  0.8932521906212684  1.0000
  C   C5        1.0  0.7269626135247831  0.45997145985982246  0.08317623864570581  1.0000
  C   C6        1.0  0.29614979394270324  0.6256651760806305  0.9282047364055968  1.0000
  C   C7        1.0  0.8660465737731471  0.063206837970867  0.5073154146653208  1.0000
  C   C8        1.0  0.1246987223977385  0.9470469331775319  0.4891959347549673  1.0000
  C   C9        1.0  0.8657723020245811  0.93765161639881  0.5092726295923241  1.0000
  C   C10       1.0  0.12505745213538688  0.0726171233217201  0.4878485295851576  1.0000
  C   C11       1.0  0.9951489148207527  0.8784832419433924  0.5000341187784656  1.0000
  C   C12       1.0  0.9956679881093464  0.1317574555420151  0.49683342880773296  1.0000
  C   C13       1.0  0.5635494583412352  0.5904050842268588  0.4424260741193819  1.0000
  C   C14       1.0  0.4344356232189596  0.4203713697933793  0.5597681132268164  1.0000
  C   C15       1.0  0.42491213961154967  0.6028909245542166  0.48368918950758644  1.0000
  C   C16       1.0  0.5728208009179171  0.4075896676111767  0.5181382804323817  1.0000
  C   C17       1.0  0.9015782367855323  0.500967821394866  0.6809190343074576  1.0000
  C   C18       1.0  0.10358802878225498  0.5250541147295493  0.3206350211707587  1.0000
  C   C19       1.0  0.8550485235842586  0.49222134835496684  0.785779325468809  1.0000
  C   C20       1.0  0.15525220323248587  0.5560056312392163  0.21942337641096535  1.0000
  C   C21       1.0  0.9093057663258431  0.4401030140820836  0.947915309072144  1.0000
  C   C22       1.0  0.11030173499581508  0.6355994520630046  0.0631287921889765  1.0000
  C   C23       1.0  0.9528187283203238  0.45252237562027625  0.8514515159508349  1.0000
  C   C24       1.0  0.06229309393273039  0.6093914255284005  0.1570545962799628  1.0000
  C   C25       1.0  0.7175108135185297  0.5210745365304844  0.8183172618838909  1.0000
  C   C26       1.0  0.2946369627818727  0.5328067857533297  0.1870160228330988  1.0000
  C   C27       1.0  0.6715714282640945  0.5136233025840297  0.9174402047586625  1.0000
  C   C28       1.0  0.3459890488515995  0.5566821476446149  0.0907884853133325  1.0000
  C   C29       1.0  0.7701934172038846  0.47066872069583326  0.9830536036959003  1.0000
  C   C30       1.0  0.250013132519129  0.6074472349505058  0.027249834180643997  1.0000
  C   C31       1.0  0.5299310204780027  0.5457695638325999  0.9544511428071728  1.0000
  C   C32       1.0  0.4895465709134256  0.5296235179067492  0.054335210241873697  1.0000
  C   C33       1.0  0.6259356750481331  0.681731669886787  0.3710887029296258  1.0000
  C   C34       1.0  0.3729085077318359  0.329656885450099  0.6319479249005154  1.0000
  N   N1        1.0  0.36067204517366497  0.5181598518305534  0.5415151046262991  1.0000
  N   N2        1.0  0.6369939876074896  0.49226624361056537  0.46020691297704985  1.0000
  O   O1        1.0  0.11245400063655346  0.32388782642308184  0.5172634287595129  1.0000
  O   O2        1.0  0.8753395064063908  0.6859452763512192  0.48974387764474875  1.0000
  O   O3        1.0  0.880925245214229  0.3154314474064178  0.476020627080885  1.0000
  O   O4        1.0  0.1138882432740829  0.6949157849388286  0.5115733860540104  1.0000
  O   O5        1.0  0.03628481905480635  0.5152056019664001  0.6611127703569364  1.0000
  O   O6        1.0  0.9681309373657571  0.5166129743251416  0.33875645692302203  1.0000
  O   O7        1.0  0.8061032993194955  0.49262931479506017  0.6186896342004218  1.0000
  O   O8        1.0  0.19737810508518547  0.5100986422499998  0.3822852381185696  1.0000
  O   O9        1.0  0.7074776289922937  0.6549774050959696  0.3031559363380509  1.0000
  O   O10       1.0  0.2893870403206833  0.35612350791356556  0.6987619348980801  1.0000
