data_image0
_chemical_formula_structural       Ba4H32C16O32
_chemical_formula_sum              "Ba4 H32 C16 O32"
_cell_length_a       6.512043486513
_cell_length_b       8.052840064000451
_cell_length_c       16.286546928193466
_cell_angle_alpha    89.99998459988004
_cell_angle_beta     95.25425142804293
_cell_angle_gamma    89.99996643828226

_space_group_name_H-M_alt    "P 1"
_space_group_IT_number       1

loop_
  _space_group_symop_operation_xyz
  'x, y, z'

loop_
  _atom_site_type_symbol
  _atom_site_label
  _atom_site_symmetry_multiplicity
  _atom_site_fract_x
  _atom_site_fract_y
  _atom_site_fract_z
  _atom_site_occupancy
  Ba  Ba1       1.0  0.9968163179031323  0.24501514539405625  0.14458353082834205  1.0000
  Ba  Ba2       1.0  0.0031844867528220996  0.7450165636225491  0.35541608952476617  1.0000
  Ba  Ba3       1.0  0.0031845721593839  0.7549831005664344  0.8554154975931494  1.0000
  Ba  Ba4       1.0  0.9968148582406116  0.2549841659338341  0.6445841097377067  1.0000
  H   H1        1.0  0.5496066357716742  0.723528379002957  0.2931567483296646  1.0000
  H   H2        1.0  0.45039418517384894  0.22352718777691646  0.2068428755340576  1.0000
  H   H3        1.0  0.45039271070773884  0.2764735923514934  0.7068428369837247  1.0000
  H   H4        1.0  0.5496067004293225  0.776471058183084  0.793157994734379  1.0000
  H   H5        1.0  0.9269069729723326  0.6440272014224177  0.08078315091427156  1.0000
  H   H6        1.0  0.07309236614529618  0.14402731854404038  0.4192164288810572  1.0000
  H   H7        1.0  0.0730923720215699  0.3559722863360405  0.9192170483483009  1.0000
  H   H8        1.0  0.9269054367528965  0.8559734110127266  0.580783713324635  1.0000
  H   H9        1.0  0.2800151675027251  0.050531173876692  0.0008095908522562941  1.0000
  H   H10       1.0  0.7199842424920178  0.5505309324775924  0.49919000421800747  1.0000
  H   H11       1.0  0.7199841789776258  0.9494683138819366  0.999189994461339  1.0000
  H   H12       1.0  0.2800151039883403  0.4494685552810366  0.5008095810955878  1.0000
  H   H13       1.0  0.4207776914044317  0.026850032400787396  0.08243114737307165  1.0000
  H   H14       1.0  0.5792232801240472  0.5268499014813416  0.4175678946738869  1.0000
  H   H15       1.0  0.5792231986580916  0.9731482135597033  0.9175678810484197  1.0000
  H   H16       1.0  0.4207776084510826  0.4731508280748145  0.5824317476963827  1.0000
  H   H17       1.0  0.8308083173960199  0.16030945129624294  0.9493023455326219  1.0000
  H   H18       1.0  0.1691927268687579  0.6603109527449361  0.5506973343222723  1.0000
  H   H19       1.0  0.16919411476173707  0.8396887946638713  0.05069673994564989  1.0000
  H   H20       1.0  0.8308066196111241  0.3396897768116034  0.4493022509912165  1.0000
  H   H21       1.0  0.7941522210571961  0.35846191248869974  0.9455704928325159  1.0000
  H   H22       1.0  0.205847132383937  0.8584646362965883  0.5544284836433773  1.0000
  H   H23       1.0  0.20584712839700353  0.6415350916744273  0.05442786458331029  1.0000
  H   H24       1.0  0.7941522126094965  0.1415360932597878  0.4455717156190956  1.0000
  H   H25       1.0  0.43912012827172475  0.7826107001483463  0.16676165988609162  1.0000
  H   H26       1.0  0.5608806478850211  0.28260938901587446  0.33323795432507086  1.0000
  H   H27       1.0  0.5608807603033981  0.21739002940780947  0.8332379824841778  1.0000
  H   H28       1.0  0.43911869562243305  0.7173900987424205  0.6667628588864857  1.0000
  H   H29       1.0  0.5847730711237631  0.6670340816319964  0.047747409838336786  1.0000
  H   H30       1.0  0.4152262505529975  0.16703401827087555  0.4522521661982636  1.0000
  H   H31       1.0  0.41522781893875305  0.3329641643284944  0.9522516185831544  1.0000
  H   H32       1.0  0.584771550858747  0.8329667112857208  0.5477485899564127  1.0000
  C   C1        1.0  0.7379236020970482  0.8925234051521969  0.1634016514567022  1.0000
  C   C2        1.0  0.2620755516157232  0.39252099269531726  0.33659665984283266  1.0000
  C   C3        1.0  0.2620757473552686  0.10747856620258738  0.8365967059587259  1.0000
  C   C4        1.0  0.737920710674615  0.6074772532661542  0.6634028113572936  1.0000
  C   C5        1.0  0.600934952393267  0.7409086015735724  0.17606988071444352  1.0000
  C   C6        1.0  0.39906739747247144  0.24090613064016247  0.3239297973666736  1.0000
  C   C7        1.0  0.3990674782761587  0.25909461157803537  0.8239298187124076  1.0000
  C   C8        1.0  0.6009334881302237  0.7590933571177559  0.6760710729016636  1.0000
  C   C9        1.0  0.6362036709223347  0.6119950861158258  0.10818700446170475  1.0000
  C   C10       1.0  0.3637972330873395  0.11199383762566839  0.3918132515727492  1.0000
  C   C11       1.0  0.3637972146803605  0.38800440164209243  0.8918138658066322  1.0000
  C   C12       1.0  0.6362005683248667  0.8880056501330101  0.6081875045820265  1.0000
  C   C13       1.0  0.5012768641436195  0.4603939416403051  0.12154306887742188  1.0000
  C   C14       1.0  0.4987237742672264  0.9603926280750626  0.37845774418639155  1.0000
  C   C15       1.0  0.4987255635533783  0.5396080297130579  0.8784578584474898  1.0000
  C   C16       1.0  0.5012740271449871  0.0396068596836159  0.6215430119683841  1.0000
  O   O1        1.0  0.6862895257496362  0.9828294623584525  0.09973100501419906  1.0000
  O   O2        1.0  0.3137080174086933  0.4828282332130982  0.4002672344747109  1.0000
  O   O3        1.0  0.31370828160790853  0.0171712671987976  0.900267295344541  1.0000
  O   O4        1.0  0.6862867042723836  0.517171254546838  0.5997315657195512  1.0000
  O   O5        1.0  0.8934437162776591  0.9220396495143176  0.21318236013342318  1.0000
  O   O6        1.0  0.10655541208759438  0.4220348540126224  0.2868171742420599  1.0000
  O   O7        1.0  0.10655563020034721  0.07796604723388609  0.7868172251796605  1.0000
  O   O8        1.0  0.8934423922989295  0.5779609083526367  0.7131823540150601  1.0000
  O   O9        1.0  0.6412728605840812  0.6664466426582791  0.2547402132646467  1.0000
  O   O10       1.0  0.3587326284343533  0.1664417492238002  0.245260205044424  1.0000
  O   O11       1.0  0.35873111069366825  0.3335578122906924  0.7452601571678625  1.0000
  O   O12       1.0  0.6412713398737894  0.8335540131394409  0.7547413932867639  1.0000
  O   O13       1.0  0.8455153386746163  0.5630023822773184  0.11148175171789625  1.0000
  O   O14       1.0  0.15448560396114172  0.0630024769940221  0.38851789837163136  1.0000
  O   O15       1.0  0.15448554841453438  0.4369971054807634  0.8885185046014565  1.0000
  O   O16       1.0  0.8455121989370509  0.9369982525627378  0.6114822438340607  1.0000
  O   O17       1.0  0.5893978889442764  0.33107431939235704  0.15240667601463534  1.0000
  O   O18       1.0  0.4106028489860094  0.8310755478123183  0.3475935442275641  1.0000
  O   O19       1.0  0.4106045417275084  0.6689226847696687  0.84759302341272  1.0000
  O   O20       1.0  0.5893949539117145  0.16892642354235926  0.6524065979780287  1.0000
  O   O21       1.0  0.30845069381194884  0.4751055724482782  0.10273269285206507  1.0000
  O   O22       1.0  0.691549936418852  0.9751053988595116  0.39726688991017756  1.0000
  O   O23       1.0  0.691550194763181  0.5248951571078847  0.8972669495182044  1.0000
  O   O24       1.0  0.30844786647933375  0.024895330697248096  0.6027332522955147  1.0000
  O   O25       1.0  0.2726938365089566  0.03990385291421461  0.06146939087865627  1.0000
  O   O26       1.0  0.7273071236373311  0.5399036403293139  0.4385302629846206  1.0000
  O   O27       1.0  0.7273070520661734  0.9600968766419483  0.9385302514916133  1.0000
  O   O28       1.0  0.2726937634518194  0.46009584742876813  0.5614699933347324  1.0000
  O   O29       1.0  0.8893774157230256  0.2687481930137138  0.9697924733867676  1.0000
  O   O30       1.0  0.1106235463375356  0.7687484914602222  0.5302071887520583  1.0000
  O   O31       1.0  0.11062347433949779  0.7312500529467768  0.030206555034723685  1.0000
  O   O32       1.0  0.8893773407516149  0.23125099629785945  0.4697930675672948  1.0000
