data_image0
_chemical_formula_structural       Cd2H12C20I4N4Cl8
_chemical_formula_sum              "Cd2 H12 C20 I4 N4 Cl8"
_cell_length_a       4.111308473046884
_cell_length_b       14.770517140448304
_cell_length_c       14.770468807729184
_cell_angle_alpha    88.88658875843649
_cell_angle_beta     82.00576459897816
_cell_angle_gamma    82.00573479990975

_space_group_name_H-M_alt    "P 1"
_space_group_IT_number       1

loop_
  _space_group_symop_operation_xyz
  'x, y, z'

loop_
  _atom_site_type_symbol
  _atom_site_label
  _atom_site_symmetry_multiplicity
  _atom_site_fract_x
  _atom_site_fract_y
  _atom_site_fract_z
  _atom_site_occupancy
  Cd  Cd1       1.0  0.6412643758965476  0.9999704855052016  0.9999698223650172  1.0000
  Cd  Cd2       1.0  0.39183100223851125  0.50004523653611  0.5000456038112305  1.0000
  H   H1        1.0  0.51071864560258  0.2214254697399269  0.9795862447547209  1.0000
  H   H2        1.0  0.7123122304078034  0.7785056653423087  0.020325083807705403  1.0000
  H   H3        1.0  0.48261012085717425  0.479693964482081  0.278580705220527  1.0000
  H   H4        1.0  0.24047352963121668  0.5204282255144151  0.7215398396118007  1.0000
  H   H5        1.0  0.510706162874321  0.9795879698430169  0.22142839034638945  1.0000
  H   H6        1.0  0.7123158869242373  0.020329053076764636  0.7784993468642583  1.0000
  H   H7        1.0  0.4826028522789655  0.27858209592299243  0.4796998585500277  1.0000
  H   H8        1.0  0.240471951604832  0.7215406753288178  0.5204323086193199  1.0000
  H   H9        1.0  0.33397503936534884  0.2958807759022478  0.7039433070859289  1.0000
  H   H10       1.0  0.33396891403770473  0.7039500036493962  0.29588396019284596  1.0000
  H   H11       1.0  0.3801682593024865  0.20409863315970977  0.2040952466827051  1.0000
  H   H12       1.0  0.7883521265960947  0.7960311543439647  0.7960403341188282  1.0000
  C   C1        1.0  0.51448316697536  0.2046232226587038  0.9078633413295593  1.0000
  C   C2        1.0  0.6273952479280566  0.7952646747363518  0.0920661362376478  1.0000
  C   C3        1.0  0.4700585915577805  0.4079335933811096  0.29532593348884023  1.0000
  C   C4        1.0  0.17278444358836942  0.5921914027798751  0.7047833716817068  1.0000
  C   C5        1.0  0.5144677345133389  0.9078706757956496  0.20462385153683735  1.0000
  C   C6        1.0  0.6274276978997406  0.09206410668033985  0.7952563997874549  1.0000
  C   C7        1.0  0.47005006774851676  0.2953278242725689  0.40793507451110145  1.0000
  C   C8        1.0  0.172807068023971  0.7047840118627705  0.5921920069000849  1.0000
  C   C9        1.0  0.4146017907080268  0.270618690098047  0.8446742627651886  1.0000
  C   C10       1.0  0.5303220317841447  0.7292252023393858  0.15520015728525044  1.0000
  C   C11       1.0  0.43610440667170997  0.3447859588834418  0.22931925977590592  1.0000
  C   C12       1.0  0.010085551489787134  0.6553511695577968  0.7708204486583768  1.0000
  C   C13       1.0  0.4145790514112949  0.8446777605141095  0.2706243717915342  1.0000
  C   C14       1.0  0.530341505308819  0.15519910584045965  0.7292151794916961  1.0000
  C   C15       1.0  0.4360980893556104  0.22932251905672277  0.3447814895396776  1.0000
  C   C16       1.0  0.01009324922796414  0.7708194439804642  0.6553506982968929  1.0000
  C   C17       1.0  0.41789708083552335  0.24596361196969244  0.753870308960515  1.0000
  C   C18       1.0  0.417865149016862  0.7538776827038093  0.24597132291459192  1.0000
  C   C19       1.0  0.4146673390122261  0.253993534267245  0.2539971344254113  1.0000
  C   C20       1.0  0.9224633255021287  0.7461520835562042  0.7461596572226057  1.0000
  I   I1        1.0  0.23174577508880367  0.8969776526760427  0.8969767573611095  1.0000
  I   I2        1.0  0.02523047408075026  0.10300505721034635  0.1030020233785578  1.0000
  I   I3        1.0  0.8793119127902786  0.3970033140185267  0.60294259124678  1.0000
  I   I4        1.0  0.8793139009988805  0.6029418485125576  0.3970026546713754  1.0000
  N   N1        1.0  0.6138322186443687  0.11738047248510955  0.8825132967197576  1.0000
  N   N2        1.0  0.6138139693685571  0.8825174143648057  0.11738099793117843  1.0000
  N   N3        1.0  0.4819030093687005  0.38258966404797695  0.3825906409099602  1.0000
  N   N4        1.0  0.24632320777138242  0.6175070775329418  0.6175087741192727  1.0000
  Cl  Cl1       1.0  0.280697119492693  0.3821110896949449  0.8790638256207757  1.0000
  Cl  Cl2       1.0  0.5431541795330123  0.6176955165324358  0.120735273687167  1.0000
  Cl  Cl3       1.0  0.41325692952600684  0.3792631966565026  0.11784718367574243  1.0000
  Cl  Cl4       1.0  0.9110617223074728  0.6209164928400812  0.882345000505005  1.0000
  Cl  Cl5       1.0  0.28068577549392165  0.8790667005221381  0.3821150117173246  1.0000
  Cl  Cl6       1.0  0.5431736232830813  0.12073255371693394  0.6176875063576261  1.0000
  Cl  Cl7       1.0  0.41324602546842465  0.11783886216676367  0.3792647535061846  1.0000
  Cl  Cl8       1.0  0.9110598376649718  0.8823346495946752  0.6209260634158085  1.0000
