data_image0
_chemical_formula_structural       Co2H32C44N8Cl4O8
_chemical_formula_sum              "Co2 H32 C44 N8 Cl4 O8"
_cell_length_a       9.053156502097092
_cell_length_b       9.394115687941376
_cell_length_c       13.807467421843732
_cell_angle_alpha    85.8218839997269
_cell_angle_beta     83.66650976936265
_cell_angle_gamma    65.19855123555438

_space_group_name_H-M_alt    "P 1"
_space_group_IT_number       1

loop_
  _space_group_symop_operation_xyz
  'x, y, z'

loop_
  _atom_site_type_symbol
  _atom_site_label
  _atom_site_symmetry_multiplicity
  _atom_site_fract_x
  _atom_site_fract_y
  _atom_site_fract_z
  _atom_site_occupancy
  Co  Co1       1.0  0.2685620342257238  0.23456641654967567  0.09135219994233523  1.0000
  Co  Co2       1.0  0.7314378899433008  0.7654321211435472  0.9086472938166853  1.0000
  H   H1        1.0  0.9696567520249886  0.3172938793718671  0.816183631158758  1.0000
  H   H2        1.0  0.030341044304421378  0.6827070032221556  0.18381662430653029  1.0000
  H   H3        1.0  0.4428748819171134  0.9742875456747128  0.600417575486347  1.0000
  H   H4        1.0  0.5571245285622767  0.025712161897729402  0.39958479492214855  1.0000
  H   H5        1.0  0.41603258753051636  0.44277883513395  0.19959690343709727  1.0000
  H   H6        1.0  0.5839672346575925  0.5572173523473863  0.8004056089405511  1.0000
  H   H7        1.0  0.31127110686014703  0.8543902206592833  0.4644904021748105  1.0000
  H   H8        1.0  0.6887278949526134  0.145613008645924  0.5355103774739833  1.0000
  H   H9        1.0  0.07103512246165883  0.41017431857815717  0.27527321414805084  1.0000
  H   H10       1.0  0.9289660117538574  0.5898265682887497  0.7247246306086341  1.0000
  H   H11       1.0  0.9984491978485368  0.0766556512437404  0.12045584373611724  1.0000
  H   H12       1.0  0.0015529485358100603  0.9233428876564106  0.8795434916743833  1.0000
  H   H13       1.0  0.21767842796804615  0.792038823842546  0.9802942949597341  1.0000
  H   H14       1.0  0.7823208926987776  0.2079585400846682  0.019705298905172693  1.0000
  H   H15       1.0  0.3217263572096413  0.8678728360294271  0.12004057321572502  1.0000
  H   H16       1.0  0.6782719512883588  0.13212687586455016  0.8799575299953661  1.0000
  H   H17       1.0  0.520340249670717  0.7289171243603645  0.08415740361059686  1.0000
  H   H18       1.0  0.4796596729772703  0.2710814125120251  0.9158428145436946  1.0000
  H   H19       1.0  0.13898392858480693  0.5374503625725495  0.9578495362544007  1.0000
  H   H20       1.0  0.8610157977065571  0.46254347798023326  0.04215309716076381  1.0000
  H   H21       1.0  0.23630389713595423  0.9106914946834054  0.29354583123951994  1.0000
  H   H22       1.0  0.7636988512295417  0.0893082171619213  0.7064541284603723  1.0000
  H   H23       1.0  0.6752725711530021  0.5148836033635646  0.19996097417070766  1.0000
  H   H24       1.0  0.32472573734499827  0.4851161085304129  0.8000371290403836  1.0000
  H   H25       1.0  0.5633808658458579  0.6234476636190249  0.5045483069765241  1.0000
  H   H26       1.0  0.43661975924315743  0.3765543955896007  0.495450241243809  1.0000
  H   H27       1.0  0.7586805231998568  0.17777198811523218  0.2767081793584013  1.0000
  H   H28       1.0  0.24131727312955328  0.8222288944787906  0.7232920761068871  1.0000
  H   H29       1.0  0.8662813089878654  0.45153990600120136  0.4181585670780664  1.0000
  H   H30       1.0  0.13371820347244082  0.54846215178312  0.5818407847118012  1.0000
  H   H31       1.0  0.7561051503908731  0.334617644397838  0.4355846616321913  1.0000
  H   H32       1.0  0.24389436511152945  0.6653844150281572  0.5644132413671273  1.0000
  C   C1        1.0  0.06642355956186212  0.2568272569087284  0.6682959485846852  1.0000
  C   C2        1.0  0.9335747428519596  0.7431724517019092  0.3317050522075108  1.0000
  C   C3        1.0  0.21345774863378603  0.12503931772518231  0.9194806217251641  1.0000
  C   C4        1.0  0.7865396390289945  0.8749650866016055  0.0805180429804224  1.0000
  C   C5        1.0  0.20035378242187823  0.16171777080548816  0.6063440089857581  1.0000
  C   C6        1.0  0.7996429027998818  0.8382831111850705  0.39365632565379377  1.0000
  C   C7        1.0  0.3463449231763605  0.034787860219090284  0.7480487363261121  1.0000
  C   C8        1.0  0.6536568084571712  0.9652141971304928  0.2519519059057914  1.0000
  C   C9        1.0  0.07387171703961576  0.2419391138609085  0.7690950507585728  1.0000
  C   C10       1.0  0.926124966661092  0.7580617673088169  0.23090600827625005  1.0000
  C   C11       1.0  0.2137093930753977  0.13300528770481174  0.8097803907513497  1.0000
  C   C12       1.0  0.7862884047750567  0.866995595710044  0.19021914031866777  1.0000
  C   C13       1.0  0.33784994890541503  0.0499550672641291  0.6469977449952894  1.0000
  C   C14       1.0  0.6621519730005547  0.9500516831217423  0.3530033795568529  1.0000
  C   C15       1.0  0.4995152477790797  0.9121720235366764  0.7858015516782191  1.0000
  C   C16       1.0  0.500484673347856  0.0878265125148801  0.21419939087135736  1.0000
  C   C17       1.0  0.3529864077563902  0.5016754427347151  0.13627483428174975  1.0000
  C   C18       1.0  0.647013511849508  0.49832309249600826  0.8637268326631047  1.0000
  C   C19       1.0  0.3894468245442936  0.7770147763597066  0.406999806433497  1.0000
  C   C20       1.0  0.6105537975026323  0.2229872812072458  0.5930001905773923  1.0000
  C   C21       1.0  0.018616613919021998  0.3348746428992584  0.25247161514113975  1.0000
  C   C22       1.0  0.9813845172543979  0.665126242325982  0.7475276784061011  1.0000
  C   C23       1.0  0.9780515170682591  0.1601484341930828  0.17619407405404533  1.0000
  C   C24       1.0  0.02194688124230036  0.8398536213461155  0.8238068057006347  1.0000
  C   C25       1.0  0.4498612639459196  0.714148408782812  0.2362652118933539  1.0000
  C   C26       1.0  0.550138246993349  0.28585364818068365  0.7637348642917846  1.0000
  C   C27       1.0  0.24681059844034792  0.6809004411291824  0.0200073991905185  1.0000
  C   C28       1.0  0.7531864954480342  0.31909691912860444  0.9799945262087351  1.0000
  C   C29       1.0  0.4092574160471616  0.7464356945294311  0.13197006454813484  1.0000
  C   C30       1.0  0.5907402874276003  0.253562842777697  0.8680288631641206  1.0000
  C   C31       1.0  0.6349373879930199  0.5512141321671464  0.35505554510223203  1.0000
  C   C32       1.0  0.36506596539572195  0.448786754265022  0.644943590096496  1.0000
  C   C33       1.0  0.20910149872218387  0.5558321498600591  0.010446677662074015  1.0000
  C   C34       1.0  0.7908988341134702  0.44416286610039873  0.9895544068566482  1.0000
  C   C35       1.0  0.34766465497855137  0.809695897535846  0.3108838900256147  1.0000
  C   C36       1.0  0.6523347570218831  0.19030381085742218  0.6891177559876028  1.0000
  C   C37       1.0  0.5943144198685105  0.5865439656645605  0.25905262850096034  1.0000
  C   C38       1.0  0.40568610780271536  0.4134557457946784  0.7409467651521738  1.0000
  C   C39       1.0  0.5312823102298837  0.6480308973335552  0.42935567007830866  1.0000
  C   C40       1.0  0.46871831181703527  0.35197116023340397  0.5706443269325734  1.0000
  C   C41       1.0  0.85922683601693  0.20940120123835726  0.2527008194177683  1.0000
  C   C42       1.0  0.14077327538244325  0.7906020278494879  0.7473006054520399  1.0000
  C   C43       1.0  0.7880058439221997  0.41229376674355933  0.3823166294632473  1.0000
  C   C44       1.0  0.21199690748538574  0.5877059467434335  0.6176818814460889  1.0000
  N   N1        1.0  0.07652980067906873  0.24001045332230572  0.1770341183423555  1.0000
  N   N2        1.0  0.9234707254711126  0.7599892573160928  0.8229659997060497  1.0000
  N   N3        1.0  0.8871359106113915  0.3194015718030201  0.3002716595851141  1.0000
  N   N4        1.0  0.1128647114355276  0.6806004857639393  0.6997283374257678  1.0000
  N   N5        1.0  0.2760227369728624  0.44445563492468654  0.08328970651610494  1.0000
  N   N6        1.0  0.7239782922196413  0.5555429000886745  0.9167126056497639  1.0000
  N   N7        1.0  0.33735828317259114  0.644832959018153  0.09977226557870014  1.0000
  N   N8        1.0  0.6626394157390294  0.3551655758264829  0.9002288353193892  1.0000
  Cl  Cl1       1.0  0.892633295680561  0.3965907788581617  0.6217308406620106  1.0000
  Cl  Cl2       1.0  0.10736500673326084  0.6034089297524828  0.37827016013019243  1.0000
  Cl  Cl3       1.0  0.2007743060515566  0.18543055432564867  0.4810430349988765  1.0000
  Cl  Cl4       1.0  0.7992245054887736  0.8145679819432842  0.5189572623296785  1.0000
  O   O1        1.0  0.5295447456087317  0.9346619704956891  0.8717446528568048  1.0000
  O   O2        1.0  0.47045739773351863  0.06533656676279521  0.1282561313442514  1.0000
  O   O3        1.0  0.5895596187338015  0.7969921377071073  0.7348058480008747  1.0000
  O   O4        1.0  0.41044151396066303  0.20300874833897348  0.26519272115108816  1.0000
  O   O5        1.0  0.1811335652645099  0.023738188253496197  0.9686979527108408  1.0000
  O   O6        1.0  0.8188687698712229  0.9762650428621028  0.03130258941517641  1.0000
  O   O7        1.0  0.23988730092856506  0.23635210058882444  0.9534974198449648  1.0000
  O   O8        1.0  0.7601095806498038  0.7636534777213412  0.0465004995337139  1.0000
