data_image0
_chemical_formula_structural       Zn8H50C90N4O34
_chemical_formula_sum              "Zn8 H50 C90 N4 O34"
_cell_length_a       18.28285581437738
_cell_length_b       18.236767350519422
_cell_length_c       18.26304696796776
_cell_angle_alpha    60.34852165184473
_cell_angle_beta     60.337265979895896
_cell_angle_gamma    60.13745109602626

_space_group_name_H-M_alt    "P 1"
_space_group_IT_number       1

loop_
  _space_group_symop_operation_xyz
  'x, y, z'

loop_
  _atom_site_type_symbol
  _atom_site_label
  _atom_site_symmetry_multiplicity
  _atom_site_fract_x
  _atom_site_fract_y
  _atom_site_fract_z
  _atom_site_occupancy
  Zn  Zn1       1.0  0.6193955585320624  0.7973915483902658  0.7943074810899873  1.0000
  Zn  Zn2       1.0  0.3806048106611115  0.20260967822838444  0.20569249297694361  1.0000
  Zn  Zn3       1.0  0.7930174467152682  0.6214233240664554  0.7926833547585229  1.0000
  Zn  Zn4       1.0  0.20698188875931584  0.378577232231784  0.20731691369316244  1.0000
  Zn  Zn5       1.0  0.7952511975931671  0.7991075364637013  0.7883436668334483  1.0000
  Zn  Zn6       1.0  0.2047477832277025  0.20089033217295343  0.21165974129863221  1.0000
  Zn  Zn7       1.0  0.7917561232026314  0.797399364491092  0.6165854572356011  1.0000
  Zn  Zn8       1.0  0.20824078482709754  0.20259717589974  0.3834152508884826  1.0000
  H   H1        1.0  0.4024176738468412  0.14109810318912247  0.5307307688472136  1.0000
  H   H2        1.0  0.5975806305861299  0.858901776591196  0.4692714383779727  1.0000
  H   H3        1.0  0.5987825607312517  0.033527027046083895  0.34329792781610985  1.0000
  H   H4        1.0  0.40121448481793454  0.9664728521064347  0.656704356201395  1.0000
  H   H5        1.0  0.5277155959755788  0.14271756950056158  0.9242433636977764  1.0000
  H   H6        1.0  0.47228333745312057  0.8572823116265764  0.07575853106646253  1.0000
  H   H7        1.0  0.47158405369997075  0.07323211444208512  0.8579615422850679  1.0000
  H   H8        1.0  0.5284144741135393  0.9267670997772939  0.14203978627338634  1.0000
  H   H9        1.0  0.3435146898493572  0.027001628454613104  0.02924600444390523  1.0000
  H   H10       1.0  0.6564836136912862  0.9729982533915446  0.9707556546516966  1.0000
  H   H11       1.0  0.12556006885191104  0.9366691238635809  0.3848908549082422  1.0000
  H   H12       1.0  0.8744331472998041  0.06333277829102  0.6151068573408764  1.0000
  H   H13       1.0  0.9423822819348333  0.004262667742338501  0.400952897012601  1.0000
  H   H14       1.0  0.057608193068773544  0.995739898717595  0.5990458474878934  1.0000
  H   H15       1.0  0.9215078185268696  0.15586343843353487  0.427195423550259  1.0000
  H   H16       1.0  0.0784830594149497  0.8441398011316609  0.5728022427672667  1.0000
  H   H17       1.0  0.11745382131498161  0.3933744716627671  0.8499932690370284  1.0000
  H   H18       1.0  0.8825150995703552  0.6065985878371977  0.15002354689362132  1.0000
  H   H19       1.0  0.1054438643356903  0.5434241276518393  0.7321941941568751  1.0000
  H   H20       1.0  0.8946071812342496  0.45652369688435357  0.2677795328560961  1.0000
  H   H21       1.0  0.06004872261191712  0.5816525668052321  0.6067907659621667  1.0000
  H   H22       1.0  0.9400031680002596  0.41830397594748087  0.3931771613242746  1.0000
  H   H23       1.0  0.03790648050518545  0.3205019355484992  0.7155639065671905  1.0000
  H   H24       1.0  0.9619921636037037  0.6795097939822553  0.2844818780589189  1.0000
  H   H25       1.0  0.08390117525698322  0.2817447734972375  0.8410806195830887  1.0000
  H   H26       1.0  0.9159885834923361  0.718261561135847  0.15897605452577998  1.0000
  H   H27       1.0  0.12063145260712822  0.3594394755285677  0.5423203583914215  1.0000
  H   H28       1.0  0.8793495876559734  0.640553704825109  0.4576832965855359  1.0000
  H   H29       1.0  0.02574041902696682  0.9202387763602999  0.7666097251253702  1.0000
  H   H30       1.0  0.9743141505742301  0.07973978244007898  0.23337397684428385  1.0000
  H   H31       1.0  0.13338847549159286  0.7951648841582185  0.7051137252016842  1.0000
  H   H32       1.0  0.866612473117847  0.20481772768609124  0.29485568827191594  1.0000
  H   H33       1.0  0.11973289123216097  0.6432933161453535  0.7897790532338006  1.0000
  H   H34       1.0  0.8802417608188691  0.3567019809832245  0.2101949695985326  1.0000
  H   H35       1.0  0.8928256335592196  0.7404025027687736  0.9976534582793726  1.0000
  H   H36       1.0  0.10723307954533819  0.2595899855600905  0.0023618613850615836  1.0000
  H   H37       1.0  0.9058799496956599  0.8920915078322198  0.913817806977093  1.0000
  H   H38       1.0  0.0942014128044804  0.10789165068317169  0.0861897764327395  1.0000
  H   H39       1.0  0.09017743171011718  0.5550768415631779  0.013629025815553983  1.0000
  H   H40       1.0  0.9098242464359956  0.4449223669952857  0.9863740292156462  1.0000
  H   H41       1.0  0.27367862736199566  0.9452791616317384  0.8420854965853124  1.0000
  H   H42       1.0  0.7263178410452653  0.054718693354295994  0.15792135390891085  1.0000
  H   H43       1.0  0.3901337167650496  0.7238963374442446  0.03921871653686541  1.0000
  H   H44       1.0  0.6098636058031345  0.2761008491959984  0.9607880390888396  1.0000
  H   H45       1.0  0.4088993030473489  0.6813671393788495  0.8170975417799367  1.0000
  H   H46       1.0  0.591103004986813  0.31863206846060177  0.18290574891990016  1.0000
  H   H47       1.0  0.32433701131999026  0.8418841445701729  0.7594634928002504  1.0000
  H   H48       1.0  0.675662150843209  0.15811505860101246  0.24054081207475508  1.0000
  H   H49       1.0  0.3359130799565547  0.5612665438335541  0.03787742590943556  1.0000
  H   H50       1.0  0.6640879665168457  0.4387326695755931  0.9621242971939663  1.0000
  C   C1        1.0  0.8906380640736132  0.6158588877487716  0.6073358159820399  1.0000
  C   C2        1.0  0.109349801250481  0.3841383303350554  0.39266192331834293  1.0000
  C   C3        1.0  0.6123096635653269  0.8895934109582411  0.8911901825486834  1.0000
  C   C4        1.0  0.3876905260701804  0.11040647699420701  0.10880999103448362  1.0000
  C   C5        1.0  0.6101554207345641  0.6138069719649125  0.885738836879213  1.0000
  C   C6        1.0  0.3898467059572681  0.38619090134000095  0.11426355707769179  1.0000
  C   C7        1.0  0.8841882329193849  0.8976758564078435  0.6036289043617131  1.0000
  C   C8        1.0  0.11580561490503531  0.10232604089607379  0.396370139815211  1.0000
  C   C9        1.0  0.89051373238307  0.6135625073955923  0.8854014822473316  1.0000
  C   C10       1.0  0.10948646171406298  0.38643737022767516  0.11460143198375054  1.0000
  C   C11       1.0  0.606693986081403  0.8895686968667179  0.6137527358196662  1.0000
  C   C12       1.0  0.3933026100297283  0.1104325196051832  0.386249661142557  1.0000
  C   C13       1.0  0.5503387438679824  0.041886071458961296  0.4864166874980425  1.0000
  C   C14       1.0  0.44965767268547546  0.9581138063467308  0.5135859089804171  1.0000
  C   C15       1.0  0.4452835280042748  0.07745975851641872  0.5181905890215359  1.0000
  C   C16       1.0  0.5547135175449116  0.9225401206360996  0.481811694995976  1.0000
  C   C17       1.0  0.45124116271134085  0.05317677727430949  0.4435587191369024  1.0000
  C   C18       1.0  0.5487556576726577  0.94682377157082  0.5564433472881729  1.0000
  C   C19       1.0  0.5554903819076885  0.0178968275818718  0.41277204434451414  1.0000
  C   C20       1.0  0.4445064384763101  0.9821037212632574  0.5872300220805611  1.0000
  C   C21       1.0  0.48339420903530333  0.0414552597298155  0.9217686028368774  1.0000
  C   C22       1.0  0.5166049477739348  0.958543955836383  0.07823241326062198  1.0000
  C   C23       1.0  0.5158635531984502  0.0788121642142769  0.9571791097118946  1.0000
  C   C24       1.0  0.48413623171418857  0.9211870547645731  0.042821045795072545  1.0000
  C   C25       1.0  0.44406274869142964  0.053229949486521384  0.05164356948814226  1.0000
  C   C26       1.0  0.5559364072254809  0.9467692681455092  0.9483568984797728  1.0000
  C   C27       1.0  0.4130218790754939  0.0151366197324734  0.015961435945747747  1.0000
  C   C28       1.0  0.5869772777337374  0.984862595833725  0.9840395801517515  1.0000
  C   C29       1.0  0.9683092390588968  0.002733038045349201  0.44444819862859897  1.0000
  C   C30       1.0  0.031683122039567045  0.9972695345208819  0.5555490603594606  1.0000
  C   C31       1.0  0.06901679384777276  0.9641559020945892  0.4364982368413945  1.0000
  C   C32       1.0  0.9309747121974468  0.03584734088326509  0.5634985688855919  1.0000
  C   C33       1.0  0.056937288850583904  0.047187696274747296  0.45274433122143876  1.0000
  C   C34       1.0  0.9430550722478802  0.9528148762914767  0.5472529277666137  1.0000
  C   C35       1.0  0.9553321315590184  0.08593306037974457  0.4603429307785161  1.0000
  C   C36       1.0  0.04466000437425785  0.9140701818790901  0.539654110617107  1.0000
  C   C37       1.0  0.09071512287471958  0.49428172323914055  0.7288140651589643  1.0000
  C   C38       1.0  0.9093099129714021  0.505676071344844  0.2711747722463753  1.0000
  C   C39       1.0  0.0646604090874945  0.516028951556727  0.6585732728971506  1.0000
  C   C40       1.0  0.9353643915824251  0.48393890134801865  0.3414090939281417  1.0000
  C   C41       1.0  0.045487925212363195  0.4537262888348508  0.6528369606118146  1.0000
  C   C42       1.0  0.9544918617163277  0.5462575125920567  0.3471702834971421  1.0000
  C   C43       1.0  0.05374665620274045  0.3689353935157057  0.718813322773208  1.0000
  C   C44       1.0  0.9461866722969744  0.6310630316001918  0.2812152380208772  1.0000
  C   C45       1.0  0.07930394201117953  0.34740796436351945  0.7894478065462636  1.0000
  C   C46       1.0  0.9206221602739859  0.6525857457852949  0.21058884436653333  1.0000
  C   C47       1.0  0.09790358417594554  0.4099627297906138  0.7946334242985246  1.0000
  C   C48       1.0  0.9020688345570987  0.5900130282366973  0.20537759338779424  1.0000
  C   C49       1.0  0.06638378301734349  0.42079060343410657  0.5251575160266241  1.0000
  C   C50       1.0  0.9335958170196509  0.5792012417572395  0.474845318999726  1.0000
  C   C51       1.0  0.0486938905744125  0.44346095466192276  0.4489480719883756  1.0000
  C   C52       1.0  0.9512877751151124  0.5565322353019158  0.551053078009289  1.0000
  C   C53       1.0  0.9806083495114848  0.5232983889758032  0.4228609503528631  1.0000
  C   C54       1.0  0.019371474798369075  0.47669278858875697  0.5771415541363324  1.0000
  C   C55       1.0  0.08034733417981937  0.7834911210786545  0.7691811934622662  1.0000
  C   C56       1.0  0.9196638372965752  0.21649480149640968  0.23079795163955197  1.0000
  C   C57       1.0  0.07284584759921847  0.6981477058098305  0.8166369771796766  1.0000
  C   C58       1.0  0.927150935502475  0.30184356389641215  0.18334229136502936  1.0000
  C   C59       1.0  0.005063997397925809  0.6820846932288163  0.8989208183868271  1.0000
  C   C60       1.0  0.9949461642572783  0.3179098691522456  0.10107319703634227  1.0000
  C   C61       1.0  0.9459169108139774  0.7524255202155528  0.9337480994398033  1.0000
  C   C62       1.0  0.054126091773461775  0.2475649983882349  0.06625626432165886  1.0000
  C   C63       1.0  0.9531739765201127  0.8377170319866776  0.8863798561009162  1.0000
  C   C64       1.0  0.04688763696212558  0.1622668123133053  0.11362184837764738  1.0000
  C   C65       1.0  0.020323844932299596  0.8534567920285951  0.8037755716691137  1.0000
  C   C66       1.0  0.9797199405264863  0.1465257605934838  0.19621260791938502  1.0000
  C   C67       1.0  0.05030183377184738  0.531445371449898  0.006901507252138067  1.0000
  C   C68       1.0  0.9497000668624695  0.4685531736134648  0.9931001209827381  1.0000
  C   C69       1.0  0.05193473677299213  0.44279222340351504  0.05638923202992883  1.0000
  C   C70       1.0  0.948068016237592  0.5572056574457206  0.9436112050772678  1.0000
  C   C71       1.0  0.0005777802867115271  0.40992483634687454  0.04989714831041423  1.0000
  C   C72       1.0  0.999425826884789  0.5900723761565699  0.9501031939282639  1.0000
  C   C73       1.0  0.3296886699911639  0.8385261819170963  0.9440353204831808  1.0000
  C   C74       1.0  0.6703084274118254  0.1614716744157576  0.05597121755008768  1.0000
  C   C75       1.0  0.376500199460331  0.7481703866963443  0.9779893446219743  1.0000
  C   C76       1.0  0.6234983802069821  0.25182680470337  0.02201623795224333  1.0000
  C   C77       1.0  0.40663028753073155  0.6911796505776309  0.9312426504717448  1.0000
  C   C78       1.0  0.593370536454458  0.3088202263266311  0.06876049942797362  1.0000
  C   C79       1.0  0.3862402510275231  0.7258433466250125  0.85323128315558  1.0000
  C   C80       1.0  0.6137605729576663  0.27415653027924947  0.146771866744139  1.0000
  C   C81       1.0  0.33865979966140713  0.8165496799051013  0.8206376134429118  1.0000
  C   C82       1.0  0.6613399914975133  0.18344952461290384  0.17936637897114588  1.0000
  C   C83       1.0  0.3104665268670815  0.8741932275471669  0.8655880497321742  1.0000
  C   C84       1.0  0.6895320536925524  0.12580396178671546  0.13441808097162777  1.0000
  C   C85       1.0  0.40835120665288116  0.5351624652381375  0.020585872253668997  1.0000
  C   C86       1.0  0.5916502445433807  0.4648374171446151  0.9794158689259262  1.0000
  C   C87       1.0  0.4491878884855962  0.4425814437154685  0.05545039986062505  1.0000
  C   C88       1.0  0.5508129346072651  0.5574184352546255  0.9445522019095094  1.0000
  C   C89       1.0  0.5429795113356803  0.40606643849437773  0.03462059044594651  1.0000
  C   C90       1.0  0.45702153424539216  0.5939327769806154  0.9653805845278637  1.0000
  N   N1        1.0  0.6005590279068401  0.09202095238471492  0.4739292242075449  1.0000
  N   N2        1.0  0.3994376147041336  0.9079782536625345  0.5260741379929357  1.0000
  N   N3        1.0  0.2995494161173794  0.8986332423291756  0.9927956763352624  1.0000
  N   N4        1.0  0.7004460194636196  0.101363940270609  0.007212016673300083  1.0000
  O   O1        1.0  0.7498120384718662  0.752964044914279  0.747257241596209  1.0000
  O   O2        1.0  0.25018603901126113  0.2470365086903215  0.2527436517773793  1.0000
  O   O3        1.0  0.8722944523290933  0.7000317374408453  0.5660054177704122  1.0000
  O   O4        1.0  0.1276883747828919  0.2999654843292774  0.4339909843104977  1.0000
  O   O5        1.0  0.5704194501002678  0.8632785178637972  0.8746466000627038  1.0000
  O   O6        1.0  0.4295808352119011  0.13671734304184474  0.12535714838572426  1.0000
  O   O7        1.0  0.6938869493163582  0.5726238542279629  0.8706596999226477  1.0000
  O   O8        1.0  0.3061151791601304  0.42737401494527916  0.12934379029342577  1.0000
  O   O9        1.0  0.8687554944490895  0.8703239377380784  0.6875141510826381  1.0000
  O   O10       1.0  0.13124199518419027  0.1296746164900568  0.31248473121264914  1.0000
  O   O11       1.0  0.8657386085850405  0.5717484209756093  0.8674207234179077  1.0000
  O   O12       1.0  0.13426993041399268  0.4282528396783718  0.1325708036199629  1.0000
  O   O13       1.0  0.6894659887575896  0.8591593709173609  0.5719962335346548  1.0000
  O   O14       1.0  0.31052957452727986  0.14084117316829037  0.42800700594190727  1.0000
  O   O15       1.0  0.8701437587858081  0.6980303171221112  0.8593767531769954  1.0000
  O   O16       1.0  0.12984786256726719  0.30196885336056317  0.14063568626611553  1.0000
  O   O17       1.0  0.5678174543382184  0.8770908041595009  0.6967736188663592  1.0000
  O   O18       1.0  0.4321795921032959  0.12290907292718599  0.3032292132807298  1.0000
  O   O19       1.0  0.5724774189499583  0.6980066499505353  0.855611200686326  1.0000
  O   O20       1.0  0.42752488105326597  0.3019925764814317  0.14438715684724454  1.0000
  O   O21       1.0  0.855330601196314  0.8809904581570509  0.5643569909551331  1.0000
  O   O22       1.0  0.14466306796276032  0.11901009841482592  0.43564280086761187  1.0000
  O   O23       1.0  0.8603651156912234  0.5772592145153794  0.6909565690206704  1.0000
  O   O24       1.0  0.1396336372874813  0.4227393300113889  0.3090449771302204  1.0000
  O   O25       1.0  0.6966646302501334  0.8715716676469754  0.8629592384394584  1.0000
  O   O26       1.0  0.3033339796597332  0.12843291641708282  0.13703721947832287  1.0000
  O   O27       1.0  0.6167268946919079  0.15091081647466348  0.400274808020292  1.0000
  O   O28       1.0  0.620097191247851  0.07433923088771617  0.5380973971601292  1.0000
  O   O29       1.0  0.3832710068028505  0.849088390200393  0.5997284773878702  1.0000
  O   O30       1.0  0.3798985963098858  0.9256606455711632  0.4619055117792853  1.0000
  O   O31       1.0  0.26254093201624323  0.979862784533907  0.9588309782110753  1.0000
  O   O32       1.0  0.31273143013243054  0.8648615498150534  0.06503120047549507  1.0000
  O   O33       1.0  0.6872650847746729  0.13513429474632943  0.9349766152569854  1.0000
  O   O34       1.0  0.7374538754613482  0.0201343946532191  0.04117757538802625  1.0000
