data_image0
_chemical_formula_structural       Zn8P8H48C34N16O24
_chemical_formula_sum              "Zn8 P8 H48 C34 N16 O24"
_cell_length_a       9.690069725565193
_cell_length_b       12.03933007504798
_cell_length_c       15.15562444363813
_cell_angle_alpha    69.69358830293115
_cell_angle_beta     71.33930560937783
_cell_angle_gamma    66.24194501001702

_space_group_name_H-M_alt    "P 1"
_space_group_IT_number       1

loop_
  _space_group_symop_operation_xyz
  'x, y, z'

loop_
  _atom_site_type_symbol
  _atom_site_label
  _atom_site_symmetry_multiplicity
  _atom_site_fract_x
  _atom_site_fract_y
  _atom_site_fract_z
  _atom_site_occupancy
  Zn  Zn1       1.0  0.09548854265498342  0.18672498440935212  0.3357474430615568  1.0000
  Zn  Zn2       1.0  0.618430550874507  0.3133486025837087  0.16403879435798532  1.0000
  Zn  Zn3       1.0  0.904510429556033  0.8132735111399543  0.6642539278659356  1.0000
  Zn  Zn4       1.0  0.38157168448993395  0.6866526608889814  0.8359598086631551  1.0000
  Zn  Zn5       1.0  0.4983633862724446  0.18174040917210735  0.46870021895215075  1.0000
  Zn  Zn6       1.0  0.14907206725924746  0.31817519488138407  0.031171449088738305  1.0000
  Zn  Zn7       1.0  0.5016354176955247  0.8182590414841826  0.5313018379744959  1.0000
  Zn  Zn8       1.0  0.8509308302649145  0.681826055281526  0.968826495842471  1.0000
  P   P1        1.0  0.4372714121916701  0.027428035890970606  0.3514169392777475  1.0000
  P   P2        1.0  0.8162944635894431  0.4724576837799647  0.14859510921635888  1.0000
  P   P3        1.0  0.5627285478526711  0.972572343252743  0.6485844874681846  1.0000
  P   P4        1.0  0.18370636297774465  0.5275454681386691  0.8514037691645484  1.0000
  P   P5        1.0  0.8136752439551244  0.11657057922289481  0.32233107076115175  1.0000
  P   P6        1.0  0.2528215580622443  0.38328536758668014  0.1774836755219837  1.0000
  P   P7        1.0  0.18632425829262897  0.8834325993152988  0.6776691237996174  1.0000
  P   P8        1.0  0.7471821698646861  0.6167149141594593  0.8225129253201473  1.0000
  H   H1        1.0  0.1487714704879081  0.3259857771243091  0.45550966147774835  1.0000
  H   H2        1.0  0.9307035060070703  0.1738508638179752  0.04416870640518772  1.0000
  H   H3        1.0  0.8512256351292679  0.6740174062654134  0.5444907526243554  1.0000
  H   H4        1.0  0.06929595940802333  0.8261513420743256  0.9558299247922053  1.0000
  H   H5        1.0  0.00986484204852183  0.30891775543511113  0.6494323452795641  1.0000
  H   H6        1.0  0.9686001081530266  0.1908342129105733  0.8503148236677377  1.0000
  H   H7        1.0  0.9901351656409858  0.6910797892363264  0.3505685589230795  1.0000
  H   H8        1.0  0.031400188377432275  0.809164256019166  0.14968523107989984  1.0000
  H   H9        1.0  0.8605367388778119  0.10503296633272899  0.5413157297807701  1.0000
  H   H10       1.0  0.5070948942124286  0.39501806584301136  0.9585189676927116  1.0000
  H   H11       1.0  0.13946355694005053  0.894968271142801  0.45868155732754456  1.0000
  H   H12       1.0  0.4929063533186946  0.6049813140352571  0.041479579509989144  1.0000
  H   H13       1.0  0.8891359038904766  0.1113021605067814  0.768802364157459  1.0000
  H   H14       1.0  0.7692754600748013  0.3887485373674481  0.7309404679794866  1.0000
  H   H15       1.0  0.11086410308644183  0.8886981527104466  0.23119577240586864  1.0000
  H   H16       1.0  0.2307217769527696  0.6112527182693909  0.2690576967601004  1.0000
  H   H17       1.0  0.7911835800866098  0.0761424169747684  0.707498415081382  1.0000
  H   H18       1.0  0.574813390078418  0.42396063573020365  0.7924271709817319  1.0000
  H   H19       1.0  0.20881460865421517  0.923856981064809  0.29250100975258425  1.0000
  H   H20       1.0  0.42518615981450136  0.5760397083357062  0.2075725010357488  1.0000
  H   H21       1.0  0.5754109546010895  0.2595303362789991  0.6298907033963558  1.0000
  H   H22       1.0  0.4648277347942767  0.2406468325655027  0.8701434388864017  1.0000
  H   H23       1.0  0.4245897152481387  0.7404671950826653  0.3701095427163635  1.0000
  H   H24       1.0  0.5351717681660662  0.7593535774268999  0.12985952331368372  1.0000
  H   H25       1.0  0.4452264271023906  0.35703009747023634  0.7062555656993368  1.0000
  H   H26       1.0  0.5085054448569363  0.14317730800627973  0.7938136830484056  1.0000
  H   H27       1.0  0.5547694494856756  0.6429674435944861  0.2937451194960445  1.0000
  H   H28       1.0  0.4914933591110253  0.8568221426500103  0.20618837387823416  1.0000
  H   H29       1.0  0.4633443503420339  0.5701690896852014  0.6840568156538751  1.0000
  H   H30       1.0  0.7177683001784625  0.9299480403767577  0.8160055127966572  1.0000
  H   H31       1.0  0.5366516468439286  0.4298303307448137  0.3159437060856476  1.0000
  H   H32       1.0  0.28223281594225813  0.0700532672543943  0.1839952837685672  1.0000
  H   H33       1.0  0.747185371203848  0.36425243912810157  0.4771143935461026  1.0000
  H   H34       1.0  0.5882841185375867  0.13593689277846013  0.022896919296854938  1.0000
  H   H35       1.0  0.25280909658696504  0.6357469903825644  0.5228865670090528  1.0000
  H   H36       1.0  0.4117172864240785  0.8640653391109938  0.9771030278133568  1.0000
  H   H37       1.0  0.741894828546094  0.6115021565791067  0.4038886783838863  1.0000
  H   H38       1.0  0.7566608190709658  0.8885699029014303  0.09632280253001115  1.0000
  H   H39       1.0  0.2581015419586378  0.38849632628281944  0.5961120347207185  1.0000
  H   H40       1.0  0.24333963489003438  0.11143141803949423  0.9036786521251372  1.0000
  H   H41       1.0  0.5330055231167561  0.0664805758342766  0.2634944831651254  1.0000
  H   H42       1.0  0.8630046251171704  0.4333574462658588  0.23656163995236304  1.0000
  H   H43       1.0  0.4669922453727224  0.9335198256998751  0.7365080404863633  1.0000
  H   H44       1.0  0.13699971803690378  0.5666428880969933  0.7634375929824487  1.0000
  H   H45       1.0  0.8365911282435475  0.9867474551643411  0.35791429326841495  1.0000
  H   H46       1.0  0.18123513664280477  0.5130807675547473  0.14198787631590903  1.0000
  H   H47       1.0  0.16341027671812458  0.013254776725112504  0.6420856538418037  1.0000
  H   H48       1.0  0.8187634622494496  0.48691866556263375  0.8580133032465084  1.0000
  C   C1        1.0  0.0680751991597999  0.2781630462950276  0.502518647786971  1.0000
  C   C2        1.0  0.8491629651804118  0.22179727430714988  0.997183466893091  1.0000
  C   C3        1.0  0.9319229419358591  0.7218391862168332  0.4974812995902766  1.0000
  C   C4        1.0  0.1508396435027989  0.7782030515974586  0.0028153274931241837  1.0000
  C   C5        1.0  0.9997233259651634  0.27029509827817577  0.5979828328986585  1.0000
  C   C6        1.0  0.868353150492403  0.22960347084141836  0.9017364483731642  1.0000
  C   C7        1.0  0.0002747790104321912  0.7297033930420016  0.4020183187545427  1.0000
  C   C8        1.0  0.1316483858796644  0.7703968332951588  0.09826124937453072  1.0000
  C   C9        1.0  0.9226740928669487  0.16162811028093674  0.5429095081986546  1.0000
  C   C10       1.0  0.6274860278208435  0.3383963542861324  0.9568986623707049  1.0000
  C   C11       1.0  0.07732678134539829  0.8383722071654134  0.45708884763896407  1.0000
  C   C12       1.0  0.3725134375942432  0.6616058516061686  0.043099968826688  1.0000
  C   C13       1.0  0.8161638120860316  0.15275960404767372  0.7155036108642961  1.0000
  C   C14       1.0  0.6844985294124083  0.3473283344894966  0.7843275308343893  1.0000
  C   C15       1.0  0.18383322057841406  0.8472388655044797  0.2844964441503778  1.0000
  C   C16       1.0  0.31550052656385197  0.6526710677792096  0.21567211327387525  1.0000
  C   C17       1.0  0.6635259308676424  0.25006856971220504  0.7499484502524966  1.0000
  C   C18       1.0  0.33647676158080475  0.7499326629118032  0.25004861731449063  1.0000
  C   C19       1.0  0.5667003997226133  0.3232048523500524  0.6701234905711716  1.0000
  C   C20       1.0  0.5600786340322941  0.17695752165859352  0.8298948533892059  1.0000
  C   C21       1.0  0.43329493459103907  0.6767973499355264  0.32987492161896625  1.0000
  C   C22       1.0  0.4399210003384438  0.8230409605809257  0.17010585944836273  1.0000
  C   C23       1.0  0.5436889014239269  0.5496051562745591  0.6183505532950235  1.0000
  C   C24       1.0  0.7116162580129808  0.950502467694918  0.8817494665017236  1.0000
  C   C25       1.0  0.4563053612911714  0.4503942556971979  0.38164952989590967  1.0000
  C   C26       1.0  0.28838750745920544  0.04949601815133061  0.11825146534309992  1.0000
  C   C27       1.0  0.6926116970657077  0.44297732488595915  0.50946185190724  1.0000
  C   C28       1.0  0.6448324276161158  0.057164108141449795  0.9906064682121496  1.0000
  C   C29       1.0  0.30738326464176413  0.5570230464219109  0.49053913655713904  1.0000
  C   C30       1.0  0.3551713378560634  0.9428343777047915  0.009394463632681002  1.0000
  C   C31       1.0  0.6879090741268284  0.5655608498499233  0.4738287213790359  1.0000
  C   C32       1.0  0.7268588523008148  0.934511308705936  0.026348808016727884  1.0000
  C   C33       1.0  0.3120854781418031  0.4344367178343518  0.5261732799962077  1.0000
  C   C34       1.0  0.2731452020123157  0.0654881013986142  0.9736512743730898  1.0000
  N   N1        1.0  0.01892498276688301  0.21008558653817747  0.4693816476588283  1.0000
  N   N2        1.0  0.6987596197953678  0.28995271512423676  0.030370373706347174  1.0000
  N   N3        1.0  0.9810741093294412  0.7899175569222051  0.5306167921734899  1.0000
  N   N4        1.0  0.3012415800905826  0.7100494992263081  0.9696286960396421  1.0000
  N   N5        1.0  0.9071249981408654  0.1970175669738978  0.6222667923932195  1.0000
  N   N6        1.0  0.726654528299981  0.3029464323816526  0.8775207204330756  1.0000
  N   N7        1.0  0.09287178180269932  0.8029837195116232  0.3777329078005138  1.0000
  N   N8        1.0  0.2733467553512057  0.6970566886882921  0.12247662249367862  1.0000
  N   N9        1.0  0.6023107578649699  0.43369893079737654  0.6017498575623464  1.0000
  N   N10       1.0  0.6378094004580886  0.0664626786407183  0.8982661891496307  1.0000
  N   N11       1.0  0.39768523932099226  0.5663004896326316  0.39825066417718363  1.0000
  N   N12       1.0  0.3621958099314141  0.9335376599512629  0.10173326305947937  1.0000
  N   N13       1.0  0.5944825432143613  0.631059363152751  0.5425187386007266  1.0000
  N   N14       1.0  0.7677762711141369  0.8690013707091641  0.9576596495995062  1.0000
  N   N15       1.0  0.40551457392790996  0.36893724457300436  0.4574823572340279  1.0000
  N   N16       1.0  0.23222749435804954  0.13099711513707754  0.0423412822453244  1.0000
  O   O1        1.0  0.40281023775414565  0.11214830840530253  0.41661123845572234  1.0000
  O   O2        1.0  0.9317090119144921  0.3876764715442036  0.08342528029742627  1.0000
  O   O3        1.0  0.5971900956089726  0.8878511331703365  0.5833903796552917  1.0000
  O   O4        1.0  0.06829276636594935  0.6123248227771685  0.9165748581778673  1.0000
  O   O5        1.0  0.2868008745130907  0.040910331711863514  0.32723651142336513  1.0000
  O   O6        1.0  0.6550400535596383  0.4591719750673208  0.17264552240748546  1.0000
  O   O7        1.0  0.7132005788063295  0.9590862971595232  0.6727656807828808  1.0000
  O   O8        1.0  0.3449622301625653  0.5408236853873021  0.8273553257096822  1.0000
  O   O9        1.0  0.5254485703556638  0.8881700677139933  0.39119290514194194  1.0000
  O   O10       1.0  0.805123509773324  0.61167628119491  0.10890037646061762  1.0000
  O   O11       1.0  0.4745510163699152  0.1118312489978095  0.608808330238908  1.0000
  O   O12       1.0  0.19487782152302185  0.3883240054027652  0.8910964439228551  1.0000
  O   O13       1.0  0.7122004238519039  0.17760065001736797  0.4058893190887574  1.0000
  O   O14       1.0  0.295972811337549  0.32231861982322135  0.09390456538147869  1.0000
  O   O15       1.0  0.2877996199576743  0.8224006358457528  0.5941103808379466  1.0000
  O   O16       1.0  0.704028472313638  0.6776845012467305  0.9060927775452827  1.0000
  O   O17       1.0  0.973270853254114  0.1322260036034351  0.29057862102014553  1.0000
  O   O18       1.0  0.39639943542885453  0.3676687780527246  0.2091019506696982  1.0000
  O   O19       1.0  0.026727408439434126  0.8677781082737184  0.7094211629012506  1.0000
  O   O20       1.0  0.6036039191793066  0.6323324412615038  0.7908944588073581  1.0000
  O   O21       1.0  0.7370227518365127  0.15470066687073114  0.23724810931152254  1.0000
  O   O22       1.0  0.12930697099138636  0.34508713431974775  0.2626326898510953  1.0000
  O   O23       1.0  0.26297783353489035  0.845298726317317  0.7627510959811019  1.0000
  O   O24       1.0  0.8706960954884195  0.6549103921903807  0.7373673367202898  1.0000
