data_image0
_chemical_formula_structural       Ag2H40C44N4O4F6
_chemical_formula_sum              "Ag2 H40 C44 N4 O4 F6"
_cell_length_a       4.487727848687438
_cell_length_b       14.350159564121974
_cell_length_c       15.411707012455496
_cell_angle_alpha    89.40097913726242
_cell_angle_beta     85.15186875800978
_cell_angle_gamma    87.43563713278431

_space_group_name_H-M_alt    "P 1"
_space_group_IT_number       1

loop_
  _space_group_symop_operation_xyz
  'x, y, z'

loop_
  _atom_site_type_symbol
  _atom_site_label
  _atom_site_symmetry_multiplicity
  _atom_site_fract_x
  _atom_site_fract_y
  _atom_site_fract_z
  _atom_site_occupancy
  Ag  Ag1       1.0  0.7679374817640438  0.5373252524510548  0.4498384447433069  1.0000
  Ag  Ag2       1.0  0.2320636197409272  0.462675683972492  0.5501597130862734  1.0000
  H   H1        1.0  0.3783696203730571  0.7086301935103878  0.3594773219072068  1.0000
  H   H2        1.0  0.6216338310170144  0.2913700475913146  0.6405214313271801  1.0000
  H   H3        1.0  0.9769600750691505  0.7976641846741261  0.3798307151375867  1.0000
  H   H4        1.0  0.023039027530948903  0.20233535587936302  0.6201694554456267  1.0000
  H   H5        1.0  0.5097379917857623  0.9869878477804833  0.21612867910396016  1.0000
  H   H6        1.0  0.490263260996862  0.013012392965109101  0.7838727263769275  1.0000
  H   H7        1.0  0.845768232890393  0.7195761474524714  0.11727625897528073  1.0000
  H   H8        1.0  0.1542260841135956  0.28042548206868645  0.8827240134714106  1.0000
  H   H9        1.0  0.5115132110405939  0.018117361938067202  0.3722456898479934  1.0000
  H   H10       1.0  0.48848792786537126  0.9818835759974931  0.6277550624526711  1.0000
  H   H11       1.0  0.9039938248834786  0.0123629163906216  0.3789487485752191  1.0000
  H   H12       1.0  0.0960097403832521  0.9876366275211054  0.6210506578393906  1.0000
  H   H13       1.0  0.678122384394804  0.9351455590072465  0.4422554111666629  1.0000
  H   H14       1.0  0.321878754511161  0.0648553789283142  0.5577453411340019  1.0000
  H   H15       1.0  0.5997479654043474  0.8257710593954926  0.022861911515271102  1.0000
  H   H16       1.0  0.4002533825544389  0.17422848340412134  0.97713884991029  1.0000
  H   H17       1.0  0.6184586438873793  0.9467226825595887  0.04476526548653231  1.0000
  H   H18       1.0  0.38154260889524483  0.053277558186003694  0.9552361399943552  1.0000
  H   H19       1.0  0.29253514052505375  0.8871091380630602  0.08056684903243651  1.0000
  H   H20       1.0  0.7074615934894481  0.11289109705626997  0.9194314289104286  1.0000
  H   H21       1.0  0.45786860387318024  0.42482023302280675  0.3155895234496101  1.0000
  H   H22       1.0  0.5421326021582046  0.5751800058327704  0.6844086389424222  1.0000
  H   H23       1.0  0.3081552933665749  0.3156595383460398  0.2586422132973922  1.0000
  H   H24       1.0  0.6918395649699531  0.6843386040912661  0.7413593791970856  1.0000
  H   H25       1.0  0.8603461648813564  0.20914021987316997  0.04843355509699881  1.0000
  H   H26       1.0  0.13965973156997077  0.7908586279607093  0.951565149486868  1.0000
  H   H27       1.0  0.8129677438662168  0.5040955996449057  0.09880188624912023  1.0000
  H   H28       1.0  0.18702933177825537  0.4959025439045134  0.9011983512343991  1.0000
  H   H29       1.0  0.29145978056400423  0.1168567388357857  0.1211360234741221  1.0000
  H   H30       1.0  0.7085391988091843  0.8831434985296697  0.8788628453110976  1.0000
  H   H31       1.0  0.016228687478246698  0.11418498707634937  0.21018488641615116  1.0000
  H   H32       1.0  0.9837727463064496  0.8858138573992846  0.7898145823363195  1.0000
  H   H33       1.0  0.37470621421380196  0.15567709843003294  0.22539488358625454  1.0000
  H   H34       1.0  0.6252927745096385  0.844323139313424  0.7746046338167292  1.0000
  H   H35       1.0  0.6639338693993649  0.31756479532560183  0.9414134706274027  1.0000
  H   H36       1.0  0.3360697910435277  0.682434050640154  0.0585852917318803  1.0000
  H   H37       1.0  0.6782310733204255  0.43970042702365936  0.955360914210239  1.0000
  H   H38       1.0  0.32177258712246726  0.5602984189420966  0.04463784814904411  1.0000
  H   H39       1.0  0.3873651538800829  0.3775282328145977  0.011428008561374301  1.0000
  H   H40       1.0  0.6126361566777092  0.6224713084730027  0.9885701583931026  1.0000
  C   C1        1.0  0.3060974163738024  0.6490721233200392  0.3248420522266359  1.0000
  C   C2        1.0  0.6939015816998902  0.35092811480142666  0.6751581137941259  1.0000
  C   C3        1.0  0.09369516967261396  0.6591005928112708  0.26283888919058285  1.0000
  C   C4        1.0  0.9063039142269883  0.3408989469862078  0.7371599841570884  1.0000
  C   C5        1.0  0.9382334180578338  0.7500674789291891  0.24872551102470913  1.0000
  C   C6        1.0  0.0617655706656066  0.2499327588142677  0.7512740063782744  1.0000
  C   C7        1.0  0.898611448695668  0.815113117717715  0.31643284250961307  1.0000
  C   C8        1.0  0.10138756807851479  0.184887121159754  0.6835686207466836  1.0000
  C   C9        1.0  0.745036181708457  0.9008938035364339  0.305564498363701  1.0000
  C   C10       1.0  0.2549606942334464  0.0991057355269405  0.6944363786126928  1.0000
  C   C11       1.0  0.63261875908411  0.9206370417378763  0.22516082801119106  1.0000
  C   C12       1.0  0.3673756811467825  0.07936389097132232  0.774840746233494  1.0000
  C   C13       1.0  0.6674714203098091  0.8566527692801102  0.15639768382143876  1.0000
  C   C14       1.0  0.332529823122563  0.1433474710874805  0.8436030730416777  1.0000
  C   C15       1.0  0.8194667668987847  0.7711801081329029  0.16902311792305375  1.0000
  C   C16       1.0  0.18052776850826996  0.22882012663031762  0.8309778122663121  1.0000
  C   C17       1.0  0.7058072217382331  0.9700785590676305  0.37863075435460314  1.0000
  C   C18       1.0  0.29418975873007713  0.029920282427767106  0.6213701271842426  1.0000
  C   C19       1.0  0.5384634384847828  0.8800789954337915  0.07144635403680161  1.0000
  C   C20       1.0  0.4615355782894  0.1199212434436774  0.9285551092195024  1.0000
  C   C21       1.0  0.35287864703428795  0.491450967442809  0.2985311384939067  1.0000
  C   C22       1.0  0.6471246998293692  0.5085499712268629  0.7014676101780284  1.0000
  C   C23       1.0  0.15033429432094889  0.5010147389539129  0.23396628492734817  1.0000
  C   C24       1.0  0.8496647037527366  0.49898549916754587  0.7660338810934066  1.0000
  C   C25       1.0  0.06728274534954438  0.41968667586226616  0.18442494146262334  1.0000
  C   C26       1.0  0.932714235118773  0.5803121656331314  0.815575940076215  1.0000
  C   C27       1.0  0.1671535096292089  0.32850308167842013  0.20521411730087646  1.0000
  C   C28       1.0  0.8328435566650183  0.6714950614930046  0.7947854715648718  1.0000
  C   C29       1.0  0.09234864450031921  0.25219351906878973  0.15724833997380472  1.0000
  C   C30       1.0  0.9076438546008702  0.7478053183123592  0.8427520084980956  1.0000
  C   C31       1.0  0.9165149541539533  0.2682410944873724  0.08710045872262383  1.0000
  C   C32       1.0  0.08347977160542538  0.7317577443838913  0.9128991833560962  1.0000
  C   C33       1.0  0.813619094267679  0.3581375093334457  0.06470928870268013  1.0000
  C   C34       1.0  0.18638012220907296  0.641861334030068  0.935291535060742  1.0000
  C   C35       1.0  0.8891702524637424  0.43324943550021544  0.11443770789024653  1.0000
  C   C36       1.0  0.1108266141279159  0.56675010318515  0.8855625204683762  1.0000
  C   C37       1.0  0.20013010109844492  0.154781255021085  0.17975896931704946  1.0000
  C   C38       1.0  0.7998689921514028  0.8452182851544023  0.820240552648386  1.0000
  C   C39       1.0  0.6267867236423824  0.373969641835764  0.9890450539629544  1.0000
  C   C40       1.0  0.3732168416243482  0.6260299020759704  0.010954352451648205  1.0000
  C   C41       1.0  0.9192664892557403  0.32104719264277987  0.4478510185899865  1.0000
  C   C42       1.0  0.08073211108648341  0.6789551347805726  0.5521432961834877  1.0000
  C   C43       1.0  0.8472279327062182  0.22020475959782  0.4232329668679072  1.0000
  C   C44       1.0  0.15278013262813056  0.7797947891841731  0.5767682698491825  1.0000
  N   N1        1.0  0.4313213939268082  0.5653774874814772  0.3425825958774453  1.0000
  N   N2        1.0  0.5686797075781627  0.43462344894206967  0.6574155619521351  1.0000
  N   N3        1.0  0.02324028743367987  0.5852948937060917  0.21688696371883512  1.0000
  N   N4        1.0  0.9767588058161676  0.41470464646938865  0.7831125582466002  1.0000
  O   O1        1.0  0.7681238283652546  0.3852010505181198  0.41364706390553624  1.0000
  O   O2        1.0  0.2318799553045424  0.6147970986356694  0.5863530002517409  1.0000
  O   O3        1.0  0.1152856002883027  0.32487805941894976  0.5014246689552098  1.0000
  O   O4        1.0  0.8847242735986068  0.6751242811250507  0.4985758431188856  1.0000
  F   F1        1.0  0.6829899109960992  0.21744325438933032  0.3534200168631615  1.0000
  F   F2        1.0  0.31702078975182957  0.7825535052328829  0.6465798830927626  1.0000
  F   F3        1.0  0.688772808802547  0.1793373421228353  0.491974507014156  1.0000
  F   F4        1.0  0.3112328114705463  0.8206635999269735  0.5080267783534469  1.0000
  F   F5        1.0  0.10051040279688551  0.1658589020734453  0.40439925822815337  1.0000
  F   F6        1.0  0.8994953594036089  0.8341413439204074  0.5956046261729853  1.0000
