data_image0
_chemical_formula_structural       Zn4H48C64O32
_chemical_formula_sum              "Zn4 H48 C64 O32"
_cell_length_a       7.29316898
_cell_length_b       11.95826877637268
_cell_length_c       17.7746
_cell_angle_alpha    104.47548237260227
_cell_angle_beta     90.0
_cell_angle_gamma    90.0

_space_group_name_H-M_alt    "P 1"
_space_group_IT_number       1

loop_
  _space_group_symop_operation_xyz
  'x, y, z'

loop_
  _atom_site_type_symbol
  _atom_site_label
  _atom_site_symmetry_multiplicity
  _atom_site_fract_x
  _atom_site_fract_y
  _atom_site_fract_z
  _atom_site_occupancy
  Zn  Zn1       1.0  0.9493541173921898  0.0411636940234033  0.19798503168205883  1.0000
  Zn  Zn2       1.0  0.449353361890708  0.9588363181541837  0.3020142389851159  1.0000
  Zn  Zn3       1.0  0.050647393610781  0.9588371818127399  0.8020143842266949  1.0000
  Zn  Zn4       1.0  0.5506481491122699  0.0411636940234033  0.6979855942826205  1.0000
  H   H1        1.0  0.0058931858178326  0.49112807358794436  0.415203656850892  1.0000
  H   H2        1.0  0.5058939413193214  0.5088710749310863  0.08479659377582749  1.0000
  H   H3        1.0  0.9941069540390683  0.5088719385896425  0.5847967390174063  1.0000
  H   H4        1.0  0.4941034562454334  0.49112807358794436  0.9152036568508919  1.0000
  H   H5        1.0  0.8051383446760596  0.6404313188757627  0.497401897079918  1.0000
  H   H6        1.0  0.3051375891745777  0.3595686933018242  0.002598498788380295  1.0000
  H   H7        1.0  0.19486179518083444  0.35956955696038045  0.5025980814293973  1.0000
  H   H8        1.0  0.6948611795362538  0.6404295915586502  0.9974016065967533  1.0000
  H   H9        1.0  0.3449186501640611  0.5058974985280287  0.3501067280843203  1.0000
  H   H10       1.0  0.8449194056655498  0.4941042409666636  0.14989395826714264  1.0000
  H   H11       1.0  0.6550814896928401  0.4941042409666636  0.6498939582671427  1.0000
  H   H12       1.0  0.15507936304528155  0.5058966348694725  0.8501060202421727  1.0000
  H   H13       1.0  0.5441982779891674  0.3557867324917794  0.2698250538372164  1.0000
  H   H14       1.0  0.04420026477982469  0.6442141433443638  0.23017548727266765  1.0000
  H   H15       1.0  0.4558004907216642  0.6442141433443638  0.7301754872726677  1.0000
  H   H16       1.0  0.9557998750770764  0.3557850051746668  0.769824200753483  1.0000
  H   H17       1.0  0.37443668280396736  0.6431112513702999  0.524800586162968  1.0000
  H   H18       1.0  0.8744346960133098  0.35688876080728693  0.9752009349064608  1.0000
  H   H19       1.0  0.6255648281990032  0.3568896244658433  0.4751999549469161  1.0000
  H   H20       1.0  0.12556544384359106  0.6431103877117437  0.024799315720258605  1.0000
  H   H21       1.0  0.5137286699752295  0.7542373339160803  0.5036554300145468  1.0000
  H   H22       1.0  0.013729285619817197  0.2457626782614994  0.9963449658537514  1.0000
  H   H23       1.0  0.4862714698816716  0.2457626782614994  0.49634496585375143  1.0000
  H   H24       1.0  0.9862722253831533  0.754235606598975  0.0036551395313893184  1.0000
  H   H25       1.0  0.2210095507755554  0.8034537803014173  0.5780124161198827  1.0000
  H   H26       1.0  0.7210116774231139  0.1965453682176133  0.9219883971074055  1.0000
  H   H27       1.0  0.7789905890813457  0.19654623187616946  0.4219874171478538  1.0000
  H   H28       1.0  0.2789898335798568  0.8034546439599666  0.07801199876089979  1.0000
  H   H29       1.0  0.715769785989522  0.9501815957797817  0.5211240741449217  1.0000
  H   H30       1.0  0.2157690304880333  0.049818416397798194  0.9788763217233836  1.0000
  H   H31       1.0  0.2842317250134555  0.049817552739248996  0.47887505128066726  1.0000
  H   H32       1.0  0.7842311093688678  0.9501815957797817  0.02112351154435291  1.0000
  H   H33       1.0  0.0563198249110073  0.7463149939958811  0.339205534217804  1.0000
  H   H34       1.0  0.55631783812035  0.2536841545231496  0.16079471640891546  1.0000
  H   H35       1.0  0.9436816860919635  0.2536841545231496  0.6607941538083537  1.0000
  H   H36       1.0  0.44368093059047436  0.7463167213129935  0.8392052621003998  1.0000
  H   H37       1.0  0.1509124501322034  0.2702681260861866  0.2626266616951938  1.0000
  H   H38       1.0  0.6509132056336924  0.7297318860914003  0.23737317157254273  1.0000
  H   H39       1.0  0.8490876897246904  0.7297318860914003  0.7373731715725428  1.0000
  H   H40       1.0  0.34908693422320874  0.2702681260861866  0.7626266616951939  1.0000
  H   H41       1.0  0.1452564725848404  0.8584662392458284  0.20166813139566392  1.0000
  H   H42       1.0  0.6452558569402598  0.1415337729317514  0.29833170187207264  1.0000
  H   H43       1.0  0.8547436672720536  0.1415337729317514  0.7983317018720726  1.0000
  H   H44       1.0  0.3547429117705717  0.8584662392458284  0.7016681313956639  1.0000
  H   H45       1.0  0.9422035906262491  0.8435128550336443  0.2261115499203257  1.0000
  H   H46       1.0  0.4422028351247674  0.1564871571439426  0.2738888459479796  1.0000
  H   H47       1.0  0.057796549230644687  0.1564871571439426  0.7738882833474108  1.0000
  H   H48       1.0  0.5577973047321336  0.8435128550336443  0.7261115499203257  1.0000
  C   C1        1.0  0.9028256465819593  0.3228044759549178  0.28637456026757485  1.0000
  C   C2        1.0  0.4028262622265472  0.6771955362226691  0.21362527300016856  1.0000
  C   C3        1.0  0.09717312212886497  0.6771946725641129  0.7136256903591516  1.0000
  C   C4        1.0  0.5971711353382076  0.322805339613474  0.7863741429085851  1.0000
  C   C5        1.0  0.7881087104607332  0.41340744027071  0.3370162897582675  1.0000
  C   C6        1.0  0.2881093261053137  0.5865917082483207  0.16298339826789032  1.0000
  C   C7        1.0  0.21189005825009838  0.5865917082483207  0.6629839608684521  1.0000
  C   C8        1.0  0.7118894426055107  0.41340744027071  0.8370168523588292  1.0000
  C   C9        1.0  0.8604558618083755  0.4938175063265788  0.4017321377560492  1.0000
  C   C10       1.0  0.3604551063068868  0.506182505851001  0.0982671329111255  1.0000
  C   C11       1.0  0.1395442780485254  0.506182505851001  0.5982676955116873  1.0000
  C   C12       1.0  0.6395436624039375  0.4938157790094735  0.9017340976751457  1.0000
  C   C13       1.0  0.7471923405235541  0.5775181114750012  0.4477559160567495  1.0000
  C   C14       1.0  0.24719158502207245  0.4224801733854733  0.0522441893283911  1.0000
  C   C15       1.0  0.2528077993333397  0.4224810370440295  0.5522443345699699  1.0000
  C   C16       1.0  0.7528085548348287  0.5775163841578959  0.9477573133752771  1.0000
  C   C17       1.0  0.5610565189454846  0.5831724840311523  0.4294309921376041  1.0000
  C   C18       1.0  0.06105713459007229  0.4168275281464346  0.07056996633126289  1.0000
  C   C19       1.0  0.4389436209114166  0.4168283918049838  0.5705695489722729  1.0000
  C   C20       1.0  0.9389430052668286  0.583170756714047  0.9294318268555771  1.0000
  C   C21       1.0  0.4890507829697909  0.5021155377179767  0.3651745847658177  1.0000
  C   C22       1.0  0.9890515384712799  0.4978844744596032  0.1348263737030493  1.0000
  C   C23       1.0  0.5109493568871102  0.4978844744596032  0.6348263737030492  1.0000
  C   C24       1.0  0.0109486013856213  0.5021155377179767  0.8651745847658178  1.0000
  C   C25       1.0  0.6011680261383459  0.4180211042687176  0.3197332547552421  1.0000
  C   C26       1.0  0.10116864178293378  0.5819797715674255  0.1802667237540732  1.0000
  C   C27       1.0  0.3988321137185551  0.5819797715674255  0.6802667237540733  1.0000
  C   C28       1.0  0.8988301269278975  0.41801937695160507  0.8197329642720845  1.0000
  C   C29       1.0  0.4376437744350738  0.6743748273837511  0.4773852708864297  1.0000
  C   C30       1.0  0.9376445299365628  0.3256251847938358  0.02261512498187559  1.0000
  C   C31       1.0  0.5623563654218273  0.3256251847938358  0.5226151249818756  1.0000
  C   C32       1.0  0.06235698106641509  0.6743731000666386  0.9773849804032652  1.0000
  C   C33       1.0  0.1531995217804507  0.7639871753375543  0.4554120831450775  1.0000
  C   C34       1.0  0.6531989061358627  0.2360128368400325  0.044588875323789495  1.0000
  C   C35       1.0  0.8468033603685965  0.2360137004985816  0.5445884579648066  1.0000
  C   C36       1.0  0.3467998625749686  0.7639880389961107  0.9554111031855258  1.0000
  C   C37       1.0  0.12311520581276618  0.8134601283135652  0.5341357913409794  1.0000
  C   C38       1.0  0.6231159613142552  0.18653988386402176  0.9658651671278878  1.0000
  C   C39       1.0  0.8768863051902043  0.18653988386402176  0.46586404192675707  1.0000
  C   C40       1.0  0.3768841785426459  0.8134618556306776  0.03413495662301356  1.0000
  C   C41       1.0  0.9646643344331238  0.8801017496939919  0.5574157677703013  1.0000
  C   C42       1.0  0.46466495007771147  0.11989826248359489  0.9425846280979968  1.0000
  C   C43       1.0  0.0353358054237773  0.11989826248359489  0.4425840654974352  1.0000
  C   C44       1.0  0.5353351897791896  0.8801026133525482  0.05741535041131841  1.0000
  C   C45       1.0  0.8366884157948034  0.8969595010187986  0.5028868594053791  1.0000
  C   C46       1.0  0.3366876602933146  0.1030422384759007  0.997113826946084  1.0000
  C   C47       1.0  0.16331309520816714  0.10304051115878819  0.4971129738623574  1.0000
  C   C48       1.0  0.66330973727144  0.896961228335904  0.0028860246874131733  1.0000
  C   C49       1.0  0.8696589942442259  0.8475392312146113  0.42369267526468946  1.0000
  C   C50       1.0  0.369658238742744  0.1524607809629757  0.0763077206036087  1.0000
  C   C51       1.0  0.1303425167587449  0.1524607809629757  0.576307158003047  1.0000
  C   C52       1.0  0.6303405299680875  0.8475400948731602  0.9236916953051449  1.0000
  C   C53       1.0  0.027156919103774192  0.7822699632772441  0.4003374330010203  1.0000
  C   C54       1.0  0.5271563034591864  0.21773004890034287  0.0996629628672849  1.0000
  C   C55       1.0  0.9728445918991966  0.21773004890034287  0.5996624002667161  1.0000
  C   C56       1.0  0.4728424652516381  0.7822708269358002  0.9003370156420373  1.0000
  C   C57       1.0  0.9399466841915964  0.9364641069590504  0.6417066060876452  1.0000
  C   C58       1.0  0.4399472998361843  0.0635359052185294  0.8582932271800914  1.0000
  C   C59       1.0  0.060053455665304484  0.0635359052185294  0.3582926645795297  1.0000
  C   C60       1.0  0.5600528400207166  0.9364641069590504  0.14170660608764507  1.0000
  C   C61       1.0  0.7410564618509667  0.8657416989087281  0.36277485060057313  1.0000
  C   C62       1.0  0.24105707749554733  0.134259176927408  0.13722569050931102  1.0000
  C   C63       1.0  0.2589436780059344  0.1342583132688517  0.6372255452677322  1.0000
  C   C64       1.0  0.7589444335074234  0.8657416989087281  0.8627737253994427  1.0000
  O   O1        1.0  0.0819355758297533  0.33572998988119446  0.2996691711410264  1.0000
  O   O2        1.0  0.5819377024773118  0.66426829497928  0.2003309342441142  1.0000
  O   O3        1.0  0.9180618217350014  0.66426829497928  0.7003303716435454  1.0000
  O   O4        1.0  0.4180610662335127  0.3357308535397507  0.7996693163826124  1.0000
  O   O5        1.0  0.8353309811834391  0.24164561793232048  0.23616884151326906  1.0000
  O   O6        1.0  0.3353302256819504  0.7583535305867101  0.263830283912327  1.0000
  O   O7        1.0  0.16466915867346185  0.7583535305867101  0.7638314091134504  1.0000
  O   O8        1.0  0.6646699141749506  0.2416464815908697  0.7361678615537173  1.0000
  O   O9        1.0  0.29879878088331674  0.6964680768657843  0.4258769495369705  1.0000
  O   O10       1.0  0.7987995363847984  0.3035327989703589  0.0741241541734752  1.0000
  O   O11       1.0  0.7012041012657304  0.3035327989703589  0.5741230289723447  1.0000
  O   O12       1.0  0.20120060347210256  0.6964680768657843  0.9258758243358471  1.0000
  O   O13       1.0  0.0652706664696012  0.9164954575210302  0.6873566106870045  1.0000
  O   O14       1.0  0.565271421971083  0.0835045546565567  0.8126432225807321  1.0000
  O   O15       1.0  0.9347281022412302  0.0835045546565567  0.3126437851813009  1.0000
  O   O16       1.0  0.43473008903188765  0.9164954575210302  0.18735604808643558  1.0000
  O   O17       1.0  0.8053632126318815  0.0028725283521850997  0.6644372553099134  1.0000
  O   O18       1.0  0.3053624571303998  0.9971283474839581  0.8355638484005327  1.0000
  O   O19       1.0  0.19463829837108895  0.9971283474839581  0.3355615979982716  1.0000
  O   O20       1.0  0.6946376827265013  0.0028725283521850997  0.1644366927093515  1.0000
  O   O21       1.0  0.777785351683981  0.8217814784859385  0.2911240679895216  1.0000
  O   O22       1.0  0.2777873384746385  0.17821939735020456  0.20887534791923204  1.0000
  O   O23       1.0  0.22221478817291995  0.1782185336916484  0.7088757652782152  1.0000
  O   O24       1.0  0.722214172528332  0.8217806148273823  0.7911233601473813  1.0000
  O   O25       1.0  0.5975015815415785  0.9265527613878958  0.3855294449704587  1.0000
  O   O26       1.0  0.09750356833223607  0.0734472507896911  0.1144709508978394  1.0000
  O   O27       1.0  0.4024999294613919  0.0734463871311348  0.6144713682568224  1.0000
  O   O28       1.0  0.902499313816804  0.9265527613878958  0.8855277571687665  1.0000
  O   O29       1.0  0.0181196953426408  0.8653375067052379  0.1853841811084607  1.0000
  O   O30       1.0  0.5181204508441297  0.1346625054723489  0.3146156521592758  1.0000
  O   O31       1.0  0.9818804445142602  0.1346625054723489  0.814615652159276  1.0000
  O   O32       1.0  0.4818796890127714  0.8653375067052379  0.6853841811084608  1.0000
