data_image0
_chemical_formula_structural       Zn2H6C22Br4N2O8F4
_chemical_formula_sum              "Zn2 H6 C22 Br4 N2 O8 F4"
_cell_length_a       9.83721356284153
_cell_length_b       11.018816045685655
_cell_length_c       11.007423978213854
_cell_angle_alpha    89.88224783316508
_cell_angle_beta     89.45212186004443
_cell_angle_gamma    90.66697721769393

_space_group_name_H-M_alt    "P 1"
_space_group_IT_number       1

loop_
  _space_group_symop_operation_xyz
  'x, y, z'

loop_
  _atom_site_type_symbol
  _atom_site_label
  _atom_site_symmetry_multiplicity
  _atom_site_fract_x
  _atom_site_fract_y
  _atom_site_fract_z
  _atom_site_occupancy
  Zn  Zn1       1.0  0.355644724297548  0.49792987161763586  0.49879399190626816  1.0000
  Zn  Zn2       1.0  0.6422755131121393  0.501953081037378  0.49657934422887695  1.0000
  H   H1        1.0  0.7345428526381427  0.49984228164268524  0.1099758768597781  1.0000
  H   H2        1.0  0.7365345694206128  0.5144839484952612  0.8843243943545288  1.0000
  H   H3        1.0  0.6720413813074373  0.12100428373109648  0.43312989565109206  1.0000
  H   H4        1.0  0.6718591251122917  0.8935199215045128  0.41812137273296895  1.0000
  H   H5        1.0  0.13704190866408789  0.6773077082342736  0.5629111871153823  1.0000
  H   H6        1.0  0.13297650870674005  0.32061217592830366  0.43564364108812  1.0000
  C   C1        1.0  0.47558126163122694  0.2643185273413522  0.51850400604323  1.0000
  C   C2        1.0  0.47725868843024705  0.7355690230392895  0.4900642550649933  1.0000
  C   C3        1.0  0.9363200347599663  0.596102149374957  0.5329016208306427  1.0000
  C   C4        1.0  0.934351417834712  0.40495697006245013  0.4585060972960874  1.0000
  C   C5        1.0  0.077824408876495  0.5982328106121955  0.5350126251998687  1.0000
  C   C6        1.0  0.0755925135165754  0.40038015841304286  0.4618561625940528  1.0000
  C   C7        1.0  0.5197350326342517  0.48633701181329764  0.2638654488967801  1.0000
  C   C8        1.0  0.5239788273011925  0.5151382409771587  0.7309280863707812  1.0000
  C   C9        1.0  0.397996254158933  0.4935194226324456  0.060737374337556084  1.0000
  C   C10       1.0  0.39919493280439877  0.5029263005128044  0.9342730764439009  1.0000
  C   C11       1.0  0.5176124883108956  0.49224723620346106  0.12837220606689928  1.0000
  C   C12       1.0  0.5199427721091325  0.5102916286041008  0.8664261215176409  1.0000
  C   C13       1.0  0.6390197002562844  0.5003820171598292  0.060663609345788  1.0000
  C   C14       1.0  0.6401865431882641  0.50889941680569  0.9338552693889423  1.0000
  C   C15       1.0  0.2470606050013728  0.5008077199034843  0.9231108495158793  1.0000
  C   C16       1.0  0.24577460919785923  0.4862761573538634  0.07143294723651647  1.0000
  C   C17       1.0  0.5870463482191396  0.0666893635694095  0.46797799909921867  1.0000
  C   C18       1.0  0.5868455493471458  0.9410788655700486  0.4595450983904286  1.0000
  C   C19       1.0  0.47658194762324513  0.8710208992749457  0.5031555987480373  1.0000
  C   C20       1.0  0.4768535587158311  0.1281811935292012  0.5202048932542878  1.0000
  C   C21       1.0  0.3684567987745169  0.9320372599827208  0.5582521525844085  1.0000
  C   C22       1.0  0.3686362656732102  0.05852379714784918  0.5668639912114983  1.0000
  Br  Br1       1.0  0.1716560895808712  0.6523792480038821  0.8611326433851331  1.0000
  Br  Br2       1.0  0.1762342598382389  0.3304342453300251  0.13353080207165388  1.0000
  Br  Br3       1.0  0.1705695039587667  0.3658621939583925  0.8306270168407577  1.0000
  Br  Br4       1.0  0.15921228502791962  0.6161040046459474  0.1637039061404906  1.0000
  N   N1        1.0  0.1439977707388636  0.4987007734762655  0.4997341026605396  1.0000
  N   N2        1.0  0.8639449938097672  0.5010696923725176  0.49443586474694706  1.0000
  O   O1        1.0  0.3596558760507733  0.3141563700228645  0.5132531933843295  1.0000
  O   O2        1.0  0.3621372895242772  0.6819168480311149  0.48557689244161373  1.0000
  O   O3        1.0  0.5901419156108431  0.3186664491460789  0.5186093680309085  1.0000
  O   O4        1.0  0.5926703812563261  0.6853747902650014  0.4834441411334466  1.0000
  O   O5        1.0  0.4050742902483719  0.4820454717132918  0.3174755615192594  1.0000
  O   O6        1.0  0.4097144993859701  0.5152751782347025  0.6782459812313844  1.0000
  O   O7        1.0  0.6361749953313094  0.48762369909925934  0.3139347289673751  1.0000
  O   O8        1.0  0.6407837131356616  0.5171079277861921  0.6798703955432188  1.0000
  F   F1        1.0  0.2603019423089989  0.8721745024877664  0.608294629982339  1.0000
  F   F2        1.0  0.26106333342880117  0.10962648153092401  0.6238479215403813  1.0000
  F   F3        1.0  0.8673318310680217  0.6925734614514951  0.5700904855074923  1.0000
  F   F4        1.0  0.8634846797206424  0.3099443398220956  0.4175693598881479  1.0000
