data_image0
_chemical_formula_structural       Cd9H30C24N54Cl6
_chemical_formula_sum              "Cd9 H30 C24 N54 Cl6"
_cell_length_a       10.014890594563568
_cell_length_b       16.12588646444853
_cell_length_c       16.124855386476856
_cell_angle_alpha    115.82844733482614
_cell_angle_beta     101.94258854005632
_cell_angle_gamma    101.9508344846656

_space_group_name_H-M_alt    "P 1"
_space_group_IT_number       1

loop_
  _space_group_symop_operation_xyz
  'x, y, z'

loop_
  _atom_site_type_symbol
  _atom_site_label
  _atom_site_symmetry_multiplicity
  _atom_site_fract_x
  _atom_site_fract_y
  _atom_site_fract_z
  _atom_site_occupancy
  Cd  Cd1       1.0  0.9246153094571881  0.2450830407303499  0.5424478299225797  1.0000
  Cd  Cd2       1.0  0.3821893999894995  0.45754936816781827  0.702626878419288  1.0000
  Cd  Cd3       1.0  0.6795638000535719  0.29736041461871576  0.7549393370023338  1.0000
  Cd  Cd4       1.0  0.07538540188272683  0.7549172271461302  0.4575522284532454  1.0000
  Cd  Cd5       1.0  0.617810290552292  0.5424508996953108  0.29737366880235067  1.0000
  Cd  Cd6       1.0  0.3204365453372517  0.7026391213640366  0.2450603554396976  1.0000
  Cd  Cd7       1.0  1.163617255900024e-06  2.0566739779999715e-07  0.5000000096059196  1.0000
  Cd  Cd8       1.0  0.5000006828031118  0.49999976797872153  0.5000005319931303  1.0000
  Cd  Cd9       1.0  0.9999990640438909  0.5000000159108213  2.443069960133457e-07  1.0000
  H   H1        1.0  0.6622177434634082  0.34328264846448064  0.3702987383433793  1.0000
  H   H2        1.0  0.8339977717952891  0.40798853919250194  0.4638069899478269  1.0000
  H   H3        1.0  0.8593854417041413  0.2947621410982464  0.2903554962911273  1.0000
  H   H4        1.0  0.8946416381788467  0.19204803845278928  0.29385185724359536  1.0000
  H   H5        1.0  0.7055761377263607  0.19320856940292697  0.34841503445447597  1.0000
  H   H6        1.0  0.2917827469515188  0.6297932480566787  0.972972111407735  1.0000
  H   H7        1.0  0.36995256380719616  0.5362316312528038  0.944162935857456  1.0000
  H   H8        1.0  0.5689544040530807  0.7096038085730215  0.0044096733180438415  1.0000
  H   H9        1.0  0.6007848518564386  0.7061241769560453  0.8982178997418727  1.0000
  H   H10       1.0  0.35717787853524663  0.6516250406630493  0.8447608253285638  1.0000
  H   H11       1.0  0.3189380870799994  0.026998129112485003  0.6566641194154103  1.0000
  H   H12       1.0  0.42606782660757153  0.055936213737425106  0.592041486409052  1.0000
  H   H13       1.0  0.5645176003585632  0.9956260689220143  0.7052862499130014  1.0000
  H   H14       1.0  0.7025278536046359  0.1017927263300749  0.8079855428028182  1.0000
  H   H15       1.0  0.5122584654099995  0.15522452725510763  0.8068273100961463  1.0000
  H   H16       1.0  0.33778333363135726  0.6567183512928452  0.6297023060962559  1.0000
  H   H17       1.0  0.1660008979483721  0.592011728657262  0.5361940461196255  1.0000
  H   H18       1.0  0.1406152694415326  0.7052381267653516  0.7096451822147145  1.0000
  H   H19       1.0  0.10535943891592582  0.8079529613045369  0.7061491871960398  1.0000
  H   H20       1.0  0.29442493936841163  0.8067924303543991  0.6515860099851593  1.0000
  H   H21       1.0  0.7082159229863761  0.3702070198059746  0.027028304529707715  1.0000
  H   H22       1.0  0.630047492489446  0.463769368491164  0.055838597427985824  1.0000
  H   H23       1.0  0.4310463070926005  0.29039645929056956  0.9955910051877979  1.0000
  H   H24       1.0  0.3992144725420133  0.2938753590004595  0.10178290167598186  1.0000
  H   H25       1.0  0.6428224666613361  0.3483744953068142  0.15523948724348463  1.0000
  H   H26       1.0  0.6810612377069347  0.9730014068697983  0.34333544174242536  1.0000
  H   H27       1.0  0.5739301116263817  0.9440625903506616  0.40795757753078726  1.0000
  H   H28       1.0  0.4354823796658849  0.0043727352056777006  0.2947112162052079  1.0000
  H   H29       1.0  0.29747204917642034  0.898203882116896  0.19201095679820673  1.0000
  H   H30       1.0  0.48774392118860277  0.8447750087285898  0.1931726449142913  1.0000
  C   C1        1.0  0.6730938861180962  0.34013276105719126  0.5026559720768162  1.0000
  C   C2        1.0  0.7393096291480532  0.3405436501672057  0.428104054292973  1.0000
  C   C3        1.0  0.8915257071619963  0.2656147672962846  0.33911587325937387  1.0000
  C   C4        1.0  0.04027323906338863  0.3295999078027593  0.41095099274902214  1.0000
  C   C5        1.0  0.17030162950873523  0.4974234839265322  0.8374460522773788  1.0000
  C   C6        1.0  0.311032320757292  0.5719656692751515  0.9124138460415452  1.0000
  C   C7        1.0  0.5523068561611597  0.6608458960366194  0.9264938462889843  1.0000
  C   C8        1.0  0.6291616381756882  0.5889678464837472  0.9186399071050743  1.0000
  C   C9        1.0  0.33289755060122417  0.1625387012416439  0.6599095321804286  1.0000
  C   C10       1.0  0.3987545575699869  0.08760551177054773  0.6594687427925053  1.0000
  C   C11       1.0  0.6258243618402801  0.07353388429441311  0.734440223627729  1.0000
  C   C12       1.0  0.7105218562803373  0.08135656592091323  0.6704076512616413  1.0000
  C   C13       1.0  0.326905438474597  0.6598667749122029  0.49734420921102884  1.0000
  C   C14       1.0  0.2606910818033796  0.6594566176835029  0.571897244342878  1.0000
  C   C15       1.0  0.10847434932888696  0.7343862324605724  0.6608850398960583  1.0000
  C   C16       1.0  0.9597278380313841  0.6704010919545668  0.5890500516906131  1.0000
  C   C17       1.0  0.8296980610330495  0.5025767839365899  0.16255449494425986  1.0000
  C   C18       1.0  0.6889680246335317  0.42803386670760096  0.0875858464004935  1.0000
  C   C19       1.0  0.4476924684315335  0.3391536399327748  0.07350633499886067  1.0000
  C   C20       1.0  0.37084009396235723  0.4110324214060981  0.08135966242494416  1.0000
  C   C21       1.0  0.6671021397463265  0.8374615666085959  0.34009163517121976  1.0000
  C   C22       1.0  0.6012451331660457  0.9123947561054707  0.34053118429912377  1.0000
  C   C23       1.0  0.3741738658763298  0.9264634560582368  0.2655557592086807  1.0000
  C   C24       1.0  0.28947848969320955  0.918642970100507  0.32959018079036173  1.0000
  N   N1        1.0  0.705922996440016  0.2959081975045094  0.5537277516946801  1.0000
  N   N2        1.0  0.7910322130578394  0.25699230810433  0.3916554736004159  1.0000
  N   N3        1.0  0.08543887089354739  0.3397189034710308  0.5005318775668925  1.0000
  N   N4        1.0  0.22408245698986928  0.39715583528573734  0.5406525950412728  1.0000
  N   N5        1.0  0.6309538118273039  0.31614663600345233  0.6160076737571885  1.0000
  N   N6        1.0  0.5551866704340612  0.3697312722209959  0.6032452500192207  1.0000
  N   N7        1.0  0.5793310883992789  0.385544072354307  0.5318049665543256  1.0000
  N   N8        1.0  0.25989752822909656  0.4205700215596338  0.4771898871633908  1.0000
  N   N9        1.0  0.14658628021857817  0.3798960220184497  0.394977285929471  1.0000
  N   N10       1.0  0.15213340745452808  0.4463131573714919  0.7421716284872346  1.0000
  N   N11       1.0  0.39929909597733376  0.6083679804391837  0.8653232096595218  1.0000
  N   N12       1.0  0.5848285887738528  0.49940966039552154  0.8391840087450716  1.0000
  N   N13       1.0  0.6834127644548007  0.45932782754120904  0.8565042853343031  1.0000
  N   N14       1.0  0.014934345650978304  0.383984248730556  0.7001501142627617  1.0000
  N   N15       1.0  0.9519039087259314  0.39675307363782525  0.7664938180365937  1.0000
  N   N16       1.0  0.04742128403642452  0.46824995078738857  0.8537287828756774  1.0000
  N   N17       1.0  0.7826501369663461  0.5228003769083928  0.9433804055586208  1.0000
  N   N18       1.0  0.7514700276344828  0.6049793648237912  0.9849142004806667  1.0000
  N   N19       1.0  0.40996016646904115  0.2578211819086036  0.7041180435718459  1.0000
  N   N20       1.0  0.5339826550865752  0.13470343928315032  0.7430610907092117  1.0000
  N   N21       1.0  0.745655013940805  0.16081270256974992  0.6602925343071177  1.0000
  N   N22       1.0  0.8268904885134987  0.14348421796904634  0.6028672329831437  1.0000
  N   N23       1.0  0.31476862542994866  0.29985213661139204  0.6838619046844414  1.0000
  N   N24       1.0  0.1854157829056575  0.23350536090042345  0.6302743309856353  1.0000
  N   N25       1.0  0.1937366124699977  0.1462588214853113  0.6144763076203219  1.0000
  N   N26       1.0  0.8392380757377752  0.0566030675490907  0.5794579267247002  1.0000
  N   N27       1.0  0.7665354037403133  0.015075441691344303  0.6201229261868448  1.0000
  N   N28       1.0  0.29407494159969627  0.704090606570688  0.44627193237517554  1.0000
  N   N29       1.0  0.2089688640369334  0.7430086916530033  0.6083455708392195  1.0000
  N   N30       1.0  0.9145622062012253  0.6602820962862951  0.4994691668727427  1.0000
  N   N31       1.0  0.7759186201049033  0.6028451644715886  0.45934844939836234  1.0000
  N   N32       1.0  0.3690458787144806  0.6838536318596767  0.3839928734644502  1.0000
  N   N33       1.0  0.4448126541586319  0.6302682637483984  0.3967549312686244  1.0000
  N   N34       1.0  0.42066721558953185  0.6144554636146182  0.4681950834493234  1.0000
  N   N35       1.0  0.740103548865669  0.5794309781976992  0.5228111572762444  1.0000
  N   N36       1.0  0.8534147968761946  0.6201049777388834  0.6050237585101642  1.0000
  N   N37       1.0  0.8478676696402445  0.553687842385834  0.2578294159524006  1.0000
  N   N38       1.0  0.6007002286153593  0.39163155553021073  0.1346769716283234  1.0000
  N   N39       1.0  0.4151721223718284  0.5005906074680767  0.16081666976076994  1.0000
  N   N40       1.0  0.31658758054754094  0.5406717084157722  0.14349664736775478  1.0000
  N   N41       1.0  0.9850663654947027  0.6160160191330349  0.2998505642430728  1.0000
  N   N42       1.0  0.04809643647065099  0.6032464623320453  0.23350649453545463  1.0000
  N   N43       1.0  0.9525784065053672  0.5317503170757406  0.14627176434596834  1.0000
  N   N44       1.0  0.2173491874321059  0.4771991590481122  0.056620395859233924  1.0000
  N   N45       1.0  0.24853031756209992  0.39502017114607935  0.015086112091374615  1.0000
  N   N46       1.0  0.5900395238785094  0.7421790859416292  0.2958831237798093  1.0000
  N   N47       1.0  0.46601732454939093  0.8652953648187636  0.256937615669024  1.0000
  N   N48       1.0  0.2543453318384935  0.8391868334387811  0.3397059178749018  1.0000
  N   N49       1.0  0.1731112436245469  0.8565160499207993  0.39713233654687485  1.0000
  N   N50       1.0  0.6852317197666338  0.700147399358471  0.3161384078876068  1.0000
  N   N51       1.0  0.8145845624851662  0.7664941750823291  0.36972536145640345  1.0000
  N   N52       1.0  0.8062627121226953  0.8537407144840828  0.38552387366752316  1.0000
  N   N53       1.0  0.16076263599062196  0.9433972003531681  0.4205408913911127  1.0000
  N   N54       1.0  0.2334645762841419  0.9849233624363478  0.37987453993136444  1.0000
  Cl  Cl1       1.0  0.9299814230022321  0.08798880244957992  0.39824052143124794  1.0000
  Cl  Cl2       1.0  0.5317976076891214  0.601769572433149  0.6897752273406681  1.0000
  Cl  Cl3       1.0  0.8420890642342798  0.3102178780069096  0.9120070323732536  1.0000
  Cl  Cl4       1.0  0.07001790197894314  0.9120107335455929  0.6017584195965779  1.0000
  Cl  Cl5       1.0  0.4682031032623187  0.39823069541755984  0.31022607129518326  1.0000
  Cl  Cl6       1.0  0.1579102603584133  0.6897816579624845  0.0879931489145918  1.0000
