data_image0
_chemical_formula_structural       K4H60C40O32
_chemical_formula_sum              "K4 H60 C40 O32"
_cell_length_a       9.398260193
_cell_length_b       11.147592379735807
_cell_length_c       12.782
_cell_angle_alpha    90.0
_cell_angle_beta     90.0
_cell_angle_gamma    93.34204984200957

_space_group_name_H-M_alt    "P 1"
_space_group_IT_number       1

loop_
  _space_group_symop_operation_xyz
  'x, y, z'

loop_
  _atom_site_type_symbol
  _atom_site_label
  _atom_site_symmetry_multiplicity
  _atom_site_fract_x
  _atom_site_fract_y
  _atom_site_fract_z
  _atom_site_occupancy
  K   K1        1.0  0.5644617229969882  0.8818225382649274  0.5803903927397869  1.0000
  K   K2        1.0  0.9355369335143776  0.1181771309666999  0.0803911750899715  1.0000
  K   K3        1.0  0.435536881647316  0.11817623238379579  0.41960960726021307  1.0000
  K   K4        1.0  0.0644628594264915  0.8818234368478386  0.9196088249100285  1.0000
  H   H1        1.0  0.20922895642483036  0.3355730907358279  0.455727585667347  1.0000
  H   H2        1.0  0.2907696584873349  0.6644256799128954  0.9557268033171624  1.0000
  H   H3        1.0  0.7907707743811229  0.6644265784958066  0.5442724143326529  1.0000
  H   H4        1.0  0.7092300723186183  0.3355739893187319  0.04427319668283759  1.0000
  H   H5        1.0  0.7454720177408731  0.8581898078203095  0.7988718510405235  1.0000
  H   H6        1.0  0.7545277027972189  0.1418098614113248  0.298871068690346  1.0000
  H   H7        1.0  0.254526649038354  0.1418098614113248  0.201128931309654  1.0000
  H   H8        1.0  0.24547209014365018  0.8581907064032138  0.7011289313096539  1.0000
  H   H9        1.0  0.090527836147551  0.3320892848067842  0.9165803473634779  1.0000
  H   H10       1.0  0.40947084089953717  0.6679103844248431  0.4165803473634782  1.0000
  H   H11       1.0  0.909470892766599  0.6679112830077543  0.0834196526365218  1.0000
  H   H12       1.0  0.590528952041339  0.3320901833896954  0.5834196526365218  1.0000
  H   H13       1.0  0.43571225055231355  0.5557546575155357  0.8664504772336128  1.0000
  H   H14       1.0  0.0642865507646135  0.444246808881914  0.3664512595837904  1.0000
  H   H15       1.0  0.5642875423885555  0.44424591029900273  0.133549522766387  1.0000
  H   H16       1.0  0.9357132421762557  0.5557537589326316  0.633549522766387  1.0000
  H   H17       1.0  0.5704428248133908  0.6582416323494016  0.8188045689250529  1.0000
  H   H18       1.0  0.9295579597514204  0.3417580368822257  0.3188053512752305  1.0000
  H   H19       1.0  0.4295579700192818  0.3417580368822257  0.1811946487247695  1.0000
  H   H20       1.0  0.07044389910797119  0.6582416323494016  0.681193866374592  1.0000
  H   H21       1.0  0.5218147233700989  0.5952141286947992  0.6358026912846169  1.0000
  H   H22       1.0  0.9781849971679932  0.4047855405368352  0.1358042559849792  1.0000
  H   H23       1.0  0.4781849453009244  0.40478464195392416  0.3641965263651982  1.0000
  H   H24       1.0  0.021814795772875994  0.5952150272777033  0.8641957440150208  1.0000
  H   H25       1.0  0.5530435373089375  0.4690908290846849  0.7139931153184164  1.0000
  H   H26       1.0  0.9469562453640705  0.5309097387298607  0.2139931153184165  1.0000
  H   H27       1.0  0.44695619349700866  0.5309088401469495  0.2860068846815834  1.0000
  H   H28       1.0  0.053043547576798696  0.4690908290846849  0.7860068846815835  1.0000
  H   H29       1.0  0.25772769253610045  0.552022842704261  0.6520028164606444  1.0000
  H   H30       1.0  0.24227204853770698  0.44797682652737336  0.1520028164606444  1.0000
  H   H31       1.0  0.7422720382698528  0.44797682652737336  0.3479971835393556  1.0000
  H   H32       1.0  0.7577276822682393  0.552022842704261  0.8479964011891709  1.0000
  H   H33       1.0  0.28584199523933757  0.4275906761244386  0.7324628383664518  1.0000
  H   H34       1.0  0.21415780796939288  0.5724098916900999  0.2324628383664518  1.0000
  H   H35       1.0  0.7141587995933348  0.5724089931071958  0.2675363792833707  1.0000
  H   H36       1.0  0.7858419849714834  0.4275906761244386  0.7675363792833707  1.0000
  H   H37       1.0  0.4087259290776188  0.2615649039620891  0.7905413863245199  1.0000
  H   H38       1.0  0.09127387413111168  0.7384356638524493  0.2905413863245201  1.0000
  H   H39       1.0  0.5912738638632504  0.7384356638524493  0.2094586136754799  1.0000
  H   H40       1.0  0.9087247926481152  0.2615640053791779  0.7094593960256645  1.0000
  H   H41       1.0  0.459318091370612  0.2925839858992845  0.9197261774370205  1.0000
  H   H42       1.0  0.04068171183811839  0.707416581915254  0.4197261774370205  1.0000
  H   H43       1.0  0.5406817015702572  0.707416581915254  0.08027382256297948  1.0000
  H   H44       1.0  0.9593180189678279  0.2925830873163804  0.5802746049131571  1.0000
  H   H45       1.0  0.45694603478894885  0.0667485354709996  0.9548349241120346  1.0000
  H   H46       1.0  0.0430537062848586  0.9332511337606347  0.4548357064622123  1.0000
  H   H47       1.0  0.5430536960170044  0.9332511337606347  0.045164293537787586  1.0000
  H   H48       1.0  0.9569460866560106  0.0667494340539037  0.5451642935377876  1.0000
  H   H49       1.0  0.41933161377116324  0.0399429087830327  0.8210671256454418  1.0000
  H   H50       1.0  0.08066925346428629  0.9600576590315056  0.32106790799561935  1.0000
  H   H51       1.0  0.5806692431964323  0.9600576590315056  0.17893209200438054  1.0000
  H   H52       1.0  0.91933047734166  0.0399420102001287  0.6789320920043804  1.0000
  H   H53       1.0  0.6781757345243733  0.1927038000775738  0.9044390549209851  1.0000
  H   H54       1.0  0.8218239860137188  0.8072958691540535  0.4044374902206229  1.0000
  H   H55       1.0  0.321823996281573  0.8072958691540535  0.0955617274291995  1.0000
  H   H56       1.0  0.17817574479222736  0.1927038000775738  0.5955617274291995  1.0000
  H   H57       1.0  0.6367670604038977  0.1677456598456644  0.7714027538726356  1.0000
  H   H58       1.0  0.8632348503225558  0.8322549079688741  0.2714011891722734  1.0000
  H   H59       1.0  0.3632337965636907  0.8322549079688741  0.2285980284775491  1.0000
  H   H60       1.0  0.13676594451010968  0.1677447612627532  0.728598028477549  1.0000
  C   C1        1.0  0.36272108579153434  0.7132636608887566  0.7909294320137688  1.0000
  C   C2        1.0  0.1372787795521191  0.286737805508686  0.2909263026130517  1.0000
  C   C3        1.0  0.6372786450144189  0.2867360083428707  0.209070567986231  1.0000
  C   C4        1.0  0.8627220152805535  0.7132618637229484  0.7090736973869481  1.0000
  C   C5        1.0  0.46595138811838405  0.6136207009544066  0.7995125958378961  1.0000
  C   C6        1.0  0.0340474131985431  0.38638076544304306  0.2995141605382585  1.0000
  C   C7        1.0  0.5340484048224851  0.3863798668601389  0.20048740416210353  1.0000
  C   C8        1.0  0.9659533816341295  0.6136189037885913  0.7004858394617415  1.0000
  C   C9        1.0  0.4777472417497037  0.5389601429904403  0.6998247535596959  1.0000
  C   C10       1.0  0.022252499324103798  0.4610395262411942  0.1998255359098735  1.0000
  C   C11       1.0  0.5222514250295234  0.4610395262411942  0.3001744640901265  1.0000
  C   C12       1.0  0.9777482955085688  0.5389601429904403  0.8001744640901265  1.0000
  C   C13       1.0  0.3326470588999939  0.4823035921439072  0.6676005319981256  1.0000
  C   C14       1.0  0.16735374620053275  0.5176960770877201  0.1676013143483033  1.0000
  C   C15       1.0  0.6673526719059523  0.5176960770877201  0.33239868565169667  1.0000
  C   C16       1.0  0.8326459846054134  0.4823035921439072  0.8323979033015192  1.0000
  C   C17       1.0  0.330419951077765  0.4015164959224792  0.5732076357377593  1.0000
  C   C18       1.0  0.16957972786111947  0.5984822747262442  0.0732068533875747  1.0000
  C   C19       1.0  0.6695797175932653  0.5984822747262442  0.4267923642622407  1.0000
  C   C20       1.0  0.8304200029448267  0.4015173945053832  0.9267923642622407  1.0000
  C   C21       1.0  0.2465008113599154  0.2228126175303444  0.9026936316695355  1.0000
  C   C22       1.0  0.2534999937406183  0.7771870517012829  0.4026936316695354  1.0000
  C   C23       1.0  0.7535000456076799  0.7771879502841942  0.0973063683304645  1.0000
  C   C24       1.0  0.7464997370653349  0.2228126175303444  0.5973063683304645  1.0000
  C   C25       1.0  0.40101930476148334  0.224851502145512  0.8706344859959287  1.0000
  C   C26       1.0  0.0989815003390433  0.7751481670861224  0.3706344859959287  1.0000
  C   C27       1.0  0.5989814900711821  0.7751481670861224  0.1293655140040713  1.0000
  C   C28       1.0  0.901018292601826  0.2248524007284232  0.6293662963542486  1.0000
  C   C29       1.0  0.4703977383702806  0.10477566549707971  0.8759396025661059  1.0000
  C   C30       1.0  0.029602064838449786  0.8952249023174587  0.37593960256610603  1.0000
  C   C31       1.0  0.5296020545705886  0.8952249023174587  0.12406039743389388  1.0000
  C   C32       1.0  0.9703976659674964  0.1047747669141756  0.6240603974338939  1.0000
  C   C33       1.0  0.6284367834998434  0.127091073400571  0.8499452354874037  1.0000
  C   C34       1.0  0.8715640631998909  0.8729094944139746  0.34994445313722616  1.0000
  C   C35       1.0  0.3715630094410258  0.8729094944139746  0.1500547645125963  1.0000
  C   C36       1.0  0.1284367937677047  0.127091073400571  0.6500547645125961  1.0000
  C   C37       1.0  0.7223494308396994  0.0220781820161378  0.8476114849006393  1.0000
  C   C38       1.0  0.7776503518333157  0.9779223857984077  0.3476107025504618  1.0000
  C   C39       1.0  0.27765036210117694  0.9779223857984077  0.1523892974495382  1.0000
  C   C40       1.0  0.22234944110755345  0.0220781820161378  0.6523892974495382  1.0000
  O   O1        1.0  0.6673854378223963  0.9234215353449002  0.8011375371616367  1.0000
  O   O2        1.0  0.8326153467424219  0.0765781338867342  0.3011359724612745  1.0000
  O   O3        1.0  0.3326142929835498  0.0765781338867342  0.1988632451885479  1.0000
  O   O4        1.0  0.1673855102251736  0.9234224339278043  0.6988632451885478  1.0000
  O   O5        1.0  0.351425362434817  0.7662126586624963  0.7034916288530724  1.0000
  O   O6        1.0  0.14857243699030676  0.2337897063178573  0.20349475825379668  1.0000
  O   O7        1.0  0.6485721781827607  0.2337861119862268  0.2965083711469276  1.0000
  O   O8        1.0  0.8514273559505625  0.766210861496681  0.7965060240963878  1.0000
  O   O9        1.0  0.2910131403705591  0.7414387279264432  0.8717039586919098  1.0000
  O   O10       1.0  0.2089854745415991  0.2585600427222801  0.371705523392272  1.0000
  O   O11       1.0  0.7089877165970291  0.2585618398880953  0.1282968236582676  1.0000
  O   O12       1.0  0.791013130102705  0.7414387279264432  0.6282944766077279  1.0000
  O   O13       1.0  0.20869945385663866  0.39663719073942627  0.5228782663119986  1.0000
  O   O14       1.0  0.291301413378811  0.6033633770751123  0.0228790486621833  1.0000
  O   O15       1.0  0.7913013409760338  0.6033624784922083  0.4771209513378166  1.0000
  O   O16       1.0  0.7086994435887845  0.39663719073942627  0.9771209513378167  1.0000
  O   O17       1.0  0.4318599229932473  0.3404721647428275  0.5458848380535102  1.0000
  O   O18       1.0  0.0681409442422023  0.659528403071711  0.0458848380535102  1.0000
  O   O19       1.0  0.568140996109271  0.6595293016546222  0.4541151619464898  1.0000
  O   O20       1.0  0.9318587865637437  0.3404712661599234  0.9541143795963052  1.0000
  O   O21       1.0  0.19588963463290546  0.3323471781009886  0.8966578000312919  1.0000
  O   O22       1.0  0.3041101064408949  0.6676524911306387  0.39665780003129203  1.0000
  O   O23       1.0  0.8041100961730406  0.6676524911306387  0.10334219996870789  1.0000
  O   O24       1.0  0.6958896864999743  0.3323480766838998  0.6033421999687079  1.0000
  O   O25       1.0  0.17454836031021156  0.1322282718778283  0.9299679236426215  1.0000
  O   O26       1.0  0.3254524447903222  0.8677713973538062  0.42996792364262143  1.0000
  O   O27       1.0  0.8254514326306648  0.8677722959367101  0.070031294007201  1.0000
  O   O28       1.0  0.6745483500423504  0.1322282718778283  0.5700320763573785  1.0000
  O   O29       1.0  0.8452095954855563  0.0312212630911901  0.8829698012830534  1.0000
  O   O30       1.0  0.6547911890792547  0.9687784061404372  0.3829698012830534  1.0000
  O   O31       1.0  0.1547900731854668  0.9687775075575331  0.11703019871694657  1.0000
  O   O32       1.0  0.3452085417266914  0.0312212630911901  0.6170301987169466  1.0000
