data_image0
_chemical_formula_structural       Sr2H60C40N8O32
_chemical_formula_sum              "Sr2 H60 C40 N8 O32"
_cell_length_a       5.945052795499778
_cell_length_b       10.340678192800432
_cell_length_c       22.008077481851576
_cell_angle_alpha    98.34964267154494
_cell_angle_beta     97.749634404176
_cell_angle_gamma    90.00309850746011

_space_group_name_H-M_alt    "P 1"
_space_group_IT_number       1

loop_
  _space_group_symop_operation_xyz
  'x, y, z'

loop_
  _atom_site_type_symbol
  _atom_site_label
  _atom_site_symmetry_multiplicity
  _atom_site_fract_x
  _atom_site_fract_y
  _atom_site_fract_z
  _atom_site_occupancy
  Sr  Sr1       1.0  0.941371224485067  0.24998830583629678  1.1815270148901428e-05  1.0000
  Sr  Sr2       1.0  0.058627467333757004  0.7500114171710168  0.9999880556375446  1.0000
  H   H1        1.0  0.39886543573641836  0.36108286945771084  0.0857595571980454  1.0000
  H   H2        1.0  0.6866461723861476  0.8610279509267189  0.08573681726936401  1.0000
  H   H3        1.0  0.6011349524889624  0.6389168472337446  0.914240829694414  1.0000
  H   H4        1.0  0.3133542522849453  0.13897274892503483  0.9142631862472185  1.0000
  H   H5        1.0  0.3420859805208778  0.484860774927654  0.051909279985714825  1.0000
  H   H6        1.0  0.709692930659365  0.9848596622557935  0.051926474932408005  1.0000
  H   H7        1.0  0.6579127090143615  0.5151389369486381  0.948091498821711  1.0000
  H   H8        1.0  0.2903074940117207  0.01514103759596711  0.9480735285841816  1.0000
  H   H9        1.0  0.48689528842243857  0.3192197080059886  0.9142700302915827  1.0000
  H   H10       1.0  0.4274604023576245  0.8191322610607374  0.9142560635869117  1.0000
  H   H11       1.0  0.5131050644990296  0.6807790310906728  0.08573028602688033  1.0000
  H   H12       1.0  0.5725416845579047  0.18086746044588153  0.08574393139058861  1.0000
  H   H13       1.0  0.4669722029252766  0.3661584106584855  0.9855265577855689  1.0000
  H   H14       1.0  0.5185164275144275  0.8661695859820497  0.9855037236922116  1.0000
  H   H15       1.0  0.5330265230556676  0.6338422843781047  0.014473837645979913  1.0000
  H   H16       1.0  0.48148396185274567  0.13383013627490933  0.014496209250381795  1.0000
  H   H17       1.0  0.573611022965153  0.30825393890282277  0.2792940133108814  1.0000
  H   H18       1.0  0.705858915133028  0.8082181444946318  0.27931107384422665  1.0000
  H   H19       1.0  0.4263910639503692  0.6917457826037962  0.7207059816666188  1.0000
  H   H20       1.0  0.2941414730923526  0.19178157219682396  0.7206893130482257  1.0000
  H   H21       1.0  0.44038253676016126  0.89919017216085  0.1849499818905684  1.0000
  H   H22       1.0  0.7447299537746729  0.3992790861488374  0.18496445218527674  1.0000
  H   H23       1.0  0.5596144586521064  0.1008095571623144  0.8150493730323447  1.0000
  H   H24       1.0  0.25526873690235863  0.6007206312929654  0.815035872672283  1.0000
  H   H25       1.0  0.9275679754916909  0.023348252689267206  0.19396962489646094  1.0000
  H   H26       1.0  0.2666574192114338  0.5235037728262951  0.1938747695813419  1.0000
  H   H27       1.0  0.0724307527728385  0.9766524534783445  0.8060298626353557  1.0000
  H   H28       1.0  0.7333429690139466  0.4764959438651602  0.8061256173111175  1.0000
  H   H29       1.0  0.9558527939557139  0.19063465785355055  0.18623343642279616  1.0000
  H   H30       1.0  0.230515421796369  0.690773015240737  0.18615011337596601  1.0000
  H   H31       1.0  0.044144237902259  0.8093660546299193  0.8137655351242472  1.0000
  H   H32       1.0  0.769485000591139  0.3092276734800025  0.813850798040356  1.0000
  H   H33       1.0  0.0229308209933521  0.07130144889055863  0.3025550818039164  1.0000
  H   H34       1.0  0.28003137313379517  0.5714036072020934  0.3024746086118881  1.0000
  H   H35       1.0  0.9770662461685332  0.9287002411877054  0.6974439603171163  1.0000
  H   H36       1.0  0.7199706773360217  0.4285951311442204  0.6975257697414818  1.0000
  H   H37       1.0  0.0295457544576436  0.23911162411235415  0.2959813975500296  1.0000
  H   H38       1.0  0.2667556307895467  0.7392037981156039  0.29590745461514  1.0000
  H   H39       1.0  0.9704530455565107  0.7608910428103501  0.7040177771798994  1.0000
  H   H40       1.0  0.7332463832345653  0.26079395707041203  0.7040933071141069  1.0000
  H   H41       1.0  0.688145017951541  0.20159035499791142  0.4683926442604758  1.0000
  H   H42       1.0  0.7797974215021808  0.7017834672621108  0.4683142962278097  1.0000
  H   H43       1.0  0.3118520503521367  0.7984113406458634  0.5316059439106908  1.0000
  H   H44       1.0  0.2202012338709309  0.29821527258489783  0.5316859580557534  1.0000
  H   H45       1.0  0.9378453458435486  0.2426589336034227  0.437256173317529  1.0000
  H   H46       1.0  0.49909753108919835  0.7427977950659612  0.4371127304403545  1.0000
  H   H47       1.0  0.06215338470456539  0.7573417836952034  0.5627424063145483  1.0000
  H   H48       1.0  0.5009011595878264  0.2572019223758418  0.5628875944172052  1.0000
  H   H49       1.0  0.7972189218609315  0.4376610233694008  0.5040713560520587  1.0000
  H   H50       1.0  0.7063070204678609  0.9377188268664657  0.5040859965661114  1.0000
  H   H51       1.0  0.20277980868718257  0.562339693929232  0.4959272235800185  1.0000
  H   H52       1.0  0.2936967298338971  0.06227992186052232  0.49591353592243337  1.0000
  H   H53       1.0  0.5315154378753205  0.42399262878556243  0.4553614987873473  1.0000
  H   H54       1.0  0.9234549867028932  0.9242574965882183  0.4554037314416561  1.0000
  H   H55       1.0  0.46848159398265204  0.5760080836979072  0.544637472759689  1.0000
  H   H56       1.0  0.0765453331982471  0.07574027604466953  0.5445956064030852  1.0000
  H   H57       1.0  0.7814560098883092  0.46437642745310387  0.42493184032769443  1.0000
  H   H58       1.0  0.6431388593233649  0.9646625945355966  0.42497183604078265  1.0000
  H   H59       1.0  0.2185410219696635  0.535624285030366  0.5750671312193418  1.0000
  H   H60       1.0  0.3568614958816881  0.035336155692085904  0.5750275723779482  1.0000
  C   C1        1.0  0.2627987975329091  0.07991255236709091  0.17899656124289723  1.0000
  C   C2        1.0  0.9164131999570698  0.5799655299284227  0.17897203996132302  1.0000
  C   C3        1.0  0.7371999307316202  0.9200881538005206  0.8210029262889122  1.0000
  C   C4        1.0  0.0835889199787871  0.4200351580419694  0.8210289334899059  1.0000
  C   C5        1.0  0.4159633792637934  0.20375214869604014  0.19664174856598046  1.0000
  C   C6        1.0  0.7807490553656962  0.7037120376297992  0.1966461402997624  1.0000
  C   C7        1.0  0.584035349000736  0.7962485574715716  0.8033577389658292  1.0000
  C   C8        1.0  0.21925306571195335  0.2962886559061034  0.8033543792015935  1.0000
  C   C9        1.0  0.3562495525255613  0.14704903259953286  0.2951273979233804  1.0000
  C   C10       1.0  0.9391885907767872  0.6471043396218265  0.2951176224900749  1.0000
  C   C11       1.0  0.6437474428866992  0.8529506967236388  0.7048719569995399  1.0000
  C   C12       1.0  0.060811796306808205  0.35289537150411837  0.7048832183522507  1.0000
  C   C13       1.0  0.4394798685853586  0.008453936109035005  0.2725170654113782  1.0000
  C   C14       1.0  0.8333480595162114  0.5084843601998799  0.2725287074577949  1.0000
  C   C15       1.0  0.5605170903811966  0.9915448100538315  0.7274826728874118  1.0000
  C   C16       1.0  0.166654061561438  0.4915163333360226  0.7274718120435608  1.0000
  C   C17       1.0  0.03924658234156909  0.11036363456044285  0.207342956269116  1.0000
  C   C18       1.0  0.1683034505099101  0.6104807190283665  0.20725913749511451  1.0000
  C   C19       1.0  0.9607538434713164  0.8896370708568214  0.7926565932976003  1.0000
  C   C20       1.0  0.8316986705677395  0.389519974507536  0.7927413820062412  1.0000
  C   C21       1.0  0.09515298928383227  0.14371279484982588  0.2784537274037646  1.0000
  C   C22       1.0  0.1836455519940188  0.643801940522579  0.2783942079994262  1.0000
  C   C23       1.0  0.904844076736261  0.8562888896629279  0.7215457686671344  1.0000
  C   C24       1.0  0.8163548715352817  0.356198753763671  0.7216062494670297  1.0000
  C   C25       1.0  0.21184942183182193  0.03232928274066891  0.10880315660349281  1.0000
  C   C26       1.0  0.896809456514731  0.5323609183231854  0.10877899545068463  1.0000
  C   C27       1.0  0.7881510039810565  0.9676714226765956  0.8911963929632237  1.0000
  C   C28       1.0  0.1031926987250387  0.4676407472420011  0.8912220485745337  1.0000
  C   C29       1.0  0.4349652494490996  0.1844799668165606  0.36444317838829227  1.0000
  C   C30       1.0  0.9295642746412085  0.6845818507826851  0.3644217993890848  1.0000
  C   C31       1.0  0.565028240387548  0.8155168089608795  0.6355576565423037  1.0000
  C   C32       1.0  0.0704361135841722  0.3154178659087706  0.6355785875033746  1.0000
  C   C33       1.0  0.7574117516613939  0.2627615528892449  0.4383515462338964  1.0000
  C   C34       1.0  0.6806310003004156  0.7629860352476998  0.4382655235899621  1.0000
  C   C35       1.0  0.24258531550049162  0.7372401371890192  0.5616474958871365  1.0000
  C   C36       1.0  0.31936938792496516  0.23701368144375587  0.5617348633024974  1.0000
  C   C37       1.0  0.7139762165968121  0.40641183040296625  0.45655464299944987  1.0000
  C   C38       1.0  0.7421706160214683  0.9066230501584944  0.4565643841070184  1.0000
  C   C39       1.0  0.28602081640295307  0.5935888876460069  0.5434438745977275  1.0000
  C   C40       1.0  0.2578297357582002  0.0933756833726562  0.5434363861613107  1.0000
  N   N1        1.0  0.4529352694877317  0.2360110181871279  0.2585088717388686  1.0000
  N   N2        1.0  0.8058068690626142  0.7360286481497056  0.2585064474711203  1.0000
  N   N3        1.0  0.5470633870271795  0.7639877272253843  0.7414909285948212  1.0000
  N   N4        1.0  0.1941935533248937  0.2639720405710336  0.7414944639452017  1.0000
  N   N5        1.0  0.3812706704824437  0.9798164783400766  0.21107861856243204  1.0000
  N   N6        1.0  0.8301632956087844  0.47983880617363905  0.21108835039938612  1.0000
  N   N7        1.0  0.6187263590919371  0.020184223012378804  0.7889212608843437  1.0000
  N   N8        1.0  0.1698388254688652  0.5201618873622638  0.7889121691019696  1.0000
  O   O1        1.0  0.3138555318526102  0.3882502247744385  0.0486528215334729  1.0000
  O   O2        1.0  0.7346206442930238  0.8882380237063434  0.048642825940078245  1.0000
  O   O3        1.0  0.6861448563727706  0.6117494919170172  0.9513475653589865  1.0000
  O   O4        1.0  0.265381441480713  0.11176169223476509  0.9513576229872812  1.0000
  O   O5        1.0  0.5724862604284622  0.3619043266219323  0.9536339688467096  1.0000
  O   O6        1.0  0.3811841465426652  0.8619160787114309  0.9536045578136765  1.0000
  O   O7        1.0  0.42751416310083806  0.6380963676643178  0.04636648861973921  1.0000
  O   O8        1.0  0.6188196367794205  0.1380836364793296  0.04639595314858981  1.0000
  O   O9        1.0  0.5018777252934825  0.2647185472041543  0.1597699025565689  1.0000
  O   O10       1.0  0.6577434135434714  0.7645704579655334  0.1597799499406563  1.0000
  O   O11       1.0  0.49812602272469064  0.7352801903918122  0.8402305378317011  1.0000
  O   O12       1.0  0.34225697354011697  0.23542925316041166  0.8402208909016693  1.0000
  O   O13       1.0  0.5429933464139154  0.93688740318634  0.3073371166738994  1.0000
  O   O14       1.0  0.7645697284715138  0.43694441114025323  0.3073595337412129  1.0000
  O   O15       1.0  0.45699851990758594  0.0631113452275684  0.6926624355201838  1.0000
  O   O16       1.0  0.2354323903225506  0.5630562712646284  0.6926418936598752  1.0000
  O   O17       1.0  0.11866144519704852  0.11477750374383083  0.0773716471404313  1.0000
  O   O18       1.0  0.958655374295823  0.6147487586607809  0.0773205914309898  1.0000
  O   O19       1.0  0.8813424110164547  0.8852241777675333  0.9226280970700884  1.0000
  O   O20       1.0  0.04135180183938301  0.38525094389827086  0.9226809515008227  1.0000
  O   O21       1.0  0.2630409404491303  0.9159549265782306  0.09046446507159801  1.0000
  O   O22       1.0  0.8270615385172989  0.41601931177391566  0.09045221331616203  1.0000
  O   O23       1.0  0.7369594842219627  0.08404577327353022  0.9095355384449917  1.0000
  O   O24       1.0  0.1729371886054381  0.5839813888281926  0.9095477281655207  1.0000
  O   O25       1.0  0.3113322927564823  0.17964978694983105  0.40416787095161055  1.0000
  O   O26       1.0  0.0927102550553158  0.6796510537042266  0.4041822113444411  1.0000
  O   O27       1.0  0.6886713163296108  0.8203450513979793  0.5958313792409557  1.0000
  O   O28       1.0  0.9072901331700649  0.3203486629872287  0.5958181755480183  1.0000
  O   O29       1.0  0.6548066652930301  0.21880856165998355  0.374182511524964  1.0000
  O   O30       1.0  0.7194824837815688  0.7190942814823843  0.3741191595324551  1.0000
  O   O31       1.0  0.3451887031787138  0.7811931236031173  0.625816922511035  1.0000
  O   O32       1.0  0.280514437597489  0.2809034759546663  0.6258814160920778  1.0000
