data_image0
_chemical_formula_structural       Cu2H34C36N4Cl2O6
_chemical_formula_sum              "Cu2 H34 C36 N4 Cl2 O6"
_cell_length_a       7.735189275620428
_cell_length_b       11.391595000189406
_cell_length_c       11.391438124530428
_cell_angle_alpha    112.4484104352885
_cell_angle_beta     103.58108128164167
_cell_angle_gamma    103.57914201728309

_space_group_name_H-M_alt    "P 1"
_space_group_IT_number       1

loop_
  _space_group_symop_operation_xyz
  'x, y, z'

loop_
  _atom_site_type_symbol
  _atom_site_label
  _atom_site_symmetry_multiplicity
  _atom_site_fract_x
  _atom_site_fract_y
  _atom_site_fract_z
  _atom_site_occupancy
  Cu  Cu1       1.0  0.5022239203484204  0.8498577044241385  0.8979071942249419  1.0000
  Cu  Cu2       1.0  0.002226429386176562  0.8979020185084393  0.8498639343736085  1.0000
  H   H1        1.0  0.843102972929934  0.9562409776661913  0.16516390258955482  1.0000
  H   H2        1.0  0.3431130681394093  0.16514554503417136  0.9562300040375789  1.0000
  H   H3        1.0  0.9171063282215713  0.8773336951900675  0.3442173343714003  1.0000
  H   H4        1.0  0.41711166592690313  0.34418294445980985  0.8773117177162959  1.0000
  H   H5        1.0  0.6810780153208783  0.6638779755912197  0.3115895815906882  1.0000
  H   H6        1.0  0.18107362631835855  0.31155588149900393  0.6638482966121372  1.0000
  H   H7        1.0  0.377818220297172  0.5413125608106882  0.10630570792457658  1.0000
  H   H8        1.0  0.8777963560103147  0.10628883975873292  0.5413040143133472  1.0000
  H   H9        1.0  0.22427057169242207  0.5111733332810219  0.8624132632871593  1.0000
  H   H10       1.0  0.724235154864985  0.8624166133942096  0.5111749642342645  1.0000
  H   H11       1.0  0.16002150212674585  0.6515114091659554  0.9466394536743153  1.0000
  H   H12       1.0  0.6600166760539635  0.9466489617166334  0.6515290237051092  1.0000
  H   H13       1.0  0.06329626496083317  0.5134115783058493  0.6640729588211371  1.0000
  H   H14       1.0  0.5632888172091056  0.6640758539640287  0.5134093702317486  1.0000
  H   H15       1.0  0.3442660258427566  0.0383659278167272  0.6657940380795467  1.0000
  H   H16       1.0  0.8442596533021243  0.6658008307443666  0.03837447131851948  1.0000
  H   H17       1.0  0.35125269531545195  0.14070072807609085  0.5088927113270856  1.0000
  H   H18       1.0  0.8512682147550306  0.5089083958713514  0.14071687315573195  1.0000
  H   H19       1.0  0.2886140384640896  0.9900945757474845  0.26209514965007935  1.0000
  H   H20       1.0  0.7886814107297937  0.2621214072487277  0.9901216031834537  1.0000
  H   H21       1.0  0.22043494893430451  0.7445749229883065  0.1807974320518682  1.0000
  H   H22       1.0  0.720509585414092  0.18082588480172748  0.7445988271360662  1.0000
  H   H23       1.0  0.21188903168472714  0.6428857559817092  0.33716540188338234  1.0000
  H   H24       1.0  0.7119328838584806  0.3371789513739359  0.6428939550682101  1.0000
  H   H25       1.0  0.8091979577889745  0.3174811072892751  0.22874472731587758  1.0000
  H   H26       1.0  0.30919682304647017  0.2287383599918584  0.317463246508936  1.0000
  H   H27       1.0  0.6573573623841894  0.3759379833684592  0.3141894188506242  1.0000
  H   H28       1.0  0.15736391750120757  0.3141946643213629  0.3759348467618082  1.0000
  H   H29       1.0  0.8349668742418217  0.16755103565308357  0.3430138995210257  1.0000
  H   H30       1.0  0.33494630447222545  0.3430155479404532  0.16753579925369164  1.0000
  H   H31       1.0  0.5961541328512326  0.12412597615089992  0.23878996736728908  1.0000
  H   H32       1.0  0.09614259423136669  0.23880351963380522  0.124115006283624  1.0000
  H   H33       1.0  0.6706218272321252  0.218548013079733  0.419224755485807  1.0000
  H   H34       1.0  0.17061746990112428  0.41923299157189575  0.21854425004562464  1.0000
  C   C1        1.0  0.7441451242372709  0.8672588104981217  0.1601972794046986  1.0000
  C   C2        1.0  0.24414838029701968  0.16018611121036488  0.8672526368070663  1.0000
  C   C3        1.0  0.78263964975757  0.8224291004767752  0.2577369508877326  1.0000
  C   C4        1.0  0.28263342848557466  0.25771578549195334  0.8224178143047353  1.0000
  C   C5        1.0  0.6501099703102683  0.7040427723663355  0.23965517233683908  1.0000
  C   C6        1.0  0.15009760387567886  0.23964214656964336  0.7040353360879692  1.0000
  C   C7        1.0  0.483874870925824  0.6348494676462265  0.12490179539609858  1.0000
  C   C8        1.0  0.9838643804054497  0.12489443935538702  0.6348443519611066  1.0000
  C   C9        1.0  0.45268865109336076  0.6863147027880601  0.0319714405671832  1.0000
  C   C10       1.0  0.9526831955409419  0.0319691920034089  0.6863175146195459  1.0000
  C   C11       1.0  0.2723968857218679  0.6231265540755331  0.9108481619484434  1.0000
  C   C12       1.0  0.772387258856959  0.9108531509698562  0.6231349873917295  1.0000
  C   C13       1.0  0.1718856313374886  0.6108247558217101  0.6924541582827501  1.0000
  C   C14       1.0  0.6718792238809358  0.6924508750154459  0.6108246153728345  1.0000
  C   C15       1.0  0.15409281051618964  0.6545299173072437  0.5900262986687039  1.0000
  C   C16       1.0  0.6540999964833675  0.5900257523124567  0.6545285422906346  1.0000
  C   C17       1.0  0.277141220662486  0.7830308640905628  0.6157777668490851  1.0000
  C   C18       1.0  0.7771547106452841  0.6157801729752349  0.7830393119504038  1.0000
  C   C19       1.0  0.2713994927980678  0.8336767854283024  0.5120925250744293  1.0000
  C   C20       1.0  0.7714191918936278  0.5121031660608608  0.8336825615021225  1.0000
  C   C21       1.0  0.314749215241079  0.9742951590816203  0.5587309004574266  1.0000
  C   C22       1.0  0.8147509467965148  0.5587415291266707  0.9742994097168134  1.0000
  C   C23       1.0  0.32120020913384906  0.03154004559403489  0.47055634998460494  1.0000
  C   C24       1.0  0.8212276803621279  0.47057570710629903  0.031556065060414064  1.0000
  C   C25       1.0  0.28663141848981155  0.9484753579466839  0.3338398300212119  1.0000
  C   C26       1.0  0.7866746438853057  0.3338625905093124  0.9484982686255775  1.0000
  C   C27       1.0  0.24752399347624987  0.8089800135155727  0.2873616976640675  1.0000
  C   C28       1.0  0.7475965615828528  0.28738440993543435  0.8090029884196425  1.0000
  C   C29       1.0  0.24068350723116083  0.7515563656342225  0.37525910084041675  1.0000
  C   C30       1.0  0.7407260942190703  0.37527185699971  0.7515702672370637  1.0000
  C   C31       1.0  0.989469918687625  0.564315201584769  0.4623785148262272  1.0000
  C   C32       1.0  0.48947895023409416  0.46237908327287863  0.5643131925252192  1.0000
  C   C33       1.0  0.7707267521255828  0.3334913758306328  0.31919149103779176  1.0000
  C   C34       1.0  0.27072793858234684  0.31919077156742054  0.3334856285572272  1.0000
  C   C35       1.0  0.7152786264930955  0.20364723976486943  0.3314635250661055  1.0000
  C   C36       1.0  0.2152746898426088  0.33146697720788154  0.2036377527232673  1.0000
  N   N1        1.0  0.5817129826131407  0.800513640516094  0.05007735947373252  1.0000
  N   N2        1.0  0.08171230020822412  0.0500664720557396  0.8005147835008017  1.0000
  N   N3        1.0  0.29699976097242603  0.6758352079878591  0.815795523541439  1.0000
  N   N4        1.0  0.7969909706410903  0.8157932915493902  0.6758391465041527  1.0000
  Cl  Cl1       1.0  0.7754907572154935  0.028488952931489595  0.9784787860041321  1.0000
  Cl  Cl2       1.0  0.2754996547798356  0.9784727092019027  0.028492730574058066  1.0000
  O   O1        1.0  0.41029605195909374  0.8679265201480036  0.7315060468449629  1.0000
  O   O2        1.0  0.9103065962935234  0.7315141459811729  0.8679334131903077  1.0000
  O   O3        1.0  0.9024709967410515  0.5979819334851939  0.38317240756997245  1.0000
  O   O4        1.0  0.40249086420401176  0.38317796497990747  0.5979872852160283  1.0000
  O   O5        1.0  0.9372745354621512  0.432154808932765  0.43977639498741883  1.0000
  O   O6        1.0  0.4372908295724471  0.4397730735210246  0.4321512741473654  1.0000
