data_image0
_chemical_formula_structural       Cu6H32C24Br6N8
_chemical_formula_sum              "Cu6 H32 C24 Br6 N8"
_cell_length_a       7.082078263562757
_cell_length_b       9.777188302312535
_cell_length_c       12.80902177582481
_cell_angle_alpha    83.29115983686872
_cell_angle_beta     84.1473823041616
_cell_angle_gamma    80.65330547936833

_space_group_name_H-M_alt    "P 1"
_space_group_IT_number       1

loop_
  _space_group_symop_operation_xyz
  'x, y, z'

loop_
  _atom_site_type_symbol
  _atom_site_label
  _atom_site_symmetry_multiplicity
  _atom_site_fract_x
  _atom_site_fract_y
  _atom_site_fract_z
  _atom_site_occupancy
  Cu  Cu1       1.0  0.24720263953684452  0.42631212491654924  0.267431685469063  1.0000
  Cu  Cu2       1.0  0.7527888671958748  0.5736880865530053  0.7325728353508933  1.0000
  Cu  Cu3       1.0  0.23488395001195525  0.755465468274096  0.31918340934953443  1.0000
  Cu  Cu4       1.0  0.7651355948682194  0.24451691228861694  0.6808112080286505  1.0000
  Cu  Cu5       1.0  0.13652399019672148  0.7732724607961784  0.13668776179994782  1.0000
  Cu  Cu6       1.0  0.8634750019427313  0.22672664638590595  0.863309463067921  1.0000
  H   H1        1.0  0.6132078106536197  0.4763075170949448  0.3263586678126629  1.0000
  H   H2        1.0  0.38678826567079483  0.5236916171598197  0.6736418218453364  1.0000
  H   H3        1.0  0.8057659187628302  0.4069927978296021  0.48223314579784216  1.0000
  H   H4        1.0  0.1942332502318323  0.5930052781239821  0.517765726313108  1.0000
  H   H5        1.0  0.872244623420329  0.48428154649395333  0.1788187409320443  1.0000
  H   H6        1.0  0.12774652960197133  0.5157207274326081  0.8211824854017493  1.0000
  H   H7        1.0  0.7287543325262222  0.4079673190838092  0.02798694846909201  1.0000
  H   H8        1.0  0.2712373073040055  0.5920328547448362  0.9720121038119132  1.0000
  H   H9        1.0  0.5248052422259448  0.0747860464100398  0.6869105368304956  1.0000
  H   H10       1.0  0.475201725341755  0.9252151603110188  0.313090786017554  1.0000
  H   H11       1.0  0.3839468865558827  0.008262420115443099  0.6012778110261721  1.0000
  H   H12       1.0  0.6160594826365654  0.9917346322097627  0.3987254834304466  1.0000
  H   H13       1.0  0.27760679739414945  0.1454021708811624  0.676266570829192  1.0000
  H   H14       1.0  0.7223991610460985  0.8545969600328646  0.3237357728008234  1.0000
  H   H15       1.0  0.09088735363337724  0.18431740892950899  0.5193162352107663  1.0000
  H   H16       1.0  0.9091117583194971  0.8156806831558966  0.4806849805597295  1.0000
  H   H17       1.0  0.2300831213499279  0.0705027095405626  0.4328151241411291  1.0000
  H   H18       1.0  0.7699187733204766  0.9294953931130717  0.5671882953781946  1.0000
  H   H19       1.0  0.11145430075827528  0.23433795418221587  0.3800445110581663  1.0000
  H   H20       1.0  0.8885495386275722  0.765658034837166  0.6199551020133072  1.0000
  H   H21       1.0  0.17909816410391244  0.07816760123403547  0.8890826582714269  1.0000
  H   H22       1.0  0.8208980320339235  0.921830517924043  0.11092182228919974  1.0000
  H   H23       1.0  0.3137793804554505  0.014243676825714096  1.0867664791202308e-05  1.0000
  H   H24       1.0  0.68621791736323  0.9857627780104323  0.9999935757779352  1.0000
  H   H25       1.0  0.39698795487049676  0.1419448950807691  0.902955851528823  1.0000
  H   H26       1.0  0.6030077107017177  0.8580563177628164  0.09704368730256623  1.0000
  H   H27       1.0  0.4905198229216835  0.270785137541047  0.16833796043542998  1.0000
  H   H28       1.0  0.509480251884689  0.7292223106963788  0.831660008534392  1.0000
  H   H29       1.0  0.5384987364694779  0.2075750387515569  0.0411610244616583  1.0000
  H   H30       1.0  0.461498302708435  0.7924334516552348  0.9588362183956605  1.0000
  H   H31       1.0  0.44785449322503  0.10040039529605588  0.1505637424948532  1.0000
  H   H32       1.0  0.5521472353579995  0.8996060027992525  0.8494334601031354  1.0000
  C   C1        1.0  0.5729391112980197  0.3980939862119968  0.3887717835931284  1.0000
  C   C2        1.0  0.42705858077518855  0.6019041086551977  0.6112295021327296  1.0000
  C   C3        1.0  0.6786876486939805  0.3601274852609109  0.4748005054730982  1.0000
  C   C4        1.0  0.32131554604266205  0.6398716297076132  0.5251988531882432  1.0000
  C   C5        1.0  0.46913127546272887  0.20773906963528077  0.545605358733077  1.0000
  C   C6        1.0  0.5308694522389458  0.792257983062555  0.45439665310529165  1.0000
  C   C7        1.0  0.3607626490047906  0.24661293562775904  0.457221439763174  1.0000
  C   C8        1.0  0.6392378638138111  0.753385159053124  0.5427804872718198  1.0000
  C   C9        1.0  0.9535245919679338  0.4075830615486282  0.1295809381739659  1.0000
  C   C10       1.0  0.046468644597162316  0.5924160782697213  0.8704196913947513  1.0000
  C   C11       1.0  0.874561305160853  0.36503399607703096  0.047115694402137386  1.0000
  C   C12       1.0  0.12543414552828847  0.6349682587496018  0.9528837596258696  1.0000
  C   C13       1.0  0.15766123705595453  0.2180320088165501  0.0076140939622675085  1.0000
  C   C14       1.0  0.8423351847327821  0.7819723325716551  0.9923859017234734  1.0000
  C   C15       1.0  0.24019847086767504  0.2651788224467921  0.090091316580903  1.0000
  C   C16       1.0  0.7597989600485135  0.7348275947484452  0.9099076583228722  1.0000
  C   C17       1.0  0.4117024416549953  0.1027159538341493  0.6321759776672522  1.0000
  C   C18       1.0  0.5883035167852527  0.8972831770798778  0.3678263659627632  1.0000
  C   C19       1.0  0.188603620936  0.18075058631136898  0.4469377290298198  1.0000
  C   C20       1.0  0.8113973216487408  0.8192454244034123  0.5530643676119239  1.0000
  C   C21       1.0  0.2679388616324587  0.10691622259847118  0.9459504625754673  1.0000
  C   C22       1.0  0.7320577179975557  0.8930870929385076  0.054051961573200906  1.0000
  C   C23       1.0  0.44129712819186306  0.2083569662112552  0.11364733300796098  1.0000
  C   C24       1.0  0.5586987630312521  0.7916504688624642  0.8863477209485493  1.0000
  Br  Br1       1.0  0.9796742957350872  0.6010049096864449  0.3366929701836057  1.0000
  Br  Br2       1.0  0.020324190582513803  0.39899630297082916  0.663307209956912  1.0000
  Br  Br3       1.0  0.09320317299480507  0.9773222708755894  0.2299429676623319  1.0000
  Br  Br4       1.0  0.9068342699790506  0.0226767289344352  0.7700476810916753  1.0000
  Br  Br5       1.0  0.44774650137963345  0.6176816484220139  0.16329905047995644  1.0000
  Br  Br6       1.0  0.5522530973811612  0.3823143435654756  0.8366999912377506  1.0000
  N   N1        1.0  0.41085300468000696  0.3447540562860069  0.3798397386181307  1.0000
  N   N2        1.0  0.5891459114037262  0.6552450724051724  0.620160611129144  1.0000
  N   N3        1.0  0.6258167903408419  0.26738206118721314  0.5550477842006954  1.0000
  N   N4        1.0  0.37418967392125785  0.732614964251624  0.44495160415667095  1.0000
  N   N5        1.0  0.1373672959768868  0.3598747839950747  0.150895316733326  1.0000
  N   N6        1.0  0.8626279208152567  0.6401285181918722  0.8491048337111592  1.0000
  N   N7        1.0  0.975927068191595  0.2709639317849764  0.9849062702976139  1.0000
  N   N8        1.0  0.024067392384019108  0.7290362418573579  0.015093423292519524  1.0000
