data_image0
_chemical_formula_structural       Be2Cd2H40C44S4N8O8
_chemical_formula_sum              "Be2 Cd2 H40 C44 S4 N8 O8"
_cell_length_a       7.140400965420024
_cell_length_b       11.863090806702118
_cell_length_c       15.887117596093173
_cell_angle_alpha    78.474210343627
_cell_angle_beta     78.56415163557179
_cell_angle_gamma    76.41644213444683

_space_group_name_H-M_alt    "P 1"
_space_group_IT_number       1

loop_
  _space_group_symop_operation_xyz
  'x, y, z'

loop_
  _atom_site_type_symbol
  _atom_site_label
  _atom_site_symmetry_multiplicity
  _atom_site_fract_x
  _atom_site_fract_y
  _atom_site_fract_z
  _atom_site_occupancy
  Be  Be1       1.0  0.3811821162051033  0.27468251141185357  0.4928946653260056  1.0000
  Be  Be2       1.0  0.6188176659257892  0.7253163728635387  0.5071052753288471  1.0000
  Cd  Cd1       1.0  0.4622061259903703  0.25292836056314627  0.023021427779681906  1.0000
  Cd  Cd2       1.0  0.5377933932184645  0.7470757727867293  0.9769802861945679  1.0000
  H   H1        1.0  0.6110711196571331  0.5531606869106298  0.3666754167085671  1.0000
  H   H2        1.0  0.38892950295265655  0.4468399547762231  0.6333235597948674  1.0000
  H   H3        1.0  0.7462424739922324  0.48972680634928173  0.2731904742311784  1.0000
  H   H4        1.0  0.2537596006806381  0.5102738217958277  0.7268096296007869  1.0000
  H   H5        1.0  0.8535087985900632  0.4710506089611571  0.3680811094863543  1.0000
  H   H6        1.0  0.14649240294006927  0.5289482754752299  0.6319180711068315  1.0000
  H   H7        1.0  0.6606395420953247  0.9774054819131307  0.4028000236938354  1.0000
  H   H8        1.0  0.339371649669225  0.022593380812324395  0.5971969821180423  1.0000
  H   H9        1.0  0.8744768069990199  0.028563081771274305  0.3424355967947648  1.0000
  H   H10       1.0  0.12553355993679835  0.9714383985595558  0.6575636194027511  1.0000
  H   H11       1.0  0.6667875214674267  0.04594044919250711  0.2920980714230268  1.0000
  H   H12       1.0  0.3332214213069308  0.9540566513929181  0.7079012877319996  1.0000
  H   H13       1.0  0.37551173574302515  0.2782703390328507  0.23300772468152084  1.0000
  H   H14       1.0  0.6244886144202579  0.7217267925596647  0.7669917909330125  1.0000
  H   H15       1.0  0.10509103051511202  0.2789001094001192  0.3597496389646225  1.0000
  H   H16       1.0  0.8949118907623729  0.721097892004458  0.6402495127418392  1.0000
  H   H17       1.0  0.7423140964743311  0.2291291950666761  0.1884149162190525  1.0000
  H   H18       1.0  0.2576882458828181  0.7708705635883532  0.8115840313976648  1.0000
  H   H19       1.0  0.029279838993801426  0.2225849601640775  0.0706767687986485  1.0000
  H   H20       1.0  0.9707219135550601  0.7774165603089925  0.9293213455982468  1.0000
  H   H21       1.0  0.3530579741961901  0.1188434582590503  0.7793022105092859  1.0000
  H   H22       1.0  0.6469421082828146  0.8811545428235378  0.22069846132050228  1.0000
  H   H23       1.0  0.3317427828622286  0.267610013942253  0.78681715248824  1.0000
  H   H24       1.0  0.6682572778408868  0.7323879962754916  0.213182261081414  1.0000
  H   H25       1.0  0.551959017745517  0.18933302189638113  0.7307238008582857  1.0000
  H   H26       1.0  0.4480421728966703  0.8106658671075878  0.2692747506048363  1.0000
  H   H27       1.0  0.7332532107648574  0.3317572437258248  0.6416433151440658  1.0000
  H   H28       1.0  0.2667459924456849  0.6682433978000333  0.3583564214210356  1.0000
  H   H29       1.0  0.7815315590522403  0.2929043315658362  0.5358518316873244  1.0000
  H   H30       1.0  0.21846651421922997  0.707095431173798  0.4641487669843086  1.0000
  H   H31       1.0  0.786496006425537  0.43716795961542226  0.5484244908089266  1.0000
  H   H32       1.0  0.2135037757053553  0.5628309246599699  0.4515754498459188  1.0000
  H   H33       1.0  0.7055455663792856  0.4312139488013359  0.8939849526960231  1.0000
  H   H34       1.0  0.2944524960042401  0.568785818505873  0.10601501684553942  1.0000
  H   H35       1.0  0.9349420720081342  0.4475537362619518  0.7543494017649197  1.0000
  H   H36       1.0  0.06505859415343451  0.5524468871545879  0.24565209125877632  1.0000
  H   H37       1.0  0.9779399613370855  0.0770156349960729  0.759988152211946  1.0000
  H   H38       1.0  0.02205609183891252  0.922985893968182  0.24001174417146126  1.0000
  H   H39       1.0  0.7429619608123446  0.0759277147180057  0.8984115279877898  1.0000
  H   H40       1.0  0.25703122090133956  0.9240738276269979  0.10158800112874641  1.0000
  C   C1        1.0  0.7157457087223519  0.4774422196767105  0.3446760815748746  1.0000
  C   C2        1.0  0.2842580748099266  0.522557530004157  0.65532336424031  1.0000
  C   C3        1.0  0.6352286159563008  0.3691910519471974  0.3823113756435319  1.0000
  C   C4        1.0  0.36477258557383146  0.6308078324891895  0.6176878049496538  1.0000
  C   C5        1.0  0.7234528250606116  0.25996054337873187  0.3541753701850823  1.0000
  C   C6        1.0  0.2765480761214008  0.7400392242504664  0.6458230792331677  1.0000
  C   C7        1.0  0.6310681319128123  0.16238410179884258  0.3843885799031597  1.0000
  C   C8        1.0  0.3689342322202266  0.8376156477210372  0.6156116259736847  1.0000
  C   C9        1.0  0.7144555632119278  0.046511076265879615  0.3538664686335835  1.0000
  C   C10       1.0  0.2855473798414538  0.9534869160035413  0.6461339413330123  1.0000
  C   C11       1.0  0.23279508694004392  0.265723803905928  0.2263067627044748  1.0000
  C   C12       1.0  0.7672061254780331  0.734275075962884  0.7736930470187815  1.0000
  C   C13       1.0  0.0808136791288021  0.2671944922748608  0.2966034564635507  1.0000
  C   C14       1.0  0.9191872329411621  0.7328052707867557  0.7033956220847629  1.0000
  C   C15       1.0  0.8977978432746311  0.2532858114286114  0.2849546829167481  1.0000
  C   C16       1.0  0.10220477765474101  0.7467130731687703  0.7150437376147707  1.0000
  C   C17       1.0  0.8817729300135895  0.23632618091892252  0.2021902353615843  1.0000
  C   C18       1.0  0.11822971269167244  0.7636726945433022  0.7978094434300689  1.0000
  C   C19       1.0  0.04055167751062784  0.23504485785394988  0.1355547378054638  1.0000
  C   C20       1.0  0.9594503753863536  0.7649557794263159  0.864444107766367  1.0000
  C   C21       1.0  0.3928454710901832  0.2016601044709603  0.7435899007098286  1.0000
  C   C22       1.0  0.6071586019022701  0.7983387665846777  0.25640964715022824  1.0000
  C   C23       1.0  0.3136781417569949  0.23619293849694153  0.6598692732140634  1.0000
  C   C24       1.0  0.686323070661075  0.7638059413718707  0.3401305365091858  1.0000
  C   C25       1.0  0.10978079450915601  0.2686537021988258  0.6592754069027933  1.0000
  C   C26       1.0  0.8902207073690889  0.731344299044757  0.3407245048653351  1.0000
  C   C27       1.0  0.0359689572040622  0.3066400651858102  0.5798696409815349  1.0000
  C   C28       1.0  0.9640308249268232  0.6933588190895889  0.42013029967331045  1.0000
  C   C29       1.0  0.8222166239231826  0.3439518323952342  0.5773815994766665  1.0000
  C   C30       1.0  0.17778144934829504  0.6560479303443927  0.42261899919496665  1.0000
  C   C31       1.0  0.7677333707747708  0.3548046769471398  0.8617580982631454  1.0000
  C   C32       1.0  0.23226439126064244  0.6451959735528803  0.1382411401034815  1.0000
  C   C33       1.0  0.8964405969003548  0.36322907113165576  0.7837752059955181  1.0000
  C   C34       1.0  0.10355828418618532  0.6367724627221633  0.2162225411345062  1.0000
  C   C35       1.0  0.9744080587419004  0.26350222276292357  0.7436755651596911  1.0000
  C   C36       1.0  0.02559228529565872  0.736499292981577  0.2563239384289346  1.0000
  C   C37       1.0  0.9200646017458354  0.158036445316732  0.7868714033729489  1.0000
  C   C38       1.0  0.07993518038504993  0.8419624389586601  0.21312853728189649  1.0000
  C   C39       1.0  0.7895393633730662  0.15664262869527332  0.8645351499795098  1.0000
  C   C40       1.0  0.21046671882691473  0.8433544807033186  0.13546447103870923  1.0000
  C   C41       1.0  0.6915997133712396  0.9547425077742488  0.056737118261409605  1.0000
  C   C42       1.0  0.30838909965389394  0.04526421921617191  0.9432752721804363  1.0000
  C   C43       1.0  0.3395005515830007  0.5377265412761999  0.9242766766614993  1.0000
  C   C44       1.0  0.6604960682618993  0.46228199874157383  0.07572339975983776  1.0000
  S   S1        1.0  0.718157151212708  0.062022908713750324  0.10052350584978599  1.0000
  S   S2        1.0  0.28182898318225835  0.9379742304039949  0.8994823521212327  1.0000
  S   S3        1.0  0.23212346626594643  0.43177717383285596  0.9219863734938656  1.0000
  S   S4        1.0  0.7678754631345939  0.5682287213350606  0.07801450726056906  1.0000
  N   N1        1.0  0.214126865808808  0.24997793693934509  0.14695143439619332  1.0000
  N   N2        1.0  0.7858740571491012  0.7500218215546967  0.8530482732821766  1.0000
  N   N3        1.0  0.7129208765451762  0.25358138078738085  0.9011094977250168  1.0000
  N   N4        1.0  0.2870774644105795  0.7464175124621731  0.09888994473136138  1.0000
  N   N5        1.0  0.6781049255466557  0.8743035341152634  0.026296824851847582  1.0000
  N   N6        1.0  0.3218834639642338  0.12569098299051257  0.9737066918019436  1.0000
  N   N7        1.0  0.41806723345369795  0.615672369973808  0.9235095019943956  1.0000
  N   N8        1.0  0.5819276945454491  0.3843326597886332  0.07649187359970709  1.0000
  O   O1        1.0  0.4808638119296802  0.3825934732881677  0.44005993769127383  1.0000
  O   O2        1.0  0.5191345072501862  0.61740542909655  0.5599382465049771  1.0000
  O   O3        1.0  0.47164236317689057  0.16669567312928282  0.4394195509301184  1.0000
  O   O4        1.0  0.5283602686404265  0.8333032069005171  0.560579498731471  1.0000
  O   O5        1.0  0.4393744162611881  0.23605928881262628  0.5895986345332959  1.0000
  O   O6        1.0  0.5606267961568889  0.7639395910561859  0.4104011751899534  1.0000
  O   O7        1.0  0.14699993967974484  0.3117617399151058  0.5047065579851023  1.0000
  O   O8        1.0  0.8529984012760106  0.6882371533344555  0.4952928844712829  1.0000
