data_image0
_chemical_formula_structural       CdH24C28N18
_chemical_formula_sum              "Cd1 H24 C28 N18"
_cell_length_a       8.523825754362248
_cell_length_b       9.32189353328087
_cell_length_c       9.738180774437046
_cell_angle_alpha    94.79056441004
_cell_angle_beta     95.45735900445696
_cell_angle_gamma    97.37887805673672

_space_group_name_H-M_alt    "P 1"
_space_group_IT_number       1

loop_
  _space_group_symop_operation_xyz
  'x, y, z'

loop_
  _atom_site_type_symbol
  _atom_site_label
  _atom_site_symmetry_multiplicity
  _atom_site_fract_x
  _atom_site_fract_y
  _atom_site_fract_z
  _atom_site_occupancy
  Cd  Cd1       1.0  0.0  0.0  0.0  1.0000
  H   H1        1.0  0.6744663612152876  0.5809564500739698  0.2548634747999897  1.0000
  H   H2        1.0  0.3255323157841516  0.4190440908441388  0.7451371119678993  1.0000
  H   H3        1.0  0.8532141585655848  0.7515159674254263  0.4300755748261195  1.0000
  H   H4        1.0  0.14678451815156277  0.24848457063556842  0.5699239848075733  1.0000
  H   H5        1.0  0.9241279131149439  0.6740208840609725  0.6651047543293911  1.0000
  H   H6        1.0  0.07587194223908969  0.32597965573525295  0.3348959305727916  1.0000
  H   H7        1.0  0.8183901215193214  0.42901466816854134  0.72115320312988  1.0000
  H   H8        1.0  0.18161091190701475  0.5709858676486945  0.2788465527724  1.0000
  H   H9        1.0  0.5277078788525031  0.23619703488756014  0.6379570344542529  1.0000
  H   H10       1.0  0.4722921407224163  0.7638045860131086  0.3620416940820448  1.0000
  H   H11       1.0  0.5527361921992907  0.14761177850537877  0.47415882392886016  1.0000
  H   H12       1.0  0.44726366287245156  0.85238875843374  0.525840833839126  1.0000
  H   H13       1.0  0.43273011027638114  0.2553096281923927  0.31318361069909156  1.0000
  H   H14       1.0  0.5672697447953609  0.744690908746726  0.6868160470688947  1.0000
  H   H15       1.0  0.503718425775105  0.37099819093432973  0.19086461444773306  1.0000
  H   H16       1.0  0.4962826076512314  0.629002344882906  0.8091351414545469  1.0000
  H   H17       1.0  0.016307022572185293  0.9557967133334415  0.6304243983417733  1.0000
  H   H18       1.0  0.9836941756396127  0.04420490930245789  0.36957545546302123  1.0000
  H   H19       1.0  0.6953515530642206  0.17378440712095508  0.8444584023104866  1.0000
  H   H20       1.0  0.3046481372220597  0.8262150429994931  0.15554115755498535  1.0000
  H   H21       1.0  0.6387113622518044  0.8616001903205658  0.1268941460448687  1.0000
  H   H22       1.0  0.3612884931022293  0.13840034947565263  0.8731065388573143  1.0000
  H   H23       1.0  0.8335424726135939  0.30325019921725266  0.15015068900087408  1.0000
  H   H24       1.0  0.1664572176726864  0.6967492509031957  0.8498488708646049  1.0000
  C   C1        1.0  0.6847257336556395  0.3657702425569269  0.5211506827795133  1.0000
  C   C2        1.0  0.315275134985228  0.6342292064416453  0.47884897522025927  1.0000
  C   C3        1.0  0.6455609422822306  0.4090989328159793  0.3885777984522746  1.0000
  C   C4        1.0  0.3544387482863342  0.5909005201615826  0.6114227885474006  1.0000
  C   C5        1.0  0.706969019499972  0.5480066520069613  0.3574408699544022  1.0000
  C   C6        1.0  0.29303100035723867  0.4519949717508212  0.6425588857160918  1.0000
  C   C7        1.0  0.8064886984089766  0.6438187302941784  0.4558691552164829  1.0000
  C   C8        1.0  0.19350997830817107  0.35618180776681635  0.5441304044172098  1.0000
  C   C9        1.0  0.8466851691852566  0.6004138154417689  0.5868729472105725  1.0000
  C   C10       1.0  0.15331468588648528  0.39958672149734287  0.4131267105574139  1.0000
  C   C11       1.0  0.7859614129769098  0.46236675108470854  0.6186757665675414  1.0000
  C   C12       1.0  0.21403962044941943  0.5376337847325273  0.38132398933473155  1.0000
  C   C13       1.0  0.6138453386488932  0.22007718238754845  0.5628084984147746  1.0000
  C   C14       1.0  0.3861555299919741  0.7799222666110167  0.4371911595849979  1.0000
  C   C15       1.0  0.540754964575953  0.30941518439986027  0.2767115536869937  1.0000
  C   C16       1.0  0.4592448904957962  0.6905853525392587  0.7232881040809926  1.0000
  C   C17       1.0  0.9207567669204194  0.017434227366045697  0.6541720306504926  1.0000
  C   C18       1.0  0.07924443100908712  0.9825673924127468  0.3458267960200984  1.0000
  C   C19       1.0  0.7619273693520725  0.12800110067544068  0.7661501904582549  1.0000
  C   C20       1.0  0.23807232065191639  0.8719983465879011  0.23384834227302778  1.0000
  C   C21       1.0  0.658116667033319  0.9790419257092463  0.15030320992561735  1.0000
  C   C22       1.0  0.34188420188984037  0.020957526146432297  0.8496974752083445  1.0000
  C   C23       1.0  0.7592251503087155  0.20193530155354714  0.16065454823862518  1.0000
  C   C24       1.0  0.24077453997756482  0.7980641485669009  0.8393450116268538  1.0000
  C   C25       1.0  0.8319281513397597  0.634763445950952  0.9797943499006292  1.0000
  C   C26       1.0  0.1680705256596795  0.3652370949671493  0.020206236867259992  1.0000
  C   C27       1.0  0.650973993924829  0.42601775641239925  0.9484793137235101  1.0000
  C   C28       1.0  0.34902451857143296  0.5739817005441452  0.051522202276061094  1.0000
  N   N1        1.0  0.7322746826054  0.1421816685558142  0.6303661153502275  1.0000
  N   N2        1.0  0.2677275291755236  0.8578188661395458  0.3696337386863461  1.0000
  N   N3        1.0  0.8326414451606183  0.07205930420410309  0.5565272667927772  1.0000
  N   N4        1.0  0.16735840991112375  0.9279412327350084  0.4434723909752093  1.0000
  N   N5        1.0  0.8811935847972305  0.049530293458467184  0.7846969890224215  1.0000
  N   N6        1.0  0.11880744862910567  0.9504702423587685  0.21530276687985858  1.0000
  N   N7        1.0  0.6224866146630248  0.19200725593466933  0.2198146236535763  1.0000
  N   N8        1.0  0.37751441904559596  0.807993282739673  0.7801861593829001  1.0000
  N   N9        1.0  0.5564583391675769  0.050419616631096204  0.21460363363355128  1.0000
  N   N10       1.0  0.443542694541044  0.9495809220432462  0.7853971494029252  1.0000
  N   N11       1.0  0.784921393355404  0.06844613769680309  0.11520202124646772  1.0000
  N   N12       1.0  0.21507964007093247  0.931554398120433  0.8847977346558054  1.0000
  N   N13       1.0  0.7849865009305218  0.501832379175937  0.0012720523448876877  1.0000
  N   N14       1.0  0.21501050335793073  0.4981649024080567  0.9987281425811713  1.0000
  N   N15       1.0  0.8873027275784577  0.7544785252599339  0.9653390622901766  1.0000
  N   N16       1.0  0.11269679848693667  0.24551984375606387  0.03466245394118059  1.0000
  N   N17       1.0  0.535557176549787  0.3434904386074037  0.9071167887999324  1.0000
  N   N18       1.0  0.4644413359464749  0.6565090183491478  0.09288472719964598  1.0000
