data_image0
_chemical_formula_structural       Zn8H18C42N6O26
_chemical_formula_sum              "Zn8 H18 C42 N6 O26"
_cell_length_a       16.59456319457255
_cell_length_b       16.891447969998225
_cell_length_c       16.58413179788955
_cell_angle_alpha    63.27286449902151
_cell_angle_beta     57.60358244201361
_cell_angle_gamma    90.18034443203048

_space_group_name_H-M_alt    "P 1"
_space_group_IT_number       1

loop_
  _space_group_symop_operation_xyz
  'x, y, z'

loop_
  _atom_site_type_symbol
  _atom_site_label
  _atom_site_symmetry_multiplicity
  _atom_site_fract_x
  _atom_site_fract_y
  _atom_site_fract_z
  _atom_site_occupancy
  Zn  Zn1       1.0  0.1200614923742265  0.08158062134200611  0.894387593801106  1.0000
  Zn  Zn2       1.0  0.94010335796888  0.0927142792464934  0.8869424441527514  1.0000
  Zn  Zn3       1.0  0.9326819797410338  0.0986045244532718  0.08340561621123739  1.0000
  Zn  Zn4       1.0  0.9196155140180766  0.9038257089453698  0.08338628973923776  1.0000
  Zn  Zn5       1.0  0.3179272542606881  0.48592810849110185  0.0807755751271487  1.0000
  Zn  Zn6       1.0  0.5131071069119314  0.4957097918293485  0.08525850283891158  1.0000
  Zn  Zn7       1.0  0.5145036442538711  0.6703527581529941  0.8874369112379127  1.0000
  Zn  Zn8       1.0  0.5235915248243546  0.48925498048682675  0.890398870947777  1.0000
  H   H1        1.0  0.17534041085136923  0.017968085614008103  0.6306573104830733  1.0000
  H   H2        1.0  0.29461064927831165  0.1933318679252096  0.2937405416958471  1.0000
  H   H3        1.0  0.22189300621252533  0.31378996080384525  0.4957709908195083  1.0000
  H   H4        1.0  0.22209467869319607  0.39294331433029583  0.6985315722691751  1.0000
  H   H5        1.0  0.3979545392072198  0.5722008913444512  0.693054239152218  1.0000
  H   H6        1.0  0.18105793361289807  0.31219173445547455  0.008239995727720488  1.0000
  H   H7        1.0  0.17978859417940646  0.9165035900662205  0.15460787980710916  1.0000
  H   H8        1.0  0.3270888316061402  0.7193853383816419  0.1664178749818603  1.0000
  H   H9        1.0  0.18737443868562315  0.7669839588950255  0.9984268789161274  1.0000
  H   H10       1.0  0.6123390051202051  0.0147454566276863  0.15211021118444285  1.0000
  H   H11       1.0  0.4294979369236174  0.17918370404733966  0.14528549248834816  1.0000
  H   H12       1.0  0.7361101865408627  0.31136095017174636  0.00018966615721177318  1.0000
  H   H13       1.0  0.001988857936041258  0.9293100539362132  0.7354680207715487  1.0000
  H   H14       1.0  0.8250282312532562  0.7503449412268993  0.7423989142337247  1.0000
  H   H15       1.0  0.7053377293238015  0.7501291402175312  0.046953928767010385  1.0000
  H   H16       1.0  0.013532668513455883  0.8890322451138959  0.29563675618040713  1.0000
  H   H17       1.0  0.8498944514410737  0.6712872411809556  0.6303102669401071  1.0000
  H   H18       1.0  0.6882155284680778  0.7965355750089957  0.4984524457668513  1.0000
  C   C1        1.0  0.1377792474385799  0.14259860934240726  0.6947393821541964  1.0000
  C   C2        1.0  0.19035484142521852  0.16340131989434784  0.5777891673782702  1.0000
  C   C3        1.0  0.19991153433519324  0.08899573597319231  0.5602847812115356  1.0000
  C   C4        1.0  0.2667496235547944  0.18602883791157154  0.3740374189521061  1.0000
  C   C5        1.0  0.2667179228337914  0.2657879240746155  0.3811261013010281  1.0000
  C   C6        1.0  0.2260036566913541  0.25407315571686695  0.48580195784278857  1.0000
  C   C7        1.0  0.312627042106527  0.3598929543298439  0.2754050669794026  1.0000
  C   C8        1.0  0.12738655506488783  0.24611965565060967  0.9131980859167682  1.0000
  C   C9        1.0  0.1932592987466393  0.3409095889957855  0.8600958062827359  1.0000
  C   C10       1.0  0.2406552985636878  0.40778573181225397  0.7454277781386337  1.0000
  C   C11       1.0  0.3377208960699889  0.5067433732564552  0.742402286029879  1.0000
  C   C12       1.0  0.29473282235964143  0.44451785719258663  0.8569439011265273  1.0000
  C   C13       1.0  0.21724144538195134  0.3616813455819426  0.9186987084113409  1.0000
  C   C14       1.0  0.3387263466926314  0.46242984391745523  0.9077594728083936  1.0000
  C   C15       1.0  0.11901004718841081  0.9031189971348185  0.03665848976540087  1.0000
  C   C16       1.0  0.1747383879663574  0.8469793815992904  0.07405131567084301  1.0000
  C   C17       1.0  0.20116054990356258  0.8635348948924606  0.13380318923540804  1.0000
  C   C18       1.0  0.2833070844948793  0.754959511482966  0.13954386556205378  1.0000
  C   C19       1.0  0.2639204749329097  0.7359150327382911  0.0763697606962664  1.0000
  C   C20       1.0  0.20561075266134315  0.7806340410413244  0.046101093454218756  1.0000
  C   C21       1.0  0.3134918189018308  0.6744162375969653  0.036063415881478954  1.0000
  C   C22       1.0  0.7879479542727735  0.14822988307000173  0.032485221403796304  1.0000
  C   C23       1.0  0.6872489483947034  0.1618370129078102  0.0706811928380875  1.0000
  C   C24       1.0  0.6043694791204645  0.08434508132276622  0.1287076221141774  1.0000
  C   C25       1.0  0.5030140850470204  0.17506559681756784  0.12554460298577647  1.0000
  C   C26       1.0  0.5804744351529152  0.2564895482443248  0.06958688966150815  1.0000
  C   C27       1.0  0.6741550581402791  0.24938348882336217  0.04398937534556773  1.0000
  C   C28       1.0  0.5626874120644558  0.34885739187361503  0.03289100471510415  1.0000
  C   C29       1.0  0.8733233228177325  0.8975966874505519  0.9424051464412885  1.0000
  C   C30       1.0  0.8555009639085538  0.845718000242691  0.8973585082151843  1.0000
  C   C31       1.0  0.9311872416119442  0.8743225418027908  0.7846892004941848  1.0000
  C   C32       1.0  0.8334738180662171  0.7756408632569178  0.7884866550837796  1.0000
  C   C33       1.0  0.7527072489378172  0.7424481792565988  0.9012413206272925  1.0000
  C   C34       1.0  0.7655101683315094  0.7750883101929277  0.9588543156402024  1.0000
  C   C35       1.0  0.6546609096691965  0.6803028968734142  0.9487384014017406  1.0000
  C   C36       1.0  0.8622276125497947  0.9129835874200438  0.27740155145750134  1.0000
  C   C37       1.0  0.8518211875445657  0.849416897360513  0.38318888894299635  1.0000
  C   C38       1.0  0.9396080898578987  0.842728651987493  0.3757598435762755  1.0000
  C   C39       1.0  0.8495027154390015  0.7229688762961788  0.5607541611984315  1.0000
  C   C40       1.0  0.7574097615634727  0.72803989662831  0.5785684359645131  1.0000
  C   C41       1.0  0.7585476372284246  0.7922154882679706  0.4876126947612181  1.0000
  C   C42       1.0  0.6614431076671963  0.6671524424758815  0.6941108021157729  1.0000
  N   N1        1.0  0.2358101606130987  0.09944303913701455  0.4609223081024822  1.0000
  N   N2        1.0  0.3086856079551906  0.49088755618393526  0.6882247443559778  1.0000
  N   N3        1.0  0.2517800737977965  0.8166905973851969  0.1689951341236905  1.0000
  N   N4        1.0  0.5133313092474552  0.09008868765325671  0.15780903333465085  1.0000
  N   N5        1.0  0.92243566368046  0.837743205257546  0.7320736197420171  1.0000
  N   N6        1.0  0.9391137032455673  0.780370226644429  0.4619991298095058  1.0000
  O   O1        1.0  0.9718434705287676  0.040684125634186316  0.9941491865334338  1.0000
  O   O2        1.0  0.06525000565874  0.1752791583785012  0.7305299472954159  1.0000
  O   O3        1.0  0.1667688636927451  0.09104034265491383  0.7517480038578552  1.0000
  O   O4        1.0  0.38896533506558484  0.4169343073587514  0.24371561544199227  1.0000
  O   O5        1.0  0.2726767605727148  0.37307072215858045  0.22469973701635834  1.0000
  O   O6        1.0  0.04435450025331281  0.20836722062956886  0.012071762686254288  1.0000
  O   O7        1.0  0.1634168380923882  0.210762493886378  0.8523684455296133  1.0000
  O   O8        1.0  0.4349669128771652  0.4893686177877826  0.8460321168301163  1.0000
  O   O9        1.0  0.2787976277570081  0.4480015246824891  0.006586786217710114  1.0000
  O   O10       1.0  0.037589489649740015  0.8593950002112649  0.06341604001863034  1.0000
  O   O11       1.0  0.15986549440990672  0.9919976348326929  0.9797522439538964  1.0000
  O   O12       1.0  0.4024156571780678  0.7177271139359789  0.9428318995086188  1.0000
  O   O13       1.0  0.26557390738446435  0.5872599626855788  0.09705453289162601  1.0000
  O   O14       1.0  0.8196556635504564  0.14210330539135904  0.08917816288170846  1.0000
  O   O15       1.0  0.8309592752049539  0.14219288604785163  0.9453730051429617  1.0000
  O   O16       1.0  0.5299381940822272  0.3665738886261423  0.9741371530253174  1.0000
  O   O17       1.0  0.580477035332855  0.40104105656491384  0.061726748513294245  1.0000
  O   O18       1.0  0.8569707210877271  0.8508201207522035  0.03844672542534534  1.0000
  O   O19       1.0  0.9057200108271104  0.9864353148026126  0.8770359334667716  1.0000
  O   O20       1.0  0.6250562064868603  0.7146868493148875  0.8873512887573369  1.0000
  O   O21       1.0  0.611180259279152  0.6007414805775396  0.04137395626795402  1.0000
  O   O22       1.0  0.8987446075257068  0.0007687481998743967  0.23069582354976617  1.0000
  O   O23       1.0  0.8364795415265076  0.8727006960033209  0.24157264790385155  1.0000
  O   O24       1.0  0.6556835624977708  0.5825341695465981  0.7514793717642404  1.0000
  O   O25       1.0  0.5930779113332533  0.7043102151171187  0.7284720910984884  1.0000
  O   O26       1.0  0.46468334182473103  0.5351121159684951  0.9931713081060706  1.0000
