data_image0
_chemical_formula_structural       Cd2H22C16N10Cl4O6
_chemical_formula_sum              "Cd2 H22 C16 N10 Cl4 O6"
_cell_length_a       7.245813528969619
_cell_length_b       8.149070169974216
_cell_length_c       12.166792871661242
_cell_angle_alpha    82.68218656974389
_cell_angle_beta     72.31222082189309
_cell_angle_gamma    80.02363657769197

_space_group_name_H-M_alt    "P 1"
_space_group_IT_number       1

loop_
  _space_group_symop_operation_xyz
  'x, y, z'

loop_
  _atom_site_type_symbol
  _atom_site_label
  _atom_site_symmetry_multiplicity
  _atom_site_fract_x
  _atom_site_fract_y
  _atom_site_fract_z
  _atom_site_occupancy
  Cd  Cd1       1.0  0.7180931957501926  0.9763079359747949  0.06464619368956899  1.0000
  Cd  Cd2       1.0  0.28191557848599297  0.023697917191569204  0.9353503349903748  1.0000
  H   H1        1.0  0.241747632256505  0.8174460708636674  0.5672476824763919  1.0000
  H   H2        1.0  0.7582451617368162  0.1825493566054845  0.4327620995282332  1.0000
  H   H3        1.0  0.9760821531263062  0.18225874365363381  0.698071024485671  1.0000
  H   H4        1.0  0.02391151785759148  0.817740507505917  0.30193586946791134  1.0000
  H   H5        1.0  0.03340586270481783  0.9708809423539082  0.7264453423291571  1.0000
  H   H6        1.0  0.9665906261880508  0.029127144199520706  0.2735588038108859  1.0000
  H   H7        1.0  0.5281357566181697  0.35482054850118766  0.13615896323950238  1.0000
  H   H8        1.0  0.47187031481315955  0.6451765276859832  0.8638378230323696  1.0000
  H   H9        1.0  0.20680073185342712  0.5411105282863814  0.41064985122509523  1.0000
  H   H10       1.0  0.7932169805903229  0.45888197417022525  0.5893321918400148  1.0000
  H   H11       1.0  0.3410224426724042  0.5934449256241409  0.2622074947225315  1.0000
  H   H12       1.0  0.6589857534255117  0.40653346691483  0.7377870040182518  1.0000
  H   H13       1.0  0.11928692710348092  0.40920624018994545  0.15075015731473232  1.0000
  H   H14       1.0  0.8807137084420659  0.5907970552767099  0.8492462516140905  1.0000
  H   H15       1.0  0.16315947954161197  0.6232797135928011  0.1215502290300634  1.0000
  H   H16       1.0  0.8368487624450296  0.3767286000069063  0.8784478539751321  1.0000
  H   H17       1.0  0.8601079597088414  0.5771844198163195  0.07836181804973562  1.0000
  H   H18       1.0  0.13988852861273662  0.42282977561684015  0.9216484650293497  1.0000
  H   H19       1.0  0.7613920451285097  0.5041590014953669  0.22587489316742196  1.0000
  H   H20       1.0  0.23861889778281403  0.495850613686244  0.7741218286612723  1.0000
  H   H21       1.0  0.6733500747664038  0.7588139969589849  0.2685788939614042  1.0000
  H   H22       1.0  0.32665109057723635  0.24118547155677564  0.7314209939966432  1.0000
  C   C1        1.0  0.14406424456394964  0.0731350150719834  0.5580657206671519  1.0000
  C   C2        1.0  0.8559356674631642  0.926864534590493  0.4419302560172228  1.0000
  C   C3        1.0  0.2827625017807378  0.20806946107940397  0.3898460702944392  1.0000
  C   C4        1.0  0.7172344426256173  0.7919361260975748  0.6101581816680979  1.0000
  C   C5        1.0  0.40382771162627046  0.06678309182173343  0.33968942283695475  1.0000
  C   C6        1.0  0.5961620391528084  0.9332061164593386  0.6603180207154866  1.0000
  C   C7        1.0  0.39300151333990385  0.9102027484810336  0.40651539702938794  1.0000
  C   C8        1.0  0.6069915108616257  0.089792795817452  0.593489404532008  1.0000
  C   C9        1.0  0.4684138042507015  0.2773147504962948  0.21414867000630278  1.0000
  C   C10       1.0  0.531588501756822  0.7226859449756377  0.7858525860925527  1.0000
  C   C11       1.0  0.23645034866115106  0.5148337420830913  0.3203475752856805  1.0000
  C   C12       1.0  0.763558385898122  0.4851585073346882  0.6796425429445209  1.0000
  C   C13       1.0  0.06486584664266808  0.537334492188748  0.1772382675552535  1.0000
  C   C14       1.0  0.9351206869798218  0.4626776583261433  0.8227491318956837  1.0000
  C   C15       1.0  0.8595811484227979  0.587842765790903  0.1676629632947667  1.0000
  C   C16       1.0  0.14041883976909014  0.4121629316944179  0.8323374901809119  1.0000
  N   N1        1.0  0.25698763395735813  0.9266719725754343  0.5165630750905592  1.0000
  N   N2        1.0  0.7430188478363248  0.073312376331323  0.48344361020205906  1.0000
  N   N3        1.0  0.019390412404710785  0.06771174929551899  0.6656238710333826  1.0000
  N   N4        1.0  0.98061121033259  0.9322926952410883  0.3343772263317319  1.0000
  N   N5        1.0  0.15164825716924207  0.21815435576498746  0.4941518956081057  1.0000
  N   N6        1.0  0.8483350340444388  0.7818473786513565  0.5058524158234264  1.0000
  N   N7        1.0  0.5174696865379147  0.1137748335990096  0.22947811792727899  1.0000
  N   N8        1.0  0.4825282053832751  0.8862182988993299  0.770524412021814  1.0000
  N   N9        1.0  0.32767496311079464  0.3410383814342168  0.30867685044402293  1.0000
  N   N10       1.0  0.672320193849302  0.6589622719255175  0.6913239409855266  1.0000
  Cl  Cl1       1.0  0.9826525484136183  0.1583599605543426  0.09309064966393525  1.0000
  Cl  Cl2       1.0  0.017349838661616  0.841649615775559  0.9069050165172643  1.0000
  Cl  Cl3       1.0  0.5578587500764414  0.2026248313799996  0.9353711324720493  1.0000
  Cl  Cl4       1.0  0.4421494516619831  0.7973759873508541  0.06462667702243863  1.0000
  O   O1        1.0  0.4863567646045581  0.7687279691482445  0.38198487711288476  1.0000
  O   O2        1.0  0.5136617679926089  0.2312451876272661  0.6180231009327742  1.0000
  O   O3        1.0  0.054251051951702295  0.5458709864846013  0.29685881494542343  1.0000
  O   O4        1.0  0.9457420916855666  0.4541334581434101  0.7031395666244509  1.0000
  O   O5        1.0  0.7895290369705703  0.7569860840591929  0.19725636708751185  1.0000
  O   O6        1.0  0.21046585819637895  0.2430246414320649  0.8027412717347532  1.0000
