data_image0
_chemical_formula_structural       Al6H33C78O30F5
_chemical_formula_sum              "Al6 H33 C78 O30 F5"
_cell_length_a       12.603919065960815
_cell_length_b       12.135657422950395
_cell_length_c       28.015466285261358
_cell_angle_alpha    90.02969908839228
_cell_angle_beta     88.82712131383836
_cell_angle_gamma    60.55325340987251

_space_group_name_H-M_alt    "P 1"
_space_group_IT_number       1

loop_
  _space_group_symop_operation_xyz
  'x, y, z'

loop_
  _atom_site_type_symbol
  _atom_site_label
  _atom_site_symmetry_multiplicity
  _atom_site_fract_x
  _atom_site_fract_y
  _atom_site_fract_z
  _atom_site_occupancy
  Al  Al1       1.0  0.40710099588513765  0.19450159392003039  0.49519015338193373  1.0000
  Al  Al2       1.0  0.40487590223828823  0.9309956421416743  0.4981220854831249  1.0000
  Al  Al3       1.0  0.6479723495674605  0.921048167237842  0.49666848911317624  1.0000
  Al  Al4       1.0  0.9288821267818506  0.14894585092329052  0.9827905002114717  1.0000
  Al  Al5       1.0  0.674711069664049  0.41150350824947424  0.9819879537481242  1.0000
  Al  Al6       1.0  0.9088456855985355  0.42128965672969815  0.981219037130721  1.0000
  H   H1        1.0  0.7397934214289776  0.4833343424389939  0.2910629814284889  1.0000
  H   H2        1.0  0.9945808386961588  0.3919596655444051  0.21347763364239108  1.0000
  H   H3        1.0  0.2710107247349782  0.00529491482766533  0.18463594453103838  1.0000
  H   H4        1.0  0.308789070652466  0.971455713392402  0.2716914872683915  1.0000
  H   H5        1.0  0.4245807229307203  0.779191230094064  0.6252527562343602  1.0000
  H   H6        1.0  0.8681745119603831  0.4289150809295279  0.8375377491683621  1.0000
  H   H7        1.0  0.4519142012473551  0.7245364726471736  0.711478345206821  1.0000
  H   H8        1.0  0.4870050903158329  0.8035273896677283  0.7867639459630169  1.0000
  H   H9        1.0  0.5152124885709455  0.7496888214714449  0.8722541403672109  1.0000
  H   H10       1.0  0.8269779465366653  0.6369586651174829  0.698242375947025  1.0000
  H   H11       1.0  0.7627424442618036  0.45202784017850234  0.20316520811415018  1.0000
  H   H12       1.0  0.798808646882911  0.6907559473284618  0.612553247816244  1.0000
  H   H13       1.0  0.7494267301442931  0.9215608083111845  0.6266339347309823  1.0000
  H   H14       1.0  0.4971519737889309  0.31502563072224626  0.7756942119896947  1.0000
  H   H15       1.0  0.5233817304187554  0.35360271762771595  0.86087320959178  1.0000
  H   H16       1.0  0.8719482324097996  0.016042502588959468  0.7672984579235589  1.0000
  H   H17       1.0  0.8945063928758756  0.05208198620221795  0.8532211328492066  1.0000
  H   H18       1.0  0.5560906427428591  0.34888609710009183  0.7014790248628556  1.0000
  H   H19       1.0  0.31157864384998385  0.2720994154200653  0.6246826581954749  1.0000
  H   H20       1.0  0.581898672230558  0.8586195260646221  0.18518051651735587  1.0000
  H   H21       1.0  0.09991570120418909  0.39038492359794225  0.7711850426187182  1.0000
  H   H22       1.0  0.05110929822961201  0.41448401536705853  0.8584481863739198  1.0000
  H   H23       1.0  0.1359803250287968  0.04052446408051943  0.7121261267799072  1.0000
  H   H24       1.0  0.18259226431002418  0.0027429792693638294  0.624863050797714  1.0000
  H   H25       1.0  0.7553787445133651  0.9471332388837015  0.27094979272911246  1.0000
  H   H26       1.0  0.7514686504256645  0.9820005091592774  0.18308578626716346  1.0000
  H   H27       1.0  0.5860330319708568  0.3844022639503135  0.20824049363012878  1.0000
  H   H28       1.0  0.5907951062250305  0.3493576839564411  0.2960547749235615  1.0000
  H   H29       1.0  0.03145430666378251  0.3576638458624117  0.300491204102876  1.0000
  H   H30       1.0  0.2997015060481871  0.9581174910820422  0.7499445732580199  1.0000
  H   H31       1.0  0.2651069784943658  0.915207482324881  0.8551134208760941  1.0000
  H   H32       1.0  0.3172290437012606  0.398633305159663  0.46403679417214505  1.0000
  H   H33       1.0  0.036880289586946405  0.9448459625850132  0.013525677291610801  1.0000
  C   C1        1.0  0.2728540167560496  0.10641939079164331  0.4298573899499445  1.0000
  C   C2        1.0  0.6168791241201602  0.7755353191970401  0.20775030670498038  1.0000
  C   C3        1.0  0.6046056529666899  0.7901234552720808  0.25688577182838657  1.0000
  C   C4        1.0  0.6477089453407956  0.6872114793011189  0.2884024449703161  1.0000
  C   C5        1.0  0.6742275144657127  0.6525201630794084  0.1877385629524895  1.0000
  C   C6        1.0  0.6862051963373688  0.6345734674125654  0.1374890630190748  1.0000
  C   C7        1.0  0.6326241044819411  0.7086877079438383  0.3383648369145504  1.0000
  C   C8        1.0  0.6961948320635613  0.6170382958931313  0.09439336410302698  1.0000
  C   C9        1.0  0.6621159743805762  0.11158770833090165  0.38124197127641674  1.0000
  C   C10       1.0  0.7191436192050631  0.042263697771943526  0.25687730888616034  1.0000
  C   C11       1.0  0.7162918258660796  0.06169961515007573  0.20809666201707697  1.0000
  C   C12       1.0  0.5939752705618417  0.7802396675964544  0.42941058904970925  1.0000
  C   C13       1.0  0.6232523568526246  0.2890425626906535  0.22225369429808237  1.0000
  C   C14       1.0  0.6262539223479848  0.2695973768664004  0.2710639183955976  1.0000
  C   C15       1.0  0.6738579102104437  0.14591977524058566  0.2890596059697473  1.0000
  C   C16       1.0  0.6682343156132191  0.18534699564003188  0.19006561009595657  1.0000
  C   C17       1.0  0.6692000798529207  0.20416868825416398  0.14036395947835698  1.0000
  C   C18       1.0  0.670886212488547  0.12660231792775534  0.3386453687968114  1.0000
  C   C19       1.0  0.675652255623909  0.2176968907706183  0.0975193780353578  1.0000
  C   C20       1.0  0.22105078225525424  0.12644829325258664  0.3832626005417694  1.0000
  C   C21       1.0  0.0832090655705571  0.280843872121892  0.27496770974074275  1.0000
  C   C22       1.0  0.06282340986714269  0.2999697691261076  0.22646187288621888  1.0000
  C   C23       1.0  0.626957674451333  0.09417477855014068  0.4284392021403817  1.0000
  C   C24       1.0  0.2190081186831137  0.08197922516541215  0.21018324159913956  1.0000
  C   C25       1.0  0.2396059155397978  0.06284894597830264  0.25867404675530276  1.0000
  C   C26       1.0  0.1719975696222207  0.1619106380799593  0.291847171482253  1.0000
  C   C27       1.0  0.13000619043422287  0.20077430320646536  0.19327850003094937  1.0000
  C   C28       1.0  0.1055061913918962  0.21962217600540163  0.1440122650922149  1.0000
  C   C29       1.0  0.1963822883450206  0.1427120633537768  0.341100309686297  1.0000
  C   C30       1.0  0.0810924938354205  0.23512231230380828  0.1018231665338476  1.0000
  C   C31       1.0  0.6102584990605421  0.7368850384470561  0.6133706056621548  1.0000
  C   C32       1.0  0.5125198467237482  0.746935498789931  0.6416200223135532  1.0000
  C   C33       1.0  0.5280455670846678  0.7178223192318499  0.6899274347380738  1.0000
  C   C34       1.0  0.2817528227853571  0.11366469381960802  0.5676828988052733  1.0000
  C   C35       1.0  0.6415249074662128  0.6765031528783325  0.7112055572539971  1.0000
  C   C36       1.0  0.7389934881109852  0.666426775881469  0.6824257249858974  1.0000
  C   C37       1.0  0.7234817803051854  0.6968089792180977  0.6343611921587993  1.0000
  C   C38       1.0  0.7634002833663158  0.5403174714854729  0.7792361674283512  1.0000
  C   C39       1.0  0.7839628031695866  0.5115629302566731  0.8271501047718459  1.0000
  C   C40       1.0  0.5855231156181945  0.6905258784661401  0.846000291580168  1.0000
  C   C41       1.0  0.5695862195071584  0.7194685370665042  0.7976415989653488  1.0000
  C   C42       1.0  0.6580596614084014  0.6455231031276869  0.762538775332338  1.0000
  C   C43       1.0  0.6944484652828534  0.5876749781159987  0.8610960388403086  1.0000
  C   C44       1.0  0.6355489009525924  0.12173633501100775  0.6151793169242054  1.0000
  C   C45       1.0  0.590492944432235  0.780448734707683  0.563266592094635  1.0000
  C   C46       1.0  0.7075167007573313  0.015485666235576871  0.642943562679747  1.0000
  C   C47       1.0  0.7218090694558016  0.029522031498856863  0.6909266479020316  1.0000
  C   C48       1.0  0.6682949469882472  0.14804127591040145  0.7142489771578296  1.0000
  C   C49       1.0  0.5977168647844947  0.25393221867494026  0.6860235416643902  1.0000
  C   C50       1.0  0.581455729791557  0.24064662007129575  0.6380028143967137  1.0000
  C   C51       1.0  0.5851553866095641  0.25888765759896876  0.7923162186849879  1.0000
  C   C52       1.0  0.5987587731659261  0.2796394980816573  0.840036659451229  1.0000
  C   C53       1.0  0.8083600963347093  0.10884237351734094  0.8354663650629347  1.0000
  C   C54       1.0  0.7949608033532911  0.08913768620903562  0.7876845921143171  1.0000
  C   C55       1.0  0.6832153061673835  0.16421094278965162  0.7653495791464734  1.0000
  C   C56       1.0  0.6116803296710174  0.10188096727453211  0.5650553721884676  1.0000
  C   C57       1.0  0.710606435165566  0.2044625883926799  0.8618323566897245  1.0000
  C   C58       1.0  0.24939892790855822  0.1351030423414059  0.6195422723205865  1.0000
  C   C59       1.0  0.2749141366461955  0.21983808906875887  0.6440428468680679  1.0000
  C   C60       1.0  0.25551747239057926  0.23327055226150153  0.6929826875814838  1.0000
  C   C61       1.0  0.20720234723335548  0.1691339407412969  0.7194382534899404  1.0000
  C   C62       1.0  0.1796910580373847  0.08697514661349712  0.6933356586778885  1.0000
  C   C63       1.0  0.20234364136791774  0.06798344463679487  0.6443694505721851  1.0000
  C   C64       1.0  0.2191922847903243  0.08098647606443167  0.80066818169891  1.0000
  C   C65       1.0  0.1898885132522707  0.09379243325066976  0.8498751493110744  1.0000
  C   C66       1.0  0.09916306382139337  0.3210387012410934  0.8416935041653842  1.0000
  C   C67       1.0  0.6181621694314359  0.7308274048503025  0.3811599382101249  1.0000
  C   C68       1.0  0.1269804570869653  0.3074146073215688  0.7932337398248278  1.0000
  C   C69       1.0  0.18485279899043405  0.18651424321864601  0.7714975770697592  1.0000
  C   C70       1.0  0.12534199149737188  0.2158198696439514  0.8703748498092948  1.0000
  C   C71       1.0  0.705575667514175  0.23663092223233667  0.0495843141023116  1.0000
  C   C72       1.0  0.7161276875880205  0.5697366260967412  0.0459664576626579  1.0000
  C   C73       1.0  0.035448387712897  0.25254628806379026  0.054123576108558794  1.0000
  C   C74       1.0  0.7307138558455578  0.2280392150667793  0.9119234590658606  1.0000
  C   C75       1.0  0.7193634903970504  0.5503248592330507  0.9121416418156868  1.0000
  C   C76       1.0  0.06720085268867139  0.23917006792631673  0.9186491537507706  1.0000
  C   C77       1.0  0.7054668463570621  0.5647741607238927  0.2676069866303976  1.0000
  C   C78       1.0  0.7183835068537048  0.5473697349382293  0.21839848781210236  1.0000
  O   O1        1.0  0.5230655983908007  0.17766534328983857  0.4437021765891415  1.0000
  O   O2        1.0  0.48927966221395275  0.8064672754775158  0.5442707637944365  1.0000
  O   O3        1.0  0.673315829764455  0.7966430777034574  0.542437392220286  1.0000
  O   O4        1.0  0.689598917461879  0.9950149048814791  0.5454808375603192  1.0000
  O   O5        1.0  0.4878014551167881  0.01296107298674087  0.4963104446319306  1.0000
  O   O6        1.0  0.0202844641938853  0.16516306611237752  0.03685859732907909  1.0000
  O   O7        1.0  0.8094234163559548  0.15717560553802196  0.03319028166137631  1.0000
  O   O8        1.0  0.6253918062660873  0.33691262687091256  0.02831580047571689  1.0000
  O   O9        1.0  0.641834573099814  0.5353175358060441  0.0312012399105797  1.0000
  O   O10       1.0  0.8094554873547253  0.558856609282479  0.022792133855439493  1.0000
  O   O11       1.0  0.009992875989418299  0.35786855918870236  0.03393122197483929  1.0000
  O   O12       1.0  0.3052254817514211  0.18411712260862612  0.4437807275243344  1.0000
  O   O13       1.0  0.0391244215823363  0.16018524566482037  0.9351775591729847  1.0000
  O   O14       1.0  0.8311566584764944  0.15165764589998096  0.9300235314551769  1.0000
  O   O15       1.0  0.6452173841272284  0.32829159785763556  0.9330053801179402  1.0000
  O   O16       1.0  0.637218500376207  0.5413631374030249  0.9367635481104769  1.0000
  O   O17       1.0  0.8244921806601864  0.522267766481413  0.9271132245633281  1.0000
  O   O18       1.0  0.03969238686658369  0.3462802101654816  0.9392283677412577  1.0000
  O   O19       1.0  0.8352876705331127  0.3301313690081498  0.9831379514345071  1.0000
  O   O20       1.0  0.2864009723688312  0.007907918805820197  0.45273236710367826  1.0000
  O   O21       1.0  0.49132297833281047  0.8070549430661915  0.4486685970288278  1.0000
  O   O22       1.0  0.675314284295112  0.7996111458642899  0.44779943728407545  1.0000
  O   O23       1.0  0.7016633619541679  0.9927381544513025  0.45043842080062996  1.0000
  O   O24       1.0  0.5160001845159385  0.18513237200748736  0.546160447444784  1.0000
  O   O25       1.0  0.30272042149263007  0.19302565645849507  0.5467497730130829  1.0000
  O   O26       1.0  0.2920193468521717  0.012030098822350491  0.5483786561348225  1.0000
  O   O27       1.0  0.2837839866791896  0.9574421260730548  0.7842598467540325  1.0000
  O   O28       1.0  0.2252907596995897  0.9887829029753519  0.876526358716319  1.0000
  O   O29       1.0  0.33063614856050083  0.36008950225883035  0.49510152086691755  1.0000
  O   O30       1.0  0.009944878711543497  0.9834032565169581  0.9827583501250672  1.0000
  F   F1        1.0  0.8502507585254973  0.4597658323098201  0.7471802775526158  1.0000
  F   F2        1.0  0.7883662270240633  0.9218589405775435  0.7164978411664079  1.0000
  F   F3        1.0  0.5132184420078616  0.3475719013903388  0.6132807349147739  1.0000
  F   F4        1.0  0.2865310108173702  0.31168001766040027  0.7163711208458421  1.0000
  F   F5        1.0  0.5482433163852392  0.9091610064836575  0.2757037407661187  1.0000
