data_image0
_chemical_formula_structural       Zn4H44C72N4O16
_chemical_formula_sum              "Zn4 H44 C72 N4 O16"
_cell_length_a       10.201739825526657
_cell_length_b       12.033797122219081
_cell_length_c       13.078062817402817
_cell_angle_alpha    93.51563119306446
_cell_angle_beta     111.84930714890945
_cell_angle_gamma    96.1203748951329

_space_group_name_H-M_alt    "P 1"
_space_group_IT_number       1

loop_
  _space_group_symop_operation_xyz
  'x, y, z'

loop_
  _atom_site_type_symbol
  _atom_site_label
  _atom_site_symmetry_multiplicity
  _atom_site_fract_x
  _atom_site_fract_y
  _atom_site_fract_z
  _atom_site_occupancy
  Zn  Zn1       1.0  0.1600075713589675  0.49396428428733685  0.20592249594916015  1.0000
  Zn  Zn2       1.0  0.8399913022034724  0.5060342687019315  0.7940775511333201  1.0000
  Zn  Zn3       1.0  0.9266930926575654  0.49673991233203924  0.34323304336616905  1.0000
  Zn  Zn4       1.0  0.07330819641217089  0.5032603207129255  0.6567655075997153  1.0000
  H   H1        1.0  0.4346493714755582  0.5384566359448115  0.17295600197657987  1.0000
  H   H2        1.0  0.5653505712971665  0.46154189026672293  0.8270466434372352  1.0000
  H   H3        1.0  0.6659875010558806  0.6674318837219105  0.2638195626031958  1.0000
  H   H4        1.0  0.3340113873775863  0.33256665188672935  0.7361827816423061  1.0000
  H   H5        1.0  0.6992422080313005  0.8016532820463309  0.42814152352707424  1.0000
  H   H6        1.0  0.3007557769988054  0.1983461152811472  0.5718590874629896  1.0000
  H   H7        1.0  0.27252640174889114  0.6709926822129191  0.3943715760943506  1.0000
  H   H8        1.0  0.727472070787961  0.32900923152493533  0.6056300986814024  1.0000
  H   H9        1.0  0.39255211872191603  0.8146471437167762  0.5331361771131499  1.0000
  H   H10       1.0  0.6074495118756857  0.18535474762329326  0.46686563544654563  1.0000
  H   H11       1.0  0.6973384681185737  0.9138375341771406  0.5625486336835125  1.0000
  H   H12       1.0  0.3026595736506296  0.0861677750705638  0.4374500744594841  1.0000
  H   H13       1.0  0.8117966687622699  0.0671016009146186  0.698688003307723  1.0000
  H   H14       1.0  0.18820212051739563  0.9329020000860666  0.30131310445680987  1.0000
  H   H15       1.0  0.8301880617500855  0.19118251291833127  0.8627306595378172  1.0000
  H   H16       1.0  0.16980888381179676  0.8088168764256238  0.1372719474469477  1.0000
  H   H17       1.0  0.4190766474854328  0.029691307960973697  0.8374597830346391  1.0000
  H   H18       1.0  0.5809219093341866  0.9703055577654636  0.16254083105906153  1.0000
  H   H19       1.0  0.4003352279479132  0.908682920590181  0.67523401911253  1.0000
  H   H20       1.0  0.5996657542930278  0.09131561360486978  0.3247666303065841  1.0000
  H   H21       1.0  0.7522188453791828  0.2446588130198819  0.9990289082517453  1.0000
  H   H22       1.0  0.2477759766331573  0.7553406124989264  0.000970799233378666  1.0000
  H   H23       1.0  0.45735168279826866  0.1357731910595916  0.9866537672769271  1.0000
  H   H24       1.0  0.5426434609138937  0.8642279159284952  0.013346138917981315  1.0000
  H   H25       1.0  0.3785914611814079  0.2114462161830062  0.12274254501756593  1.0000
  H   H26       1.0  0.6214061228231103  0.788556541893058  0.8772596936657708  1.0000
  H   H27       1.0  0.4279065127475122  0.3253697203299454  0.30258033370252246  1.0000
  H   H28       1.0  0.5720963429532803  0.6746329907605713  0.6974234108223956  1.0000
  H   H29       1.0  0.6729711497699854  0.4356579485686325  0.4031215117210041  1.0000
  H   H30       1.0  0.3270346833136061  0.5643439225636371  0.5968792083489377  1.0000
  H   H31       1.0  0.8117515032402379  0.3237838483906259  0.15984906961431736  1.0000
  H   H32       1.0  0.18824556351546556  0.6762164280363124  0.8401475109572945  1.0000
  H   H33       1.0  0.8478472008106693  0.11572992234206937  0.500018811082015  1.0000
  H   H34       1.0  0.1521520787343675  0.8842652641050607  0.49998037402820483  1.0000
  H   H35       1.0  0.8013984187118197  0.9529951556311501  0.35786233505824333  1.0000
  H   H36       1.0  0.1986002741726622  0.04700257979764191  0.6421345497853184  1.0000
  H   H37       1.0  0.050227277986280704  0.14894880185409684  0.21199312154152497  1.0000
  H   H38       1.0  0.9497722340187946  0.8510531198672806  0.7880065572395267  1.0000
  H   H39       1.0  0.9114157658354004  0.815300696600417  0.28995903872508694  1.0000
  H   H40       1.0  0.08858656765956849  0.18469953863451843  0.7100382819670943  1.0000
  H   H41       1.0  0.8569952405666614  0.9097646951398133  0.9135984501254274  1.0000
  H   H42       1.0  0.14300709292830757  0.09023554009512938  0.08639887056676092  1.0000
  H   H43       1.0  0.8663158027554944  0.05887509899695691  0.0546258221998031  1.0000
  H   H44       1.0  0.13368352857162344  0.9411260051639515  0.9453706943423302  1.0000
  C   C1        1.0  0.4537464534133592  0.598667529799016  0.24438344356901356  1.0000
  C   C2        1.0  0.5462536502092731  0.4013318371471541  0.755619301199694  1.0000
  C   C3        1.0  0.5813639160137143  0.6713269885410539  0.29534604434352474  1.0000
  C   C4        1.0  0.4186361876089252  0.32867237840511615  0.7046567004251829  1.0000
  C   C5        1.0  0.598802435910862  0.7461296470308196  0.38616809379688993  1.0000
  C   C6        1.0  0.4011978186476668  0.2538705722370764  0.6138332188847004  1.0000
  C   C7        1.0  0.48706735045610833  0.749412279746039  0.4244775901818585  1.0000
  C   C8        1.0  0.5129330599953191  0.25058878605003804  0.5755230561336193  1.0000
  C   C9        1.0  0.362854153159887  0.6724334831670261  0.36859278997079065  1.0000
  C   C10       1.0  0.6371452079092988  0.3275675862326253  0.6314083208973855  1.0000
  C   C11       1.0  0.49011572448556256  0.8251563935044783  0.5163257696455404  1.0000
  C   C12       1.0  0.5098858961980213  0.1748455094226813  0.48367451147213825  1.0000
  C   C13       1.0  0.6002880610490279  0.9036987045268746  0.5801709738150934  1.0000
  C   C14       1.0  0.39971039165978073  0.09630323238516071  0.4198276380766331  1.0000
  C   C15       1.0  0.6054105314075143  0.9771867728791719  0.6741389838292166  1.0000
  C   C16       1.0  0.3945877753224138  0.022814305917591995  0.3258618258706392  1.0000
  C   C17       1.0  0.7256253633482785  0.058733931518041495  0.7292553449592633  1.0000
  C   C18       1.0  0.2743717232354753  0.9412663217347228  0.2707442984963748  1.0000
  C   C19       1.0  0.7363117668017624  0.12851656616640378  0.8214433868187998  1.0000
  C   C20       1.0  0.2636875992244327  0.8714844974397021  0.1785584897703743  1.0000
  C   C21       1.0  0.6277796811768396  0.11947973577338898  0.864074144591406  1.0000
  C   C22       1.0  0.37221798711045306  0.8805179742912587  0.13592703340987816  1.0000
  C   C23       1.0  0.5058062573961877  0.0392702528062614  0.8075557370958111  1.0000
  C   C24       1.0  0.49419247018737167  0.9607274420677356  0.19244650779479844  1.0000
  C   C25       1.0  0.4950779251567639  0.9705205327738895  0.7153059194124725  1.0000
  C   C26       1.0  0.5049211042985746  0.029478866743559706  0.28469346130389545  1.0000
  C   C27       1.0  0.6498342022676551  0.18970968854242187  0.9649810444439952  1.0000
  C   C28       1.0  0.3501616740839353  0.810289727579274  0.03501896420943494  1.0000
  C   C29       1.0  0.56057371707179  0.18960987041582913  0.020189617290505165  1.0000
  C   C30       1.0  0.43942126579045754  0.810390395837615  0.979810189549511  1.0000
  C   C31       1.0  0.5896743710475646  0.2569871673886225  0.1245793915816051  1.0000
  C   C32       1.0  0.41032272049319124  0.7430130800706038  0.8754210175950451  1.0000
  C   C33       1.0  0.4832614508876603  0.2594979749875889  0.16863618054542684  1.0000
  C   C34       1.0  0.5167383976882718  0.7405056108224385  0.8313659941084311  1.0000
  C   C35       1.0  0.5103021034935368  0.32268768367559625  0.2687198353371301  1.0000
  C   C36       1.0  0.489700586400339  0.6773141924738227  0.7312830441118905  1.0000
  C   C37       1.0  0.6447913913343156  0.38384554722470193  0.32466058821988497  1.0000
  C   C38       1.0  0.3552107019849799  0.6161588894934695  0.675338459520468  1.0000
  C   C39       1.0  0.7225338820807182  0.32111814162059454  0.18706843825973604  1.0000
  C   C40       1.0  0.27746351133182395  0.6788838104820909  0.812929106742672  1.0000
  C   C41       1.0  0.9713839855985714  0.22328500789411984  0.434834743301444  1.0000
  C   C42       1.0  0.028618632685173388  0.7767109737157012  0.5651677418316298  1.0000
  C   C43       1.0  0.8913639280226848  0.12106863887622407  0.43566103390732297  1.0000
  C   C44       1.0  0.10863761113674994  0.8789273810984141  0.5643373214524061  1.0000
  C   C45       1.0  0.8660873542666964  0.0306329961867888  0.35658334201968966  1.0000
  C   C46       1.0  0.1339127146568657  0.9693664113141836  0.6434140427019772  1.0000
  C   C47       1.0  0.9189548882411812  0.0407368719307755  0.2721118133304258  1.0000
  C   C48       1.0  0.08104429215004667  0.959263379908407  0.7278861352988245  1.0000
  C   C49       1.0  0.0044550985947751035  0.1409108532696237  0.27452252380864195  1.0000
  C   C50       1.0  0.995547254728244  0.8590893587911455  0.7254778597675653  1.0000
  C   C51       1.0  0.0319955735887518  0.23244787643495354  0.3544579527515027  1.0000
  C   C52       1.0  0.9680037775664091  0.7675532045517811  0.645541626674657  1.0000
  C   C53       1.0  0.8917591519339824  0.9488831586018874  0.18356468236758877  1.0000
  C   C54       1.0  0.10824107288247832  0.0511170954272657  0.8164320359879655  1.0000
  C   C55       1.0  0.8950034761674389  0.836813888903542  0.2067286991111744  1.0000
  C   C56       1.0  0.10499764213836471  0.16318551499386297  0.7932682210578083  1.0000
  C   C57       1.0  0.8938862730667978  0.7524484214318219  0.1278407626873631  1.0000
  C   C58       1.0  0.1061171098104126  0.24755181019955325  0.8721560934521336  1.0000
  C   C59       1.0  0.8846238722437504  0.7783167643094727  0.022288461657588132  1.0000
  C   C60       1.0  0.1153763525727101  0.22168348971968746  0.9777082566979731  1.0000
  C   C61       1.0  0.8689453763826124  0.8885678313215666  0.996200288372066  1.0000
  C   C62       1.0  0.1310557369661822  0.111431578369384  0.003795866075904509  1.0000
  C   C63       1.0  0.8736074159226843  0.9728966172920293  0.07564032597701234  1.0000
  C   C64       1.0  0.1263929697436907  0.027104477471766607  0.9243564917334341  1.0000
  C   C65       1.0  0.1295494453742378  0.33147308830270816  0.3448556651126964  1.0000
  C   C66       1.0  0.8704515467807282  0.6685254343052519  0.6551465157484273  1.0000
  C   C67       1.0  0.9845664976242148  0.31815154042363497  0.5182035586238528  1.0000
  C   C68       1.0  0.015433279341586056  0.6818461508467946  0.4817982217140583  1.0000
  C   C69       1.0  0.926047594385345  0.6399972702089088  0.16580022334063219  1.0000
  C   C70       1.0  0.07395367981336422  0.3600029802166845  0.8341960304622306  1.0000
  C   C71       1.0  0.9017899324022665  0.6929474377097408  0.9406896411027861  1.0000
  C   C72       1.0  0.0982104483070927  0.3070536628476006  0.05930641088665572  1.0000
  N   N1        1.0  0.34696806226041577  0.5988975632775462  0.2818159371599904  1.0000
  N   N2        1.0  0.653033095701474  0.4011017942715113  0.7181871087770305  1.0000
  N   N3        1.0  0.7480871819064915  0.38250649882549936  0.2835527136810684  1.0000
  N   N4        1.0  0.25191353041671505  0.6174962716140443  0.7164450684601749  1.0000
  O   O1        1.0  0.07631358009776787  0.4249232196677111  0.31120286818595133  1.0000
  O   O2        1.0  0.9236849717648427  0.5750736518522714  0.6887969801867444  1.0000
  O   O3        1.0  0.2517134080970322  0.31853660387132987  0.35503527007682584  1.0000
  O   O4        1.0  0.7482878958437382  0.6814636117929992  0.6449655780520799  1.0000
  O   O5        1.0  0.0779501417481328  0.40566065045442196  0.529345544597206  1.0000
  O   O6        1.0  0.9220505336640273  0.5943361848907075  0.47065720327513827  1.0000
  O   O7        1.0  0.9066695302630023  0.3129570136952395  0.5731380209616006  1.0000
  O   O8        1.0  0.09332886570670948  0.6870390112965623  0.4268624937772076  1.0000
  O   O9        1.0  0.8578748102824109  0.5962934638460169  0.22045247128414064  1.0000
  O   O10       1.0  0.1421298026550062  0.40370758174226035  0.7795470825415833  1.0000
  O   O11       1.0  0.02472403323576341  0.6012309675522899  0.1432106289570072  1.0000
  O   O12       1.0  0.9752769242201254  0.3987675956104795  0.8567861918570758  1.0000
  O   O13       1.0  0.8052445966516544  0.6051628826771847  0.9035826450918877  1.0000
  O   O14       1.0  0.1947566924180819  0.39483735036777284  0.09641590587398952  1.0000
  O   O15       1.0  0.005191808231252502  0.7127856756456765  0.9121142792980949  1.0000
  O   O16       1.0  0.9948080948853856  0.2872128969141983  0.08788224034766758  1.0000
