data_image0
_chemical_formula_structural       Nd4H32C24S4N4O36
_chemical_formula_sum              "Nd4 H32 C24 S4 N4 O36"
_cell_length_a       7.311509372379044
_cell_length_b       10.40000603717793
_cell_length_c       15.927544258842497
_cell_angle_alpha    92.80127353981639
_cell_angle_beta     102.66487970278516
_cell_angle_gamma    110.66345997964585

_space_group_name_H-M_alt    "P 1"
_space_group_IT_number       1

loop_
  _space_group_symop_operation_xyz
  'x, y, z'

loop_
  _atom_site_type_symbol
  _atom_site_label
  _atom_site_symmetry_multiplicity
  _atom_site_fract_x
  _atom_site_fract_y
  _atom_site_fract_z
  _atom_site_occupancy
  Nd  Nd1       1.0  0.1971966923646702  0.4906284067169366  0.9284732428466425  1.0000
  Nd  Nd2       1.0  0.27582257660220205  0.0092970390197635  0.5713103781598006  1.0000
  Nd  Nd3       1.0  0.8028018420270653  0.5093698262230788  0.071524842408941  1.0000
  Nd  Nd4       1.0  0.7241770190702114  0.9907043067681371  0.4286887551333932  1.0000
  H   H1        1.0  0.2285802938455672  0.6059127281779908  0.7633521915102717  1.0000
  H   H2        1.0  0.352636194315629  0.8935699637148673  0.736548144361933  1.0000
  H   H3        1.0  0.7714193680133973  0.3940875799939505  0.236646073443147  1.0000
  H   H4        1.0  0.6473614554453349  0.10643241968899278  0.26345138595715406  1.0000
  H   H5        1.0  0.4469952966991426  0.6039723863289977  0.7966318393826055  1.0000
  H   H6        1.0  0.5404557752119317  0.8959979850660176  0.7025481522249989  1.0000
  H   H7        1.0  0.5530032376925859  0.3960258466110176  0.2033662458729779  1.0000
  H   H8        1.0  0.4595388673568975  0.1040023231059237  0.2974507270823706  1.0000
  H   H9        1.0  0.1235107600058214  0.27495577854570286  0.7715306982644845  1.0000
  H   H10       1.0  0.5743613489057182  0.2253369832415544  0.7276542140767006  1.0000
  H   H11       1.0  0.8764878405724658  0.7250414167783461  0.22846651865133072  1.0000
  H   H12       1.0  0.4256377442018149  0.7746622873144204  0.2723453644210067  1.0000
  H   H13       1.0  0.36513589678244046  0.3382129980547433  0.8090243868651185  1.0000
  H   H14       1.0  0.7133526291192921  0.1608024584832677  0.6895302076032761  1.0000
  H   H15       1.0  0.6348638974496481  0.6617852348852722  0.19097214140877125  1.0000
  H   H16       1.0  0.2866458390858852  0.8391968120727141  0.3104687459920753  1.0000
  H   H17       1.0  0.4284845374443264  0.1969561114481877  0.8918166421639027  1.0000
  H   H18       1.0  0.8363574360536743  0.3035057817408884  0.6074627767074502  1.0000
  H   H19       1.0  0.5715109847374577  0.8030400462599089  0.10818219547317648  1.0000
  H   H20       1.0  0.1636562415827498  0.6965007521268234  0.3925438438931933  1.0000
  H   H21       1.0  0.2683944009247625  0.2520970989022402  0.12113587530379988  1.0000
  H   H22       1.0  0.39802298945009074  0.2477650522607817  0.37929711323420173  1.0000
  H   H23       1.0  0.7316053832716846  0.7479011340377753  0.8788634597565019  1.0000
  H   H24       1.0  0.6019910802878526  0.7522352559111595  0.6207057007210464  1.0000
  H   H25       1.0  0.3046073728080571  0.9361848512753355  0.8904055713109427  1.0000
  H   H26       1.0  0.9741134399478212  0.5640770902050107  0.6089403244619402  1.0000
  H   H27       1.0  0.6953875194535469  0.0638113064327612  0.10959404481697987  1.0000
  H   H28       1.0  0.025894603531739214  0.4359294436627081  0.391063478803879  1.0000
  H   H29       1.0  0.14976902802911238  0.9958768223388431  0.13157958344233825  1.0000
  H   H30       1.0  0.525024694839196  0.5040510068017241  0.368966323524269  1.0000
  H   H31       1.0  0.8502283076910114  0.0041203729852128  0.8684205938483769  1.0000
  H   H32       1.0  0.47498002740738327  0.4959482637542507  0.6310374757014684  1.0000
  C   C1        1.0  0.1534515876515315  0.7916874900193633  0.013746486115714204  1.0000
  C   C2        1.0  0.8477552405051652  0.7084146586028196  0.48601114431937004  1.0000
  C   C3        1.0  0.8465439906811765  0.2083076300727669  0.9862542899680019  1.0000
  C   C4        1.0  0.15224309030908484  0.291586687185081  0.5139909493487236  1.0000
  C   C5        1.0  0.3621239028678856  0.1447557276305105  0.9413837452675435  1.0000
  C   C6        1.0  0.7740658543469929  0.3554322349445869  0.5580325433801078  1.0000
  C   C7        1.0  0.6378733105147489  0.8552435429254642  0.05861536191628857  1.0000
  C   C8        1.0  0.22593842968277764  0.6445742989231249  0.4419703172579687  1.0000
  C   C9        1.0  0.27553346021934283  0.17650573845259024  0.07347789018088237  1.0000
  C   C10       1.0  0.5272241365846496  0.3234269705958539  0.4266148180443564  1.0000
  C   C11       1.0  0.7244656940569312  0.8234924944874322  0.9265222233702628  1.0000
  C   C12       1.0  0.47278190165320666  0.6765712623441686  0.5733893626463311  1.0000
  C   C13       1.0  0.29525222794867273  0.0030910579508826998  0.9426447804456257  1.0000
  C   C14       1.0  0.8474263088916769  0.4971290707190406  0.5568077506205211  1.0000
  C   C15       1.0  0.7047421005793097  0.9969040621412546  0.057354745833372106  1.0000
  C   C16       1.0  0.15257371814124088  0.5028753879167454  0.4431932092011265  1.0000
  C   C17       1.0  0.2205437403350033  0.9458720338968192  0.011565371748979205  1.0000
  C   C18       1.0  0.7629028294185004  0.5541854972390041  0.4881786384471879  1.0000
  C   C19       1.0  0.7794541591187351  0.0541261990431963  0.9884348953906537  1.0000
  C   C20       1.0  0.23709623859995319  0.44581377331697775  0.5118279570165497  1.0000
  C   C21       1.0  0.2100439029978318  0.0352239490629458  0.0771996654123868  1.0000
  C   C22       1.0  0.5992918583889517  0.4647170609131948  0.4228915452565828  1.0000
  C   C23       1.0  0.7899532492160686  0.9647763591089953  0.9227989067180074  1.0000
  C   C24       1.0  0.4007112981735828  0.5352873977225983  0.5771111356836583  1.0000
  S   S1        1.0  0.755979876763625  0.47279801402546434  0.8259495097226404  1.0000
  S   S2        1.0  0.9524772166631262  0.027210440988206096  0.6742138923434735  1.0000
  S   S3        1.0  0.24401677790321225  0.5272002189145581  0.17404810421906794  1.0000
  S   S4        1.0  0.047523070098201003  0.9727898671837352  0.3257849975123079  1.0000
  N   N1        1.0  0.35352608860446116  0.2286884827989084  0.0070600903628274874  1.0000
  N   N2        1.0  0.6177797056601121  0.2713562887734327  0.4926512953669046  1.0000
  N   N3        1.0  0.6464720043911285  0.7713066372932218  0.9929389751507143  1.0000
  N   N4        1.0  0.38223228077545446  0.7286471322463937  0.5073550556869718  1.0000
  O   O1        1.0  0.3438908953612269  0.6334635072017392  0.8138394248805694  1.0000
  O   O2        1.0  0.3912500985548489  0.8667434406326179  0.6856519420320168  1.0000
  O   O3        1.0  0.6561063842079661  0.3665347257382762  0.18615881396349468  1.0000
  O   O4        1.0  0.6087451077476017  0.13325790515528976  0.31434702712427043  1.0000
  O   O5        1.0  0.2366603610181028  0.3410259749277955  0.8186376875925203  1.0000
  O   O6        1.0  0.5732914006618158  0.1590727526745681  0.6799059963307811  1.0000
  O   O7        1.0  0.7633368624001733  0.6589732956281792  0.18135861280490664  1.0000
  O   O8        1.0  0.4267088860995114  0.8409275554973731  0.32009289352500037  1.0000
  O   O9        1.0  0.6796277329255034  0.5778887962755519  0.7916866355035237  1.0000
  O   O10       1.0  0.803258392594756  0.9220255438575079  0.7083890607191915  1.0000
  O   O11       1.0  0.3203726811911237  0.4221094366644635  0.2083119210659348  1.0000
  O   O12       1.0  0.19674057817529433  0.0779758019303927  0.2916094476716395  1.0000
  O   O13       1.0  0.2217110154182363  0.7268541318640089  0.9668633857102261  1.0000
  O   O14       1.0  0.02603693782442182  0.7733600792820778  0.5326700023328  1.0000
  O   O15       1.0  0.7782893325118322  0.2731451386919659  0.03313603919899318  1.0000
  O   O16       1.0  0.9739638414661512  0.22664230412178907  0.46733124910487317  1.0000
  O   O17       1.0  0.035654066500306746  0.7406668755505166  0.0616040851154764  1.0000
  O   O18       1.0  0.7347993663548493  0.759281705909288  0.43840180657807787  1.0000
  O   O19       1.0  0.9643476636075899  0.2593303197735324  0.9383948529189251  1.0000
  O   O20       1.0  0.2651988471397359  0.2407217151105385  0.5615978135899268  1.0000
  O   O21       1.0  0.42717108462807823  0.3666831048208507  0.006919135510166491  1.0000
  O   O22       1.0  0.5534253131419715  0.13340420900593128  0.49271439208872164  1.0000
  O   O23       1.0  0.5728287657549271  0.6333140905032052  0.9930793312103672  1.0000
  O   O24       1.0  0.4465847374177727  0.8666002496298545  0.5072895492046428  1.0000
  O   O25       1.0  0.8436456040559646  0.5063648903970446  0.9234252037545116  1.0000
  O   O26       1.0  0.9121119852250387  0.9942010725601732  0.57664893791663  1.0000
  O   O27       1.0  0.15635355523812677  0.4936333425429709  0.07657350640342737  1.0000
  O   O28       1.0  0.0878851058201277  0.0058002732277344995  0.423349099160326  1.0000
  O   O29       1.0  0.5887119638123507  0.3335924941758321  0.807267774934999  1.0000
  O   O30       1.0  0.944576050830875  0.16668262814007304  0.6937336003296436  1.0000
  O   O31       1.0  0.4112846246679353  0.6664067763801426  0.19273070734647746  1.0000
  O   O32       1.0  0.05542298110791686  0.8333176800318681  0.30626544311462567  1.0000
  O   O33       1.0  0.9271204958421035  0.46806233477477116  0.7908743026357283  1.0000
  O   O34       1.0  0.16163092959010317  0.0310257548805808  0.7087792907789491  1.0000
  O   O35       1.0  0.07287803854962495  0.5319358981652513  0.20912378261985504  1.0000
  O   O36       1.0  0.8383655977214345  0.9689745532913605  0.29121865644908945  1.0000
