data_image0
_chemical_formula_structural       K4H4C32N16O8
_chemical_formula_sum              "K4 H4 C32 N16 O8"
_cell_length_a       4.177482117157362
_cell_length_b       9.4011404240243
_cell_length_c       21.603963560824983
_cell_angle_alpha    89.99983969587014
_cell_angle_beta     95.68510253461706
_cell_angle_gamma    89.99981184885398

_space_group_name_H-M_alt    "P 1"
_space_group_IT_number       1

loop_
  _space_group_symop_operation_xyz
  'x, y, z'

loop_
  _atom_site_type_symbol
  _atom_site_label
  _atom_site_symmetry_multiplicity
  _atom_site_fract_x
  _atom_site_fract_y
  _atom_site_fract_z
  _atom_site_occupancy
  K   K1        1.0  0.14870894089458628  0.8857358186675199  0.4031311295450237  1.0000
  K   K2        1.0  0.14871462794852863  0.6142639566429793  0.9031317437614277  1.0000
  K   K3        1.0  0.8512910387342743  0.1142644507702144  0.5968681453469815  1.0000
  K   K4        1.0  0.8512901913166073  0.38573524908724727  0.0968685440949457  1.0000
  H   H1        1.0  0.9296101053501926  0.15065996709829219  0.2690870072578306  1.0000
  H   H2        1.0  0.9296114678332471  0.3493406398418699  0.7690867920155571  1.0000
  H   H3        1.0  0.0703923225689849  0.8493413660338051  0.7309137004006061  1.0000
  H   H4        1.0  0.0703885545265166  0.6506564384891648  0.2309138723066511  1.0000
  C   C1        1.0  0.8248584765003671  0.37633581840347574  0.2806538995867954  1.0000
  C   C2        1.0  0.8248568564158489  0.12366486691709613  0.7806539077275759  1.0000
  C   C3        1.0  0.17514634275615037  0.6236655147282236  0.7193463882681144  1.0000
  C   C4        1.0  0.17514555727693445  0.876333275114284  0.2193463367903803  1.0000
  C   C5        1.0  0.6547687023632702  0.44378717893361164  0.328784244678566  1.0000
  C   C6        1.0  0.6547676145785103  0.05621344514703709  0.8287838823497397  1.0000
  C   C7        1.0  0.34523611688893396  0.5562152178988242  0.6712160431756118  1.0000
  C   C8        1.0  0.3452347991185789  0.9437836331836069  0.17121636216894842  1.0000
  C   C9        1.0  0.5581981600135818  0.33923703792423515  0.36914536538524356  1.0000
  C   C10       1.0  0.5581962535641338  0.1607645313636183  0.8691457856971924  1.0000
  C   C11       1.0  0.44180423942264463  0.66076535891159  0.6308544159871232  1.0000
  C   C12       1.0  0.441801334740326  0.839232546972305  0.13085390900052832  1.0000
  C   C13       1.0  0.6746536911751306  0.19908169179698382  0.34570471109078943  1.0000
  C   C14       1.0  0.6746554460058787  0.3009187946178713  0.8457045623763549  1.0000
  C   C15       1.0  0.3253439113514105  0.8009196413403928  0.6542954467466799  1.0000
  C   C16       1.0  0.32534214229857383  0.6990782837180518  0.1542951323213657  1.0000
  C   C17       1.0  0.6237361479751867  0.5912246198152573  0.33299464678648866  1.0000
  C   C18       1.0  0.6237370431058833  0.9087770410478555  0.8329948130265308  1.0000
  C   C19       1.0  0.3762638601237072  0.4087777770209585  0.667005554389398  1.0000
  C   C20       1.0  0.37626055942497055  0.09122322838877751  0.1670053448116633  1.0000
  C   C21       1.0  0.3892556837032187  0.34957722749651055  0.4215845925452513  1.0000
  C   C22       1.0  0.3892562808493736  0.15042531489952185  0.9215855335449845  1.0000
  C   C23       1.0  0.610741904579683  0.6504251693431017  0.57841510214881  1.0000
  C   C24       1.0  0.6107389018698014  0.8495738908397714  0.0784141178121232  1.0000
  C   C25       1.0  0.2700897305315165  0.4833982593969355  0.43827197667485523  1.0000
  C   C26       1.0  0.2700865296491415  0.0166022221059237  0.9382706991442334  1.0000
  C   C27       1.0  0.7299078577470793  0.5166052011434131  0.5617277180184814  1.0000
  C   C28       1.0  0.7299062190190353  0.9833959199375146  0.06172798258911171  1.0000
  C   C29       1.0  0.33021073593764777  0.23364333861128025  0.4604633476631649  1.0000
  C   C30       1.0  0.3302176104400231  0.2663579764163089  0.960464259396865  1.0000
  C   C31       1.0  0.6697868381059349  0.7663590582298241  0.5395358838882346  1.0000
  C   C32       1.0  0.6697823691888372  0.7336422930214256  0.0395350154951402  1.0000
  N   N1        1.0  0.8313007587711494  0.2290908682311752  0.2942057878449162  1.0000
  N   N2        1.0  0.8313003369454748  0.2709086569558039  0.7942051738796466  1.0000
  N   N3        1.0  0.1687016691523411  0.7709094012001785  0.7057949198142526  1.0000
  N   N4        1.0  0.16869725135897798  0.7290884213801192  0.205794520818074  1.0000
  N   N5        1.0  0.6044949495465914  0.7152787202153306  0.3367634395805226  1.0000
  N   N6        1.0  0.6044944442793747  0.7847218807842326  0.8367637329230179  1.0000
  N   N7        1.0  0.39550746413326726  0.28472261291825873  0.6632368049352381  1.0000
  N   N8        1.0  0.3955103892380122  0.21527413384228578  0.1632370180782203  1.0000
  N   N9        1.0  0.17298642201465947  0.596240986983311  0.44944672668291474  1.0000
  N   N10       1.0  0.17298495221955076  0.9037595191632661  0.9494468564767046  1.0000
  N   N11       1.0  0.8270111662725551  0.4037603461555648  0.5505529680118856  1.0000
  N   N12       1.0  0.8270150558922679  0.0962396865707404  0.05055334470137039  1.0000
  N   N13       1.0  0.27163258931654605  0.1443221906374603  0.4954479033827539  1.0000
  N   N14       1.0  0.2716386973667397  0.3556768576631485  0.9954473029695593  1.0000
  N   N15       1.0  0.7283674045473274  0.8556791424995254  0.5045518346511884  1.0000
  N   N16       1.0  0.7283612822707397  0.6443212843731204  0.004551971923909499  1.0000
  O   O1        1.0  0.6377379387365065  0.0808917292017668  0.36849136830775114  1.0000
  O   O2        1.0  0.6377411557288893  0.4191076009543977  0.8684915636919398  1.0000
  O   O3        1.0  0.3622596637900343  0.9191096039356101  0.6315087895297182  1.0000
  O   O4        1.0  0.36225885239154815  0.5808894773781363  0.13150863748760602  1.0000
  O   O5        1.0  0.9473536321927296  0.43294389444329795  0.23722527063357293  1.0000
  O   O6        1.0  0.9473572676963328  0.06705795498483982  0.7372249800843562  1.0000
  O   O7        1.0  0.0526512013031066  0.5670574386869018  0.762775480364013  1.0000
  O   O8        1.0  0.05264752309015109  0.9329412507483784  0.26277438148667903  1.0000
