data_image0
_chemical_formula_structural       Er2Co2H32C32N20O12
_chemical_formula_sum              "Er2 Co2 H32 C32 N20 O12"
_cell_length_a       10.029340196393555
_cell_length_b       10.533104837908898
_cell_length_c       12.415975391352841
_cell_angle_alpha    73.73862579378334
_cell_angle_beta     75.81080412983313
_cell_angle_gamma    71.28833431099909

_space_group_name_H-M_alt    "P 1"
_space_group_IT_number       1

loop_
  _space_group_symop_operation_xyz
  'x, y, z'

loop_
  _atom_site_type_symbol
  _atom_site_label
  _atom_site_symmetry_multiplicity
  _atom_site_fract_x
  _atom_site_fract_y
  _atom_site_fract_z
  _atom_site_occupancy
  Er  Er1       1.0  0.40225850377038347  0.31220891163420816  0.29055039489536216  1.0000
  Er  Er2       1.0  0.5977531970272452  0.6877972523128335  0.7094441549321573  1.0000
  Co  Co1       1.0  0.34085318267962356  0.29377541036275545  0.7380378241941087  1.0000
  Co  Co2       1.0  0.6591810859260152  0.7062136754312718  0.2619606219039382  1.0000
  H   H1        1.0  0.28542511510377033  0.7528318654514762  0.5443265436225886  1.0000
  H   H2        1.0  0.7145407936994488  0.24718597817362561  0.45568355132203914  1.0000
  H   H3        1.0  0.33064093040079723  0.9038552693134392  0.026707823262540772  1.0000
  H   H4        1.0  0.6693393986716459  0.0961563752615788  0.9732825097372453  1.0000
  H   H5        1.0  0.12907773608306178  0.5140595587196229  0.0903923469671994  1.0000
  H   H6        1.0  0.8709283248371664  0.48593029180381087  0.9096290125963336  1.0000
  H   H7        1.0  0.47712377252364047  0.6547670170250868  0.07013313456150164  1.0000
  H   H8        1.0  0.5228717138006331  0.3452490191909092  0.9298516239325137  1.0000
  H   H9        1.0  0.014330405201953113  0.6829042596517708  0.29452182170288665  1.0000
  H   H10       1.0  0.9856650951253557  0.3170943236042874  0.7054744477239508  1.0000
  H   H11       1.0  0.3621266641935891  0.5422330793529041  0.4605436164630632  1.0000
  H   H12       1.0  0.6378636716286151  0.45778927035713923  0.5394550807378878  1.0000
  H   H13       1.0  0.9695659201566685  0.7570676517696313  0.040747057514423084  1.0000
  H   H14       1.0  0.03042279430362532  0.24291152149879028  0.9592786077444868  1.0000
  H   H15       1.0  0.9224465617938907  0.8997373346485417  0.3694956136534627  1.0000
  H   H16       1.0  0.07751861118337193  0.10025247688630397  0.6305126099102267  1.0000
  H   H17       1.0  0.4183878573103074  0.0853643257172436  0.18464373184960434  1.0000
  H   H18       1.0  0.5816353806975628  0.9146307275241269  0.8153537488566656  1.0000
  H   H19       1.0  0.3641111362633111  0.22592509192513432  0.09972630896508154  1.0000
  H   H20       1.0  0.6359060032602529  0.7740698118021995  0.9002699547728026  1.0000
  H   H21       1.0  0.7141765466121798  0.26363165725359744  0.24426962911748973  1.0000
  H   H22       1.0  0.28582846032059456  0.7363621399637592  0.7557396901900045  1.0000
  H   H23       1.0  0.7001700504515328  0.112377955165897  0.25215990073155575  1.0000
  H   H24       1.0  0.2998346168718201  0.8876208350200937  0.7478369864598874  1.0000
  H   H25       1.0  0.3863711986996492  0.060717400771658  0.47851974109975953  1.0000
  H   H26       1.0  0.6134409799764456  0.9393548545425644  0.5214685183674206  1.0000
  H   H27       1.0  0.3973956984808639  0.0092819756140017  0.3674775722397924  1.0000
  H   H28       1.0  0.6026312323461557  0.9907150119214022  0.6325050381469522  1.0000
  H   H29       1.0  0.1671747587951984  0.20550522476957409  0.28688879378070437  1.0000
  H   H30       1.0  0.8328561572297134  0.794502998700544  0.7130766179540018  1.0000
  H   H31       1.0  0.08375663546645741  0.3554946013654359  0.3092248559021371  1.0000
  H   H32       1.0  0.9162611574372763  0.6444910892243243  0.690778367185544  1.0000
  C   C1        1.0  0.38001970466051205  0.2972247149281912  0.5833560798210228  1.0000
  C   C2        1.0  0.6200001949155691  0.7027712733511321  0.4166393925876761  1.0000
  C   C3        1.0  0.5790538898837952  0.5645932277434227  0.27680258707694344  1.0000
  C   C4        1.0  0.42097168941140256  0.43540084819986913  0.7231954914108627  1.0000
  C   C5        1.0  0.29734824349429095  0.2816910861634553  0.8948583755873399  1.0000
  C   C6        1.0  0.7027001499136317  0.7182920664776377  0.10513882644806932  1.0000
  C   C7        1.0  0.3645899585364987  0.6857707460756046  0.06417541070789669  1.0000
  C   C8        1.0  0.6354056981708069  0.3142340729564808  0.9358217218732108  1.0000
  C   C9        1.0  0.5165985931514925  0.1634461912851037  0.7475972627053123  1.0000
  C   C10       1.0  0.483437561514549  0.8365470142261913  0.2523965951860418  1.0000
  C   C11       1.0  0.26710269696334876  0.6251049047591622  0.4449490281852063  1.0000
  C   C12       1.0  0.7328799809312799  0.3749089439898937  0.5550467623624797  1.0000
  C   C13       1.0  0.26576497848191144  0.14631514469623136  0.7564443774682204  1.0000
  C   C14       1.0  0.7342598628199185  0.8536850322770063  0.2435467126553235  1.0000
  C   C15       1.0  0.1688374271145818  0.4302338847862757  0.7220689466754067  1.0000
  C   C16       1.0  0.8311883867955957  0.5697489161693737  0.27793748027293214  1.0000
  C   C17       1.0  0.22219857923054329  0.7407715085551912  0.4898321109695374  1.0000
  C   C18       1.0  0.7777786996339702  0.2592361243321335  0.5101718663499781  1.0000
  C   C19       1.0  0.13861540075960474  0.8492244958759019  0.03171616191681178  1.0000
  C   C20       1.0  0.8613679798233063  0.1507729693094291  0.9682923579543185  1.0000
  C   C21       1.0  0.0971154457720403  0.8419539319968407  0.4643400948921723  1.0000
  C   C22       1.0  0.9028592455004302  0.15804852333775443  0.5356680573687242  1.0000
  C   C23       1.0  0.16516063570824008  0.6056997919783099  0.0735996897077484  1.0000
  C   C24       1.0  0.8348310818752016  0.3942969379089333  0.9264170859158083  1.0000
  C   C25       1.0  0.2827638688255334  0.8203209280398552  0.03977154233420785  1.0000
  C   C26       1.0  0.7172258639353757  0.17968677266061658  0.9602187664157995  1.0000
  C   C27       1.0  0.0809537056838465  0.7384941647857772  0.04692449691312822  1.0000
  C   C28       1.0  0.9190371175262302  0.2615024303553852  0.9530844271918965  1.0000
  C   C29       1.0  0.06732141339556112  0.7073508135980049  0.3494225213099611  1.0000
  C   C30       1.0  0.9326609099658116  0.29266091549725803  0.6505706327218945  1.0000
  C   C31       1.0  0.019403130789221734  0.8232556256593923  0.3925112374581304  1.0000
  C   C32       1.0  0.9805656805334452  0.17674573395029824  0.6075015258369945  1.0000
  N   N1        1.0  0.30455653474097494  0.580686874809409  0.08378166120507305  1.0000
  N   N2        1.0  0.6954450844518903  0.41931502787205227  0.9162198798311962  1.0000
  N   N3        1.0  0.18995493619032544  0.6093833395722966  0.37564658294841274  1.0000
  N   N4        1.0  0.8100323268193749  0.3906254540337173  0.6243511792731906  1.0000
  N   N5        1.0  0.40438995870534467  0.2918571163083499  0.487234454714084  1.0000
  N   N6        1.0  0.5956117579471112  0.7081478869200026  0.5127663102113473  1.0000
  N   N7        1.0  0.5309292553923656  0.474819468659902  0.2821915981064508  1.0000
  N   N8        1.0  0.4690930443914497  0.5251786775504712  0.7178061113488922  1.0000
  N   N9        1.0  0.05827530981070335  0.9566567495440667  0.5121847370650059  1.0000
  N   N10       1.0  0.9416786547967889  0.0433463154717231  0.48782480238639886  1.0000
  N   N11       1.0  0.06577067841914902  0.5216567422926275  0.711016162557108  1.0000
  N   N12       1.0  0.9342527513637648  0.47831357195519797  0.2889905478024986  1.0000
  N   N13       1.0  0.6248082259031733  0.07589704354039378  0.7459452671328463  1.0000
  N   N14       1.0  0.3752329218741864  0.9241003044218271  0.25404098797210395  1.0000
  N   N15       1.0  0.23132282481964245  0.047621272636789086  0.7631811900090496  1.0000
  N   N16       1.0  0.7686846688656106  0.9523856684806302  0.23680188975172453  1.0000
  N   N17       1.0  0.2699348707645015  0.2768505078557836  0.9930797387045444  1.0000
  N   N18       1.0  0.7301037387289285  0.7231344921275493  0.006916461315434225  1.0000
  N   N19       1.0  0.060675041813446795  0.9885834224357448  0.01302126244732458  1.0000
  N   N20       1.0  0.9393053216432821  0.011413939090701299  0.9869846361263298  1.0000
  O   O1        1.0  0.42622802723328596  0.1809164706710504  0.1601480584553343  1.0000
  O   O2        1.0  0.5737840056389062  0.8190815188352402  0.83985406372188  1.0000
  O   O3        1.0  0.38098212511398805  0.45260145449749695  0.1127565179260088  1.0000
  O   O4        1.0  0.6190279723896808  0.5473995857176774  0.887244422484244  1.0000
  O   O5        1.0  0.2280658596677015  0.5011931422261355  0.3318731555538291  1.0000
  O   O6        1.0  0.7719386170372644  0.4988129455541994  0.6681268180424097  1.0000
  O   O7        1.0  0.6477035917379581  0.20739976295978826  0.2670036839157035  1.0000
  O   O8        1.0  0.35229787860977524  0.7925990854177556  0.7330018537326523  1.0000
  O   O9        1.0  0.17442142711495023  0.2777289796088168  0.3178810743114369  1.0000
  O   O10       1.0  0.8256009529812829  0.7222587800210575  0.6821151299752515  1.0000
  O   O11       1.0  0.4239066210466547  0.0738925352453776  0.3971764991965897  1.0000
  O   O12       1.0  0.5760962278282235  0.92609101052539  0.6028437912911428  1.0000
