data_image0
_chemical_formula_structural       Mn2H32C48N4O10
_chemical_formula_sum              "Mn2 H32 C48 N4 O10"
_cell_length_a       10.668267289854157
_cell_length_b       10.824682188975533
_cell_length_c       11.009151088929176
_cell_angle_alpha    116.26992869874854
_cell_angle_beta     114.13921529884378
_cell_angle_gamma    95.03722780376131

_space_group_name_H-M_alt    "P 1"
_space_group_IT_number       1

loop_
  _space_group_symop_operation_xyz
  'x, y, z'

loop_
  _atom_site_type_symbol
  _atom_site_label
  _atom_site_symmetry_multiplicity
  _atom_site_fract_x
  _atom_site_fract_y
  _atom_site_fract_z
  _atom_site_occupancy
  Mn  Mn1       1.0  0.7894519027614424  0.3840521305431466  0.930288133270395  1.0000
  Mn  Mn2       1.0  0.21054830328048274  0.6159471159144587  0.06970976779833654  1.0000
  H   H1        1.0  0.045316590218654085  0.42041339553724544  0.5550138274332355  1.0000
  H   H2        1.0  0.9546846429141456  0.5795858385560706  0.44498538004548055  1.0000
  H   H3        1.0  0.8990767613896155  0.28356770229411415  0.26129695415559695  1.0000
  H   H4        1.0  0.10092344596156273  0.7164315239268079  0.7387027552040666  1.0000
  H   H5        1.0  0.6445280361874597  0.13001374888484213  0.12281260940458352  1.0000
  H   H6        1.0  0.35547114538209  0.8699854694636854  0.8771876018360203  1.0000
  H   H7        1.0  0.669718078188204  0.2582032995513188  0.5657805842936625  1.0000
  H   H8        1.0  0.3302828485813407  0.7417980979442264  0.4342212801980808  1.0000
  H   H9        1.0  0.5142071175206696  0.3676057434630878  0.3563649249048596  1.0000
  H   H10       1.0  0.48579381121275156  0.6323956236774324  0.6436396520232748  1.0000
  H   H11       1.0  0.3020834609488147  0.45413933645507837  0.3307060027294781  1.0000
  H   H12       1.0  0.697920239420853  0.5458642075865043  0.6693006297143145  1.0000
  H   H13       1.0  0.0599061360473669  0.2800933683636586  0.2161755459906446  1.0000
  H   H14       1.0  0.9400962275950279  0.719912402036165  0.7838279163288675  1.0000
  H   H15       1.0  0.0336438205397016  0.020061018656228703  0.1357058534472628  1.0000
  H   H16       1.0  0.9663540753573019  0.979943710504287  0.8642917577390038  1.0000
  H   H17       1.0  0.5352687523123478  0.08741776184739787  0.6346633539669924  1.0000
  H   H18       1.0  0.4647289897658524  0.9125771240702247  0.3653316428639926  1.0000
  H   H19       1.0  0.2661019026403011  0.9980863432595015  0.45168206233685027  1.0000
  H   H20       1.0  0.7338961968558877  0.001909663709625401  0.5483108475510505  1.0000
  H   H21       1.0  0.131208752869199  0.17875680209218808  0.49555974076265846  1.0000
  H   H22       1.0  0.8687918099360914  0.82124357553527  0.5044351692175226  1.0000
  H   H23       1.0  0.26994497639670106  0.43749577787325933  0.7099519202613039  1.0000
  H   H24       1.0  0.7300569237904853  0.5625023632776164  0.2900470639886237  1.0000
  H   H25       1.0  0.39341677023452354  0.6435258631756113  0.9027521509075671  1.0000
  H   H26       1.0  0.6065837441345395  0.3564711895247327  0.09724580558453516  1.0000
  H   H27       1.0  0.5594437995155845  0.8940731449086315  0.10415957393123448  1.0000
  H   H28       1.0  0.4405526104177186  0.10592389653883319  0.8958385817937186  1.0000
  H   H29       1.0  0.8308560296407137  0.9447844301004976  0.21488250575819723  1.0000
  H   H30       1.0  0.1691432049474457  0.05521804234675188  0.7851209879887406  1.0000
  H   H31       1.0  0.9201762219283725  0.7325996537965267  0.12620112160777117  1.0000
  H   H32       1.0  0.07982542295028593  0.26740393521033223  0.8738010897251272  1.0000
  C   C1        1.0  0.9506095220241805  0.4382299241687591  0.7539401599963752  1.0000
  C   C2        1.0  0.0493983305628375  0.5617769661711519  0.24606232255717939  1.0000
  C   C3        1.0  0.86715953654641  0.34810047429215973  0.5785774636717491  1.0000
  C   C4        1.0  0.13284441847716266  0.6518976320117956  0.42142503754361366  1.0000
  C   C5        1.0  0.9324375455649588  0.3524978062916517  0.49233328232052304  1.0000
  C   C6        1.0  0.06756507338596408  0.6475025162521959  0.5076669529160186  1.0000
  C   C7        1.0  0.8518920694588561  0.2755748933318074  0.32941971108957807  1.0000
  C   C8        1.0  0.14811019207407838  0.7244243081605289  0.6705826110900475  1.0000
  C   C9        1.0  0.7066878889331463  0.1900137616006887  0.2502475918812904  1.0000
  C   C10       1.0  0.2933126791091496  0.8099865350800357  0.7497545512626119  1.0000
  C   C11       1.0  0.6434751271662051  0.1836208895777247  0.3368231271475111  1.0000
  C   C12       1.0  0.3565240544033443  0.81637832877081  0.6631770840930926  1.0000
  C   C13       1.0  0.7213481836360388  0.2625332857750067  0.49982723005704355  1.0000
  C   C14       1.0  0.27865443662414435  0.7374670165321575  0.5001748134704371  1.0000
  C   C15       1.0  0.3902169550927469  0.1440211498058304  0.25182565813339863  1.0000
  C   C16       1.0  0.6097833059316642  0.8559813203954718  0.7481782378780653  1.0000
  C   C17       1.0  0.4083086801074388  0.2917347107806734  0.306863640177511  1.0000
  C   C18       1.0  0.5916936350987357  0.7082677346920363  0.6931428686539223  1.0000
  C   C19       1.0  0.2892432526713264  0.3401463370221194  0.293802355513357  1.0000
  C   C20       1.0  0.7107583935165778  0.6598572317480488  0.7062016641104661  1.0000
  C   C21       1.0  0.15347541927320663  0.24271192498999736  0.2302356855001761  1.0000
  C   C22       1.0  0.8465255592056878  0.757292746840953  0.7697676532069695  1.0000
  C   C23       1.0  0.1380943312317271  0.096927488127271  0.18252228469219742  1.0000
  C   C24       1.0  0.8619066472471674  0.9030771837036723  0.8174810540149481  1.0000
  C   C25       1.0  0.25468757003819326  0.04436480184388359  0.1894462573027625  1.0000
  C   C26       1.0  0.7453109444769696  0.9556355094470845  0.8105541771666367  1.0000
  C   C27       1.0  0.23439695362878873  0.8860865272095069  0.13244291666185165  1.0000
  C   C28       1.0  0.7656019189589927  0.11391489501462358  0.8675563350099224  1.0000
  C   C29       1.0  0.472587891680675  0.16196607355178116  0.645454651477337  1.0000
  C   C30       1.0  0.5274125696697852  0.8380277250498479  0.354540022508431  1.0000
  C   C31       1.0  0.32276638400643526  0.11212674062363699  0.546174883644909  1.0000
  C   C32       1.0  0.6772327438898813  0.8878692337445171  0.4538211409439016  1.0000
  C   C33       1.0  0.24866598240917884  0.2127410667218825  0.5696993782410829  1.0000
  C   C34       1.0  0.751334529341378  0.7872560264518284  0.4302949616691621  1.0000
  C   C35       1.0  0.32632811456095834  0.3580111253649534  0.6887344776812867  1.0000
  C   C36       1.0  0.6736734255897405  0.6419859352077779  0.3112629769298678  1.0000
  C   C37       1.0  0.47733948375840646  0.4000734220166393  0.7817764786331267  1.0000
  C   C38       1.0  0.5226630828285367  0.5999236363101446  0.21822137824254648  1.0000
  C   C39       1.0  0.5683985126082194  0.5531316316961395  0.9067652203694723  1.0000
  C   C40       1.0  0.4316013360157174  0.4468664937099547  0.09323476764235045  1.0000
  C   C41       1.0  0.51018947893364  0.6651443113803737  0.9524866442556218  1.0000
  C   C42       1.0  0.48980826510842956  0.33485054418222393  0.047511065011754304  1.0000
  C   C43       1.0  0.6043648078925089  0.8072231206240872  0.06576221438621846  1.0000
  C   C44       1.0  0.3956288310591774  0.1927717338039727  0.9342347899685494  1.0000
  C   C45       1.0  0.753954127140247  0.8344541214374173  0.12853715898040716  1.0000
  C   C46       1.0  0.246041615084046  0.16554402307082225  0.8714603158278679  1.0000
  C   C47       1.0  0.8040896961  0.7168671849859576  0.0800337696424975  1.0000
  C   C48       1.0  0.19591087194230283  0.2831331116947666  0.9199683735013978  1.0000
  N   N1        1.0  0.5487756058195643  0.3018767685367791  0.7600728231366533  1.0000
  N   N2        1.0  0.45122316269488044  0.6981181151348892  0.23992257595885036  1.0000
  N   N3        1.0  0.7134815130643092  0.5794250405910759  0.9738256395327841  1.0000
  N   N4        1.0  0.2865177202145972  0.4205774520928571  0.026176045923229262  1.0000
  O   O1        1.0  0.881298787256853  0.45097442857468917  0.8266104074242407  1.0000
  O   O2        1.0  0.11870696205756558  0.5490291716850421  0.17339160467579973  1.0000
  O   O3        1.0  0.08716228418429489  0.5018335523142808  0.8215660756566622  1.0000
  O   O4        1.0  0.9128421820760835  0.4981755182840644  0.17843695297089118  1.0000
  O   O5        1.0  0.5024224306740308  0.08835568923766601  0.25579612969667664  1.0000
  O   O6        1.0  0.4975768026048686  0.911646803446267  0.7442055557593367  1.0000
  O   O7        1.0  0.2784212215688982  0.8148679504205916  0.0402158217871148  1.0000
  O   O8        1.0  0.7215797052006466  0.1851334470749535  0.9597860427046288  1.0000
  O   O9        1.0  0.17327246137113414  0.8264280360834775  0.1815815395739621  1.0000
  O   O10       1.0  0.8267273859435493  0.1735701095593001  0.8184166401469285  1.0000
