data_image0
_chemical_formula_structural       Cd4H12C28N4O16
_chemical_formula_sum              "Cd4 H12 C28 N4 O16"
_cell_length_a       7.86564525709014
_cell_length_b       8.810998328545644
_cell_length_c       10.14529561009124
_cell_angle_alpha    89.3351972425128
_cell_angle_beta     89.99955074135039
_cell_angle_gamma    90.00030750649537

_space_group_name_H-M_alt    "P 1"
_space_group_IT_number       1

loop_
  _space_group_symop_operation_xyz
  'x, y, z'

loop_
  _atom_site_type_symbol
  _atom_site_label
  _atom_site_symmetry_multiplicity
  _atom_site_fract_x
  _atom_site_fract_y
  _atom_site_fract_z
  _atom_site_occupancy
  Cd  Cd1       1.0  0.13730786877715664  0.40398704416425346  0.3637935271176288  1.0000
  Cd  Cd2       1.0  0.6373090522115772  0.0960153733791103  0.6362062138241171  1.0000
  Cd  Cd3       1.0  0.8626919243722638  0.5960135724379256  0.636207170211861  1.0000
  Cd  Cd4       1.0  0.36269074095629605  0.9039864109812753  0.3637915243313258  1.0000
  H   H1        1.0  0.8739171840863519  0.05996198745256717  0.9759458775784322  1.0000
  H   H2        1.0  0.37392601119599783  0.4400347722004199  0.0240534118857809  1.0000
  H   H3        1.0  0.12608260903783017  0.9400351914535106  0.0240577828154187  1.0000
  H   H4        1.0  0.6260750533081916  0.5599635963264974  0.9759453178442142  1.0000
  H   H5        1.0  0.10232463498481789  0.17480007039863918  0.1210102300594045  1.0000
  H   H6        1.0  0.6023310835673353  0.3251976353541437  0.8789897328653636  1.0000
  H   H7        1.0  0.8976789722141163  0.825200535283166  0.8789914530013617  1.0000
  H   H8        1.0  0.3976712522681466  0.6747973064095447  0.12101097418215549  1.0000
  H   H9        1.0  0.5703512127954794  0.0901186236084399  0.04522950721575819  1.0000
  H   H10       1.0  0.07036061007780596  0.4098812496024564  0.9547657188828822  1.0000
  H   H11       1.0  0.42964730898899006  0.9098808361621594  0.9547731635487008  1.0000
  H   H12       1.0  0.9296429971344365  0.5901171298604596  0.04523202509637509  1.0000
  C   C1        1.0  0.6327575751525244  0.221527624189477  0.2153421765785097  1.0000
  C   C2        1.0  0.13276918257355416  0.2784805332995006  0.7846496965253846  1.0000
  C   C3        1.0  0.3672384039677253  0.7784798131467668  0.78465752334872  1.0000
  C   C4        1.0  0.8672344246252449  0.7215166893349618  0.21535002088495495  1.0000
  C   C5        1.0  0.8415139593197265  0.12188213752624927  0.06465806540725787  1.0000
  C   C6        1.0  0.34152209258616034  0.37811674374459864  0.9353404328456989  1.0000
  C   C7        1.0  0.15848456247654497  0.8781196031120048  0.9353436157239159  1.0000
  C   C8        1.0  0.6584827859489548  0.6218770630563953  0.0646602761392003  1.0000
  C   C9        1.0  0.7669091364638873  0.28436544669504116  0.2877104315294829  1.0000
  C   C10       1.0  0.26691474511535757  0.2156319985281527  0.7122826110583773  1.0000
  C   C11       1.0  0.23308684262936197  0.7156362939369673  0.7122912496094711  1.0000
  C   C12       1.0  0.7330863193904658  0.7843652459595631  0.2877151348738209  1.0000
  C   C13       1.0  0.9672339028363763  0.1878511299798831  0.14174654173725537  1.0000
  C   C14       1.0  0.4672398805190737  0.3121449205199269  0.8582551354883774  1.0000
  C   C15       1.0  0.032764618958267995  0.8121517346975581  0.8582561231917153  1.0000
  C   C16       1.0  0.5327637266729467  0.687850032176641  0.1417445858122832  1.0000
  C   C17       1.0  0.6730775427971449  0.1393445136567593  0.10258987827755559  1.0000
  C   C18       1.0  0.17308595596492887  0.3606558534782422  0.8974057045263208  1.0000
  C   C19       1.0  0.3269209790075393  0.8606583728801953  0.8974108151655001  1.0000
  C   C20       1.0  0.8269201939402889  0.6393425041314201  0.102594010931071  1.0000
  C   C21       1.0  0.4477440375165357  0.24167176118074718  0.24867498338397098  1.0000
  C   C22       1.0  0.9477513798459467  0.2583265618436741  0.7513179376059682  1.0000
  C   C23       1.0  0.5522532129366339  0.7583311253530809  0.7513257100629787  1.0000
  C   C24       1.0  0.0522496846514571  0.7416695367453485  0.24868079601435508  1.0000
  C   C25       1.0  0.7409922057144483  0.36246501699991285  0.41868586807187574  1.0000
  C   C26       1.0  0.2409974033093859  0.1375311549528675  0.5813083209067001  1.0000
  C   C27       1.0  0.2590050447455141  0.6375401394718097  0.5813148214847459  1.0000
  C   C28       1.0  0.7589998471486793  0.862468359463378  0.41868942114685126  1.0000
  N   N1        1.0  0.9299016380945203  0.26932028505495953  0.2487739824783048  1.0000
  N   N2        1.0  0.42990821363408555  0.23068018742840482  0.7512220011097809  1.0000
  N   N3        1.0  0.0700930696590163  0.7306837364415699  0.7512267090312645  1.0000
  N   N4        1.0  0.5700941222198564  0.7693159220934902  0.2487757467636911  1.0000
  O   O1        1.0  0.3987375126548612  0.3752089354850199  0.27554875859070893  1.0000
  O   O2        1.0  0.8987392457404438  0.124794788734846  0.7244474100090414  1.0000
  O   O3        1.0  0.6012622804980764  0.6247961991334493  0.724453902444047  1.0000
  O   O4        1.0  0.10125927605066919  0.8752035579263123  0.2755532912146633  1.0000
  O   O5        1.0  0.6291572334982617  0.3137898734741497  0.4960021106645271  1.0000
  O   O6        1.0  0.1291546044187228  0.18622283895074784  0.5039868195199801  1.0000
  O   O7        1.0  0.37084001695505003  0.6862163961070209  0.5040005484328418  1.0000
  O   O8        1.0  0.8708439173858336  0.8137766645388707  0.4960119082726422  1.0000
  O   O9        1.0  0.8439439267423051  0.47241863188862965  0.4403141439649119  1.0000
  O   O10       1.0  0.34393978850724233  0.0275848230296134  0.559682360179238  1.0000
  O   O11       1.0  0.15605459507758465  0.5275876704849197  0.5596855578996908  1.0000
  O   O12       1.0  0.6560612760103762  0.97241470232575  0.4403143961196818  1.0000
  O   O13       1.0  0.3513091927219205  0.1268760201188002  0.23834744297340646  1.0000
  O   O14       1.0  0.851310757919286  0.3731229639240752  0.761646066604129  1.0000
  O   O15       1.0  0.6486931431556324  0.8731246511383831  0.7616483256334944  1.0000
  O   O16       1.0  0.14869157794809235  0.6268743024262734  0.2383497078382675  1.0000
