data_image0
_chemical_formula_structural       Zn4H20C32N4O16
_chemical_formula_sum              "Zn4 H20 C32 N4 O16"
_cell_length_a       8.525194743440293
_cell_length_b       8.525224250586108
_cell_length_c       14.922563580306088
_cell_angle_alpha    96.69998434362975
_cell_angle_beta     96.70014317077253
_cell_angle_gamma    116.81751035132129

_space_group_name_H-M_alt    "P 1"
_space_group_IT_number       1

loop_
  _space_group_symop_operation_xyz
  'x, y, z'

loop_
  _atom_site_type_symbol
  _atom_site_label
  _atom_site_symmetry_multiplicity
  _atom_site_fract_x
  _atom_site_fract_y
  _atom_site_fract_z
  _atom_site_occupancy
  Zn  Zn1       1.0  0.5704706479300938  0.9168774236984731  0.9341295550783928  1.0000
  Zn  Zn2       1.0  0.08312420042859259  0.4295291460917099  0.5658705404805887  1.0000
  Zn  Zn3       1.0  0.42953060187710435  0.0831240549290868  0.06587102078212582  1.0000
  Zn  Zn4       1.0  0.9168739591111646  0.5704683122718422  0.4341289048543119  1.0000
  H   H1        1.0  0.28595452857747733  0.9868760571130297  0.6764061157683798  1.0000
  H   H2        1.0  0.013122827268922764  0.7140443871824401  0.823594844012341  1.0000
  H   H3        1.0  0.7140460941770215  0.013124090042701705  0.3235950034242877  1.0000
  H   H4        1.0  0.9868777804704508  0.28595574496011983  0.17640493295515114  1.0000
  H   H5        1.0  0.1774390188850035  0.12430405503356212  0.5596842581200222  1.0000
  H   H6        1.0  0.8756949362380269  0.8225624014842481  0.9403153746437101  1.0000
  H   H7        1.0  0.8225609542941044  0.8756947381305764  0.4403153910670383  1.0000
  H   H8        1.0  0.12430811219340399  0.1774403969307201  0.059684062843800206  1.0000
  H   H9        1.0  0.19587810276616582  0.5102200951419178  0.7643956882144565  1.0000
  H   H10       1.0  0.4897799215953429  0.8041221587285889  0.7356043554080358  1.0000
  H   H11       1.0  0.804119519762331  0.48977871388448335  0.23560447994174896  1.0000
  H   H12       1.0  0.5102225072909478  0.1958793157211361  0.2643962965242039  1.0000
  H   H13       1.0  0.3030386511816801  0.3879781466510295  0.8877692152205939  1.0000
  H   H14       1.0  0.6120219302619249  0.6969592637578758  0.6122308368348612  1.0000
  H   H15       1.0  0.6969620465991399  0.6120246676262084  0.11223074123606845  1.0000
  H   H16       1.0  0.3879768713456571  0.3030395410906834  0.3877694073930656  1.0000
  H   H17       1.0  0.96242470422483  0.5913539694446187  0.08399720018476842  1.0000
  H   H18       1.0  0.4086454078817782  0.037574359165432704  0.4160028402063531  1.0000
  H   H19       1.0  0.03757362789024653  0.4086488456816967  0.9160019330158776  1.0000
  H   H20       1.0  0.5913528492069774  0.9624257888393829  0.583997455730291  1.0000
  C   C1        1.0  0.36373070931485785  0.09971954909995158  0.8650121653393867  1.0000
  C   C2        1.0  0.9002801488998173  0.6362670339006797  0.6349894293532331  1.0000
  C   C3        1.0  0.6362687268529896  0.9002805947270359  0.1349882066689787  1.0000
  C   C4        1.0  0.09971983178685659  0.3637317667700443  0.365010890946408  1.0000
  C   C5        1.0  0.30021533350629437  0.1758747524882835  0.7911949546933458  1.0000
  C   C6        1.0  0.8241280676929604  0.6997884862405569  0.7088051299008313  1.0000
  C   C7        1.0  0.6997859163009111  0.8241267261392835  0.20880562116717272  1.0000
  C   C8        1.0  0.17587380916694434  0.30021432385883884  0.2911949026275451  1.0000
  C   C9        1.0  0.2665681735591576  0.10234005447860992  0.6978326118351463  1.0000
  C   C10       1.0  0.8976591728025556  0.7334306041299571  0.8021689512994784  1.0000
  C   C11       1.0  0.7334300009957248  0.8976574188981203  0.30216817572492266  1.0000
  C   C12       1.0  0.1023419794556446  0.26656818485633943  0.19783077395929646  1.0000
  C   C13       1.0  0.2067628198291374  0.17806081491021078  0.6331624692615351  1.0000
  C   C14       1.0  0.8219371111325843  0.7932354938870391  0.8668375468616176  1.0000
  C   C15       1.0  0.7932365262972709  0.821936646782099  0.36683772325766745  1.0000
  C   C16       1.0  0.17806413116705502  0.2067659772339354  0.1331623578863201  1.0000
  C   C17       1.0  0.2172026167061603  0.3943939735681354  0.7476579950651185  1.0000
  C   C18       1.0  0.605606252551894  0.7827966606920924  0.7523420919435894  1.0000
  C   C19       1.0  0.7827986331010451  0.6056075050594245  0.2523425807953998  1.0000
  C   C20       1.0  0.3943943626950458  0.21720347895705325  0.2476583561364905  1.0000
  C   C21       1.0  0.27560022128638206  0.3251529874049623  0.8160581662700466  1.0000
  C   C22       1.0  0.6748447392617721  0.72439820621954  0.683943131217312  1.0000
  C   C23       1.0  0.7243992148814656  0.6748471564220184  0.18394220573831185  1.0000
  C   C24       1.0  0.3251558759851676  0.2756019334296056  0.3160573168627679  1.0000
  C   C25       1.0  0.7859358661759756  0.3058548347655119  0.022058896409191706  1.0000
  C   C26       1.0  0.6941437412659894  0.21406259502425937  0.4779391170416005  1.0000
  C   C27       1.0  0.21406300295036834  0.6941466296979614  0.9779395139701421  1.0000
  C   C28       1.0  0.305854515822766  0.7859375529805632  0.5220611788950507  1.0000
  C   C29       1.0  0.9434819015135006  0.48399887305330946  0.029466206387688515  1.0000
  C   C30       1.0  0.516000803276704  0.056517688807858214  0.4705332776429573  1.0000
  C   C31       1.0  0.05651814669192854  0.5160025872323288  0.9705322800633667  1.0000
  C   C32       1.0  0.483998005838437  0.9434811235472935  0.5294676376975502  1.0000
  N   N1        1.0  0.18237025387711728  0.3217090188257076  0.6577847973977667  1.0000
  N   N2        1.0  0.6782896780059531  0.81762952329359  0.8422159189107461  1.0000
  N   N3        1.0  0.8176297268095495  0.6782897818450165  0.34221552290188123  1.0000
  N   N4        1.0  0.32171093724097943  0.18237061635555565  0.15778452916933364  1.0000
  O   O1        1.0  0.43696868560716234  0.0049176938456910015  0.8411308035629261  1.0000
  O   O2        1.0  0.99508288878031  0.5630306694393997  0.6588697271013617  1.0000
  O   O3        1.0  0.5630331087188624  0.9950824416256125  0.15886972058887494  1.0000
  O   O4        1.0  0.004918263477890214  0.4369681195468971  0.3411299981574132  1.0000
  O   O5        1.0  0.3388810150266437  0.1397217642812763  0.9450315998392753  1.0000
  O   O6        1.0  0.8602747352702522  0.6611135891344021  0.5549695402856615  1.0000
  O   O7        1.0  0.6611190557014697  0.860279718524126  0.054968899949528846  1.0000
  O   O8        1.0  0.13972162564527227  0.33888254944174895  0.44503104342225447  1.0000
  O   O9        1.0  0.7758652595248421  0.17396963894405815  0.9675699349573038  1.0000
  O   O10       1.0  0.8260284766572711  0.22413688509224977  0.5324300622943454  1.0000
  O   O11       1.0  0.22413590024091692  0.826029157548831  0.032430461414051585  1.0000
  O   O12       1.0  0.17396796679213364  0.7758619281119862  0.46757002979014584  1.0000
  O   O13       1.0  0.6725514504241589  0.30204836054296186  0.07178955631248841  1.0000
  O   O14       1.0  0.6979510010368771  0.3274466133712437  0.42820840753011424  1.0000
  O   O15       1.0  0.3274474187021852  0.6979531039205041  0.9282088540668455  1.0000
  O   O16       1.0  0.30204779306313884  0.6725521839707299  0.5717911655852319  1.0000
