data_image0
_chemical_formula_structural       Na2Sm2H24C24O24
_chemical_formula_sum              "Na2 Sm2 H24 C24 O24"
_cell_length_a       6.883483673951269
_cell_length_b       7.568050173055268
_cell_length_c       15.702607797330241
_cell_angle_alpha    89.99973715019672
_cell_angle_beta     102.64338181591499
_cell_angle_gamma    90.0003957043629

_space_group_name_H-M_alt    "P 1"
_space_group_IT_number       1

loop_
  _space_group_symop_operation_xyz
  'x, y, z'

loop_
  _atom_site_type_symbol
  _atom_site_label
  _atom_site_symmetry_multiplicity
  _atom_site_fract_x
  _atom_site_fract_y
  _atom_site_fract_z
  _atom_site_occupancy
  Na  Na1       1.0  0.6393697791003206  0.7499336232294951  0.2780177713605241  1.0000
  Na  Na2       1.0  0.36063244013356416  0.24993530760779956  0.7219836967018055  1.0000
  Sm  Sm1       1.0  0.8050838623375187  0.24999403856719482  0.6104709337436136  1.0000
  Sm  Sm2       1.0  0.19491241682512592  0.7499924919093318  0.38952741050843553  1.0000
  H   H1        1.0  0.3624847896144345  0.7413052166411945  0.09906567597680291  1.0000
  H   H2        1.0  0.6375159042724263  0.2413096002683162  0.9009318424988779  1.0000
  H   H3        1.0  0.7377968633122052  0.7587560632016449  0.09924015807537502  1.0000
  H   H4        1.0  0.2622069199083938  0.25875149278627413  0.9007588945003493  1.0000
  H   H5        1.0  0.2811576501580078  0.7370515973473248  0.9362966119620709  1.0000
  H   H6        1.0  0.7188444923502428  0.23705772626242794  0.06370296716266921  1.0000
  H   H7        1.0  0.6561838787710245  0.7630621115424531  0.9364458982885113  1.0000
  H   H8        1.0  0.34381992639428915  0.2630619306559153  0.06355442038598372  1.0000
  H   H9        1.0  0.5683815397714582  0.7308610279815966  0.5792068647479598  1.0000
  H   H10       1.0  0.4316205418047829  0.2308646567816552  0.42079590661205674  1.0000
  H   H11       1.0  0.0106376282395146  0.7691095578858838  0.5791389289850031  1.0000
  H   H12       1.0  0.9893602777203017  0.2691047847042327  0.42085825635452784  1.0000
  H   H13       1.0  0.7391682605753259  0.8771562853052901  0.6976125359698673  1.0000
  H   H14       1.0  0.26083036805300003  0.37715731172259853  0.3023870233625204  1.0000
  H   H15       1.0  0.9584200644114419  0.6228259411564495  0.6975441328601237  1.0000
  H   H16       1.0  0.0415842797447041  0.12282427338047339  0.3024552804395314  1.0000
  H   H17       1.0  0.48372976183370037  0.4122560446774203  0.19820386712948593  1.0000
  H   H18       1.0  0.5162691026728936  0.9122579326122633  0.801796272832924  1.0000
  H   H19       1.0  0.7148088716547536  0.08776896111348981  0.19824756107576755  1.0000
  H   H20       1.0  0.28519075170449065  0.5877680818588901  0.8017540205508384  1.0000
  H   H21       1.0  0.716583810454246  0.40140980748985555  0.2089775692591332  1.0000
  H   H22       1.0  0.28341647258963587  0.9014103389984314  0.7910220959371443  1.0000
  H   H23       1.0  0.49260858364633725  0.09819626510892482  0.20890610355245806  1.0000
  H   H24       1.0  0.5073925922807732  0.598195555035808  0.7910968788894053  1.0000
  C   C1        1.0  0.2083750602781507  0.7447311499191616  0.0628233572332988  1.0000
  C   C2        1.0  0.7916301160716088  0.24473219453193448  0.9371758621049652  1.0000
  C   C3        1.0  0.8555783734153695  0.755368675145334  0.06291046522444796  1.0000
  C   C4        1.0  0.1444253829493789  0.25536434858508267  0.9370892292173709  1.0000
  C   C5        1.0  0.6367205991284665  0.9128174008581666  0.4849630973820639  1.0000
  C   C6        1.0  0.36326634350075443  0.41282764711323244  0.5150384319679234  1.0000
  C   C7        1.0  0.8481660268840514  0.5871436891005288  0.48491432183235633  1.0000
  C   C8        1.0  0.15181271478289912  0.08716714627361448  0.5150909667261345  1.0000
  C   C9        1.0  0.6955749865037716  0.8120884635857591  0.570863543964805  1.0000
  C   C10       1.0  0.3044231904577828  0.3120846114390758  0.4291373918521374  1.0000
  C   C11       1.0  0.8751459586896715  0.6878681261880218  0.5708272197427179  1.0000
  C   C12       1.0  0.12485585923752751  0.1878657925388509  0.4291705282126871  1.0000
  C   C13       1.0  0.9634800433693587  0.750072985933734  0.9260646423164406  1.0000
  C   C14       1.0  0.03652516571159481  0.2500734272246703  0.0739352049998274  1.0000
  C   C15       1.0  0.16258349487912938  0.7429350045885598  0.972141183632637  1.0000
  C   C16       1.0  0.8374216617558262  0.24293956872269723  0.02785931151409222  1.0000
  C   C17       1.0  0.8105599408644225  0.7571969796379888  0.9722338835953723  1.0000
  C   C18       1.0  0.18944532057683014  0.2571961678257538  0.0277653159104077  1.0000
  C   C19       1.0  0.9145075982498128  0.7501168938263021  0.8285429670737019  1.0000
  C   C20       1.0  0.0854946371687788  0.2501193707399096  0.17145595478945105  1.0000
  C   C21       1.0  0.05485100122808011  0.7500462232614069  0.10859074684441343  1.0000
  C   C22       1.0  0.9451557002470636  0.2500446934431437  0.891408608491709  1.0000
  C   C23       1.0  0.10326667312583741  0.7500036376489236  0.20554065237899982  1.0000
  C   C24       1.0  0.8967415243679753  0.25000007034142163  0.7944575745254739  1.0000
  O   O1        1.0  0.6971204741043311  0.06987392771507221  0.4829375977526099  1.0000
  O   O2        1.0  0.3028566980465541  0.569867897963448  0.5170612090868546  1.0000
  O   O3        1.0  0.7856741424158072  0.4301202311647786  0.48288318970896443  1.0000
  O   O4        1.0  0.21432038858938543  0.9300938265690563  0.5171145790653071  1.0000
  O   O5        1.0  0.7439694156578868  0.9380401516936985  0.6400113181456037  1.0000
  O   O6        1.0  0.2560340914203821  0.4380432511646006  0.35998921414896773  1.0000
  O   O7        1.0  0.8958952111631433  0.5619345055186286  0.6399735208590229  1.0000
  O   O8        1.0  0.10410575081429128  0.06193268975479779  0.3600237909879382  1.0000
  O   O9        1.0  0.7363944225599114  0.7867626893566919  0.7879917977765772  1.0000
  O   O10       1.0  0.2636065704396344  0.2867659011423029  0.21200755780440522  1.0000
  O   O11       1.0  0.051862624328642  0.7134616154369694  0.7878054030859758  1.0000
  O   O12       1.0  0.9481378682741166  0.21346250301791514  0.21219406912370434  1.0000
  O   O13       1.0  0.6044599458419597  0.48361164604511236  0.20068574766160915  1.0000
  O   O14       1.0  0.3955423872047419  0.9836128016312172  0.7993139311980642  1.0000
  O   O15       1.0  0.596667352727728  0.016192680399065303  0.20066512737265194  1.0000
  O   O16       1.0  0.4033347410576766  0.5161925631925824  0.7993400394245144  1.0000
  O   O17       1.0  0.5308770381790922  0.8328813312978198  0.4194691927366493  1.0000
  O   O18       1.0  0.4691153066787592  0.33288369840164483  0.5805343145664281  1.0000
  O   O19       1.0  0.8887528266908548  0.6670339208904252  0.4194296308086082  1.0000
  O   O20       1.0  0.111242919705262  0.16702215575608653  0.580563117155954  1.0000
  O   O21       1.0  0.28530292934900814  0.7531778797028964  0.24751873128178667  1.0000
  O   O22       1.0  0.7147022971920337  0.2531775303442529  0.75248174757175  1.0000
  O   O23       1.0  0.963020417213514  0.7468349053449544  0.2474783965275834  1.0000
  O   O24       1.0  0.03697881433298281  0.2468276712902266  0.7525208781370054  1.0000
