data_image0
_chemical_formula_structural       V6H24C48O30
_chemical_formula_sum              "V6 H24 C48 O30"
_cell_length_a       6.8385317632417815
_cell_length_b       21.136460358485827
_cell_length_c       21.1095958737678
_cell_angle_alpha    119.6556046066356
_cell_angle_beta     89.98673608365523
_cell_angle_gamma    90.00300743928632

_space_group_name_H-M_alt    "P 1"
_space_group_IT_number       1

loop_
  _space_group_symop_operation_xyz
  'x, y, z'

loop_
  _atom_site_type_symbol
  _atom_site_label
  _atom_site_symmetry_multiplicity
  _atom_site_fract_x
  _atom_site_fract_y
  _atom_site_fract_z
  _atom_site_occupancy
  V   V1        1.0  0.5366085494727315  0.9965413482899028  0.0041715530509165944  1.0000
  V   V2        1.0  0.0366701070103304  0.0035021362815471015  0.9958540212409301  1.0000
  V   V3        1.0  0.4583380643825805  0.49995318632279145  0.007752207732202884  1.0000
  V   V4        1.0  0.958319008338556  0.5000593859914062  0.9922476897867223  1.0000
  V   V5        1.0  0.036793080164535794  0.9924230742459063  0.5002622124590913  1.0000
  V   V6        1.0  0.5367531790178218  0.0075321539017494  0.499739337080811  1.0000
  H   H1        1.0  0.5600530555905578  0.32604140307524443  0.7946838265480023  1.0000
  H   H2        1.0  0.932043151109056  0.3233431474164307  0.7915855300509163  1.0000
  H   H3        1.0  0.0647975032036783  0.7920862424103845  0.3239338308180562  1.0000
  H   H4        1.0  0.5651117617966718  0.20788698462413183  0.6759888178310829  1.0000
  H   H5        1.0  0.43168148215814733  0.6766732157385748  0.20848313732273732  1.0000
  H   H6        1.0  0.059707829785615694  0.673919410995474  0.20524250098262795  1.0000
  H   H7        1.0  0.9369538882291548  0.20454146942166324  0.6735173509198302  1.0000
  H   H8        1.0  0.4366427446610216  0.795474740757669  0.3265584498036558  1.0000
  H   H9        1.0  0.9322376106381044  0.6764656324918621  0.966318177468501  1.0000
  H   H10       1.0  0.5602739964844686  0.6741417360926363  0.96782398595856  1.0000
  H   H11       1.0  0.4346179018557875  0.969133598274631  0.6760638525015208  1.0000
  H   H12       1.0  0.9347556017116074  0.030829815065430907  0.3240014708279445  1.0000
  H   H13       1.0  0.060045472380714685  0.3258952224586268  0.03216436512460058  1.0000
  H   H14       1.0  0.4320032591267591  0.32349985323423175  0.033616201574254455  1.0000
  H   H15       1.0  0.5629517466931587  0.03459029372047701  0.32586317757383637  1.0000
  H   H16       1.0  0.06281334786699229  0.9654199910001895  0.6740846961103554  1.0000
  H   H17       1.0  0.9373096420400912  0.7933849506033113  0.9621587373990361  1.0000
  H   H18       1.0  0.5655114385545232  0.7907485650181416  0.9631158770830336  1.0000
  H   H19       1.0  0.43480535231888945  0.9645386483296652  0.7929806988034753  1.0000
  H   H20       1.0  0.9348401365556993  0.035451435613197205  0.20709883141440594  1.0000
  H   H21       1.0  0.06527226762722188  0.20927192909100972  0.03686104773994707  1.0000
  H   H22       1.0  0.4370752203531794  0.20657278843125945  0.03776761736291691  1.0000
  H   H23       1.0  0.5630508636906696  0.038678741176376305  0.20895344081159803  1.0000
  H   H24       1.0  0.06302423505031379  0.9613701923467916  0.791014124228553  1.0000
  C   C1        1.0  0.24566820363416747  0.3308038510560891  0.800183133815032  1.0000
  C   C2        1.0  0.7510437430570178  0.8008695498829682  0.3313918971727573  1.0000
  C   C3        1.0  0.2513460395187863  0.19912080946572533  0.6686034767254652  1.0000
  C   C4        1.0  0.7453200023754504  0.6691833433860668  0.19982909415619324  1.0000
  C   C5        1.0  0.4248561459944113  0.2990922098494125  0.7673954445439006  1.0000
  C   C6        1.0  0.0694674976797884  0.297474079162683  0.7656107681091624  1.0000
  C   C7        1.0  0.9272704663522687  0.7662012077245564  0.29809016078067413  1.0000
  C   C8        1.0  0.42759558037374745  0.23377581744379947  0.7018569430667367  1.0000
  C   C9        1.0  0.5691365742799094  0.702524853475147  0.2344351945268598  1.0000
  C   C10       1.0  0.924520413062602  0.7008870277464325  0.23256670371389274  1.0000
  C   C11       1.0  0.07218194582945608  0.23188917290642766  0.7003669142027815  1.0000
  C   C12       1.0  0.5718560419255994  0.7681162309698593  0.2996782746738942  1.0000
  C   C13       1.0  0.24130216184649808  0.6031070597615412  0.9757923965055181  1.0000
  C   C14       1.0  0.7524774852831725  0.9758425946165377  0.6027311888550099  1.0000
  C   C15       1.0  0.2526628854457442  0.024121012619083608  0.3972645096072041  1.0000
  C   C16       1.0  0.7411301190178604  0.39691080047749255  0.02421267104980985  1.0000
  C   C17       1.0  0.24128846155574726  0.39758562111516943  0.8731373306889406  1.0000
  C   C18       1.0  0.7551978231454015  0.8737047257024958  0.3980229297512634  1.0000
  C   C19       1.0  0.2553179733486957  0.12627735617014219  0.6019689686209444  1.0000
  C   C20       1.0  0.7410429143373848  0.6024044056523084  0.1268785258530726  1.0000
  C   C21       1.0  0.06969676413316249  0.7018912154504447  0.9651254616889768  1.0000
  C   C22       1.0  0.4251849191140806  0.7005198236309342  0.9660324098080363  1.0000
  C   C23       1.0  0.5710180198479405  0.966850609082478  0.7015293278434382  1.0000
  C   C24       1.0  0.0711277473902996  0.03312756684505299  0.2985137542888267  1.0000
  C   C25       1.0  0.9249622712200177  0.2995029750555532  0.033945224515470294  1.0000
  C   C26       1.0  0.5694337730849098  0.29808402374184345  0.03481300145324438  1.0000
  C   C27       1.0  0.4266790133651455  0.03532614255401971  0.2995848274921825  1.0000
  C   C28       1.0  0.9265419340319453  0.9646862457803285  0.7003965127358994  1.0000
  C   C29       1.0  0.24580694926623176  0.6691780989825276  0.967869782771842  1.0000
  C   C30       1.0  0.7488706008791722  0.9679601203922631  0.6688162516259762  1.0000
  C   C31       1.0  0.2490065129342368  0.0320253634652019  0.3311896561166775  1.0000
  C   C32       1.0  0.745589254047985  0.3308239183803537  0.03210385407173528  1.0000
  C   C33       1.0  0.2557379675959339  0.8710756840374287  0.9673833690129423  1.0000
  C   C34       1.0  0.7528840065171493  0.9675431518640072  0.8710636205627793  1.0000
  C   C35       1.0  0.25289245954660794  0.032484144761284  0.12896374196167668  1.0000
  C   C36       1.0  0.7557604918880259  0.12895429822315665  0.0326309036395003  1.0000
  C   C37       1.0  0.2517577806912498  0.79862675543432  0.9625939009112366  1.0000
  C   C38       1.0  0.7490680565721347  0.9628532423197883  0.7985459495845286  1.0000
  C   C39       1.0  0.24910882496186554  0.0371621703571918  0.20147862741025335  1.0000
  C   C40       1.0  0.7515298675084098  0.20137894214237662  0.037371173115268184  1.0000
  C   C41       1.0  0.0724096246628676  0.7663224038456846  0.9626221243452943  1.0000
  C   C42       1.0  0.4280133726841768  0.7648251671929459  0.9633011273664702  1.0000
  C   C43       1.0  0.5710751891600836  0.9641697811492521  0.7660373282264384  1.0000
  C   C44       1.0  0.07112760691610019  0.0358252765462197  0.23401225621456928  1.0000
  C   C45       1.0  0.9278177883552414  0.23519484680523559  0.03667017120766756  1.0000
  C   C46       1.0  0.5722016223822095  0.2336467775138119  0.037311698189668605  1.0000
  C   C47       1.0  0.42668906998913764  0.037747312567219596  0.23512954318260162  1.0000
  C   C48       1.0  0.9266561708076039  0.9622835806176797  0.7648624204158307  1.0000
  O   O1        1.0  0.40499250463803793  0.4223193638778684  0.9052694489618457  1.0000
  O   O2        1.0  0.0734793065159849  0.4243592087913514  0.8989863353517789  1.0000
  O   O3        1.0  0.9228272706905399  0.8999664310372779  0.424770029705314  1.0000
  O   O4        1.0  0.4229169298087428  0.09997417286123783  0.575182981082463  1.0000
  O   O5        1.0  0.5732610327755552  0.5756468376220739  0.1010112262316766  1.0000
  O   O6        1.0  0.9048126721591458  0.5776645897482027  0.09475621771131411  1.0000
  O   O7        1.0  0.09159173781913668  0.09405214426060131  0.5770401654847885  1.0000
  O   O8        1.0  0.5914984966494573  0.9059800076818623  0.4229998137934956  1.0000
  O   O9        1.0  0.42353191679459457  0.8997357011232836  0.9721787211660665  1.0000
  O   O10       1.0  0.09191522703304858  0.9012005777570878  0.9689298435834741  1.0000
  O   O11       1.0  0.9209278589165635  0.9714975901202155  0.8993096127365514  1.0000
  O   O12       1.0  0.42100555210844687  0.028777905397099304  0.10080353020828167  1.0000
  O   O13       1.0  0.5919047892420722  0.0986933614166361  0.030818220259014574  1.0000
  O   O14       1.0  0.923557483966313  0.1004529503847849  0.02816056675757747  1.0000
  O   O15       1.0  0.08929204156184059  0.030050208095836712  0.09837549083360389  1.0000
  O   O16       1.0  0.5892372860891296  0.9697347567870697  0.9015696238559839  1.0000
  O   O17       1.0  0.40497576033021687  0.5785128240535471  0.9836595604172583  1.0000
  O   O18       1.0  0.07335178312143852  0.5765808720322454  0.9754747041155478  1.0000
  O   O19       1.0  0.9203621775614221  0.9760804124423856  0.5762571263637424  1.0000
  O   O20       1.0  0.42051547661341704  0.0238825592708025  0.4237138277647289  1.0000
  O   O21       1.0  0.5732540141023108  0.42346323420984083  0.024560273796453185  1.0000
  O   O22       1.0  0.90489084568933  0.42148157912433964  0.01633340543478569  1.0000
  O   O23       1.0  0.08911969156935129  0.016565900223220402  0.4222858864991394  1.0000
  O   O24       1.0  0.588962165970095  0.983375939794726  0.5777107680422728  1.0000
  O   O25       1.0  0.7595906395010202  0.9794068654918963  0.020699323569978473  1.0000
  O   O26       1.0  0.25967556757412064  0.02065786836297431  0.9793276846778194  1.0000
  O   O27       1.0  0.7329749654727137  0.5003286242510897  0.9646244385164304  1.0000
  O   O28       1.0  0.2611313218267668  0.964306205838284  0.5003307429328456  1.0000
  O   O29       1.0  0.7611018914247721  0.035645667314739206  0.4996845312270678  1.0000
  O   O30       1.0  0.23294939319199412  0.4996769849260687  0.03535715112264617  1.0000
