data_image0
_chemical_formula_structural       Cd2H30C42S6N10O12
_chemical_formula_sum              "Cd2 H30 C42 S6 N10 O12"
_cell_length_a       8.635544636584543
_cell_length_b       11.845399838463294
_cell_length_c       12.15808579414803
_cell_angle_alpha    85.11086797593619
_cell_angle_beta     71.09332282700476
_cell_angle_gamma    90.50361935536304

_space_group_name_H-M_alt    "P 1"
_space_group_IT_number       1

loop_
  _space_group_symop_operation_xyz
  'x, y, z'

loop_
  _atom_site_type_symbol
  _atom_site_label
  _atom_site_symmetry_multiplicity
  _atom_site_fract_x
  _atom_site_fract_y
  _atom_site_fract_z
  _atom_site_occupancy
  Cd  Cd1       1.0  0.8361529795919297  0.36044813144729904  0.07060799286636407  1.0000
  Cd  Cd2       1.0  0.1638444692808392  0.6395427863506667  0.9293901143690064  1.0000
  H   H1        1.0  0.8877247146048504  0.5413943236063048  0.248512274245698  1.0000
  H   H2        1.0  0.11227576691910461  0.4586093045673749  0.7514822969377876  1.0000
  H   H3        1.0  0.8021910353246328  0.5637551920421586  0.4650435450383696  1.0000
  H   H4        1.0  0.19782398859222644  0.4362468764628743  0.534950508436488  1.0000
  H   H5        1.0  0.5958903441411818  0.42389520006191367  0.6032113367030619  1.0000
  H   H6        1.0  0.4041306574060571  0.5761078403153731  0.39678709185938754  1.0000
  H   H7        1.0  0.4157300227041745  0.24843895895946838  0.6329129855218698  1.0000
  H   H8        1.0  0.584286081076563  0.7515683689332348  0.3670918421505435  1.0000
  H   H9        1.0  0.3301549001198865  0.08339497616321977  0.549652406523073  1.0000
  H   H10       1.0  0.6698633821098953  0.9166090359467347  0.4503563874360736  1.0000
  H   H11       1.0  0.3577755193571619  0.9745071299560665  0.3811798144491618  1.0000
  H   H12       1.0  0.6422291036573426  0.025493422038564997  0.618833908704069  1.0000
  H   H13       1.0  0.47983203749289066  0.9597065687681765  0.16391591401850295  1.0000
  H   H14       1.0  0.5201581452994901  0.04029549598750749  0.8360950183007247  1.0000
  H   H15       1.0  0.6558586154047674  0.12462056869660638  0.039383558942113046  1.0000
  H   H16       1.0  0.34413276708239954  0.8753771950816682  0.9606225962445836  1.0000
  H   H17       1.0  0.46208955690118353  0.41123026767491677  0.0945154747353953  1.0000
  H   H18       1.0  0.5379012444488325  0.5887697848495392  0.9054733051724996  1.0000
  H   H19       1.0  0.35479609873102896  0.2755894702440854  0.11985386820186512  1.0000
  H   H20       1.0  0.6452088884753168  0.7244048656877167  0.8801406345756961  1.0000
  H   H21       1.0  0.039158588011851195  0.2884733784442446  0.6696269539781671  1.0000
  H   H22       1.0  0.9608592031464839  0.7115127125450301  0.3303754612648433  1.0000
  H   H23       1.0  0.8960722468758036  0.39406522000997757  0.6641868419231899  1.0000
  H   H24       1.0  0.1039552955515575  0.6059261422334431  0.33582118434394204  1.0000
  H   H25       1.0  0.2246936991889896  0.018123376757031903  0.16716855626552268  1.0000
  H   H26       1.0  0.7753034263231201  0.9818809450343126  0.8328176211417431  1.0000
  H   H27       1.0  0.11158547382023437  0.9304814306481645  0.10562109103847211  1.0000
  H   H28       1.0  0.8884038934788947  0.069520438080815  0.8943768720574642  1.0000
  H   H29       1.0  0.24961879739036172  0.20857329290962667  0.9343720469756394  1.0000
  H   H30       1.0  0.7503432090871839  0.7914349305861846  0.06561474618811759  1.0000
  C   C1        1.0  0.8014963537082948  0.4809584420308468  0.3128916705714105  1.0000
  C   C2        1.0  0.19850070965243558  0.5190493647855446  0.6871007634181866  1.0000
  C   C3        1.0  0.7519658386061961  0.4933074373230608  0.43334045856700243  1.0000
  C   C4        1.0  0.24804202799519007  0.5066996793458571  0.5666554709726341  1.0000
  C   C5        1.0  0.6390644826624409  0.4156058680524096  0.5095345064400121  1.0000
  C   C6        1.0  0.3609445770395895  0.5844029995253236  0.4904642864435332  1.0000
  C   C7        1.0  0.5788499854089579  0.3239652474096885  0.4660081106022248  1.0000
  C   C8        1.0  0.42115176478258576  0.6760444175927204  0.533992181839132  1.0000
  C   C9        1.0  0.4631704997394196  0.23958146931914115  0.5394330896438577  1.0000
  C   C10       1.0  0.536837156987424  0.7604274719505993  0.46057175813655976  1.0000
  C   C11       1.0  0.41647630879523934  0.14876581191657579  0.4940183791330811  1.0000
  C   C12       1.0  0.5835299915699467  0.8512405892763866  0.5059878311074686  1.0000
  C   C13       1.0  0.4811457441377128  0.13560507899399707  0.3718910879667874  1.0000
  C   C14       1.0  0.5188556850648138  0.8644012768868733  0.6281153549271253  1.0000
  C   C15       1.0  0.440893755999987  0.0403243858715854  0.32316261303565613  1.0000
  C   C16       1.0  0.5591062812933387  0.9596785821300455  0.6768452824441199  1.0000
  C   C17       1.0  0.5064010797376071  0.03302586188975451  0.204198281642384  1.0000
  C   C18       1.0  0.4935902005787867  0.9669719487961215  0.7958111820869506  1.0000
  C   C19       1.0  0.6083053371928384  0.12281631044677968  0.13419131368269188  1.0000
  C   C20       1.0  0.39168488668008183  0.8771848713257383  0.8658172273552935  1.0000
  C   C21       1.0  0.5906084982437747  0.22007784257370128  0.2953048455708825  1.0000
  C   C22       1.0  0.40938342298952085  0.7799309074558708  0.7046976565742611  1.0000
  C   C23       1.0  0.6405378740668508  0.3159572233654302  0.34358938217060603  1.0000
  C   C24       1.0  0.3594542559798414  0.6840540231639166  0.6564095410546926  1.0000
  C   C25       1.0  0.9777533168767362  0.11747066340524272  0.3412795168608724  1.0000
  C   C26       1.0  0.0222444463909142  0.8825296154005002  0.6587200803983748  1.0000
  C   C27       1.0  0.9167556800854869  0.20619909854286783  0.5061529970376385  1.0000
  C   C28       1.0  0.08324086347767688  0.793803762181561  0.4938499033342936  1.0000
  C   C29       1.0  0.12157134296981555  0.27572330862547995  0.3442466190440144  1.0000
  C   C30       1.0  0.878426465850225  0.7242786775120819  0.6557536250994149  1.0000
  C   C31       1.0  0.34154654407139157  0.3668432384134022  0.12771335279798995  1.0000
  C   C32       1.0  0.6584411269285084  0.6331467409579189  0.8722853098698451  1.0000
  C   C33       1.0  0.2298024131672562  0.4131778712740937  0.060054586425863504  1.0000
  C   C34       1.0  0.7701774095760356  0.5868019192706128  0.9399492288413288  1.0000
  C   C35       1.0  0.9090917030426837  0.3078591122327481  0.700671646769145  1.0000
  C   C36       1.0  0.09093128473918448  0.6921329235051343  0.29932742353336295  1.0000
  C   C37       1.0  0.11332397594686941  0.011454973242017299  0.14353698763284944  1.0000
  C   C38       1.0  0.8866728796616029  0.9885460159739878  0.8564536859556572  1.0000
  C   C39       1.0  0.10907506059869118  0.10566125314522877  0.052887353147710314  1.0000
  C   C40       1.0  0.8908857572500608  0.8943478097567522  0.9470996148375692  1.0000
  C   C41       1.0  0.843736306228486  0.3019385413529108  0.8339601349203819  1.0000
  C   C42       1.0  0.1562975003318741  0.6980519329812365  0.16604086678658805  1.0000
  S   S1        1.0  0.795357840723419  0.20627777380262557  0.6519330376369297  1.0000
  S   S2        1.0  0.2046483585321326  0.7937243531973264  0.34807114182531523  1.0000
  S   S3        1.0  0.26289110510422375  0.3881086939773439  0.28110788573582823  1.0000
  S   S4        1.0  0.7371151518308564  0.6118873576825762  0.7188869989786684  1.0000
  S   S5        1.0  0.9365458421064189  0.0022532334978250966  0.27267737664395497  1.0000
  S   S6        1.0  0.0634520533465448  0.997749576988397  0.7273211231024206  1.0000
  N   N1        1.0  0.7470377644061443  0.3948731985931174  0.2701015455594274  1.0000
  N   N2        1.0  0.2529507897493133  0.6051397066253656  0.7298971651205053  1.0000
  N   N3        1.0  0.6497020068866562  0.21302981474278224  0.178488217350079  1.0000
  N   N4        1.0  0.3502896655138413  0.7869730006695617  0.8215149156752234  1.0000
  N   N5        1.0  0.037699436636017894  0.28511821318083  0.457714976126546  1.0000
  N   N6        1.0  0.9622949340110979  0.714886232540728  0.5422816568031478  1.0000
  N   N7        1.0  0.8757248844792898  0.1225580302219669  0.450626280525839  1.0000
  N   N8        1.0  0.12427280216027009  0.8774422837644806  0.5493757981403817  1.0000
  N   N9        1.0  0.10278201032846111  0.19055013456743816  0.28309425244265907  1.0000
  N   N10       1.0  0.8972169971252201  0.8094518716933266  0.7169065538891745  1.0000
  O   O1        1.0  0.0821641138311406  0.37726707646588414  0.09909615282787601  1.0000
  O   O2        1.0  0.9178118088484624  0.6227240269482337  0.9009296183093198  1.0000
  O   O3        1.0  0.2964491151457693  0.4819779041885113  0.9703295690439832  1.0000
  O   O4        1.0  0.7035196987269003  0.5179871167020664  0.029658311630214484  1.0000
  O   O5        1.0  0.9859052261779199  0.13793108569296214  0.03330015212649325  1.0000
  O   O6        1.0  0.014088332408725477  0.862052129786363  0.9666962525396345  1.0000
  O   O7        1.0  0.2615998178089214  0.1473373251146413  0.9904276503296501  1.0000
  O   O8        1.0  0.7383768377041521  0.8526718821199069  0.009558354748264683  1.0000
  O   O9        1.0  0.9415070001735871  0.3494543621354963  0.8781877081621021  1.0000
  O   O10       1.0  0.05853251070281829  0.6505268400799692  0.12181378732734063  1.0000
  O   O11       1.0  0.7068041504354737  0.25480558317295277  0.8884688484556237  1.0000
  O   O12       1.0  0.2932224822104317  0.7451951316819461  0.11154093278263845  1.0000
