data_image0
_chemical_formula_structural       Zn6H70C68I2O24
_chemical_formula_sum              "Zn6 H70 C68 I2 O24"
_cell_length_a       21.657822673224857
_cell_length_b       21.66496847764706
_cell_length_c       22.145710981152032
_cell_angle_alpha    118.86687230570857
_cell_angle_beta     119.1974146044038
_cell_angle_gamma    90.42359289913063

_space_group_name_H-M_alt    "P 1"
_space_group_IT_number       1

loop_
  _space_group_symop_operation_xyz
  'x, y, z'

loop_
  _atom_site_type_symbol
  _atom_site_label
  _atom_site_symmetry_multiplicity
  _atom_site_fract_x
  _atom_site_fract_y
  _atom_site_fract_z
  _atom_site_occupancy
  Zn  Zn1       1.0  0.94075391619635  0.00045395129085787616  0.49993817694623033  1.0000
  Zn  Zn2       1.0  0.05924069998958  0.9995547412033192  0.5000607906896662  1.0000
  Zn  Zn3       1.0  0.5005502690866308  0.44086205674018697  0.5001173835376206  1.0000
  Zn  Zn4       1.0  0.49944434595632003  0.5591403111356641  0.49987950230865846  1.0000
  Zn  Zn5       1.0  0.0394459907758389  0.540134614284625  0.5794976752142418  1.0000
  Zn  Zn6       1.0  0.9605530879686625  0.4598744364565234  0.4205040421775833  1.0000
  H   H1        1.0  0.2111963090373763  0.42443656608205055  0.5366235014379512  1.0000
  H   H2        1.0  0.7889383728204038  0.5757730554155032  0.4636536058631576  1.0000
  H   H3        1.0  0.8022186027846133  0.7630130220193508  0.9288899905118199  1.0000
  H   H4        1.0  0.19970097459447797  0.23365589653171528  0.07113604776296963  1.0000
  H   H5        1.0  0.7011587469643387  0.8376877812486117  0.07109201435633128  1.0000
  H   H6        1.0  0.300842584245629  0.16558555057088145  0.9289140755691393  1.0000
  H   H7        1.0  0.7694225502687431  0.8837838101157162  0.07192746669991822  1.0000
  H   H8        1.0  0.23438894961009993  0.1169407346953051  0.9281157501429007  1.0000
  H   H9        1.0  0.6299889120977441  0.7637344479330536  0.9253871827227157  1.0000
  H   H10       1.0  0.3719666814901217  0.23950494646095422  0.07464383735067766  1.0000
  H   H11       1.0  0.7103137233951173  0.7211748574913629  0.07325867137453192  1.0000
  H   H12       1.0  0.28713841091645514  0.28162538602781234  0.9266968091540306  1.0000
  H   H13       1.0  0.6374607864886671  0.6491854414136354  0.9273383873787749  1.0000
  H   H14       1.0  0.3599829811431547  0.353631116974185  0.07260047969334227  1.0000
  H   H15       1.0  0.6977836629785229  0.8101916710094842  0.9260785143962592  1.0000
  H   H16       1.0  0.3059675949820999  0.1905154098908781  0.07395752210950221  1.0000
  H   H17       1.0  0.8862807024107084  0.7835585171781787  0.4660473079903086  1.0000
  H   H18       1.0  0.1138941867658545  0.21672561920910033  0.534496374426638  1.0000
  H   H19       1.0  0.9526190166145623  0.838480633332338  0.574432064278923  1.0000
  H   H20       1.0  0.0478263782061816  0.16179148589871056  0.426052582104667  1.0000
  H   H21       1.0  0.9594009468397859  0.731906352927176  0.5768164829194049  1.0000
  H   H22       1.0  0.0410957672832382  0.26838041823321385  0.4236891766641051  1.0000
  H   H23       1.0  0.37310894248790305  0.5648562098336497  0.6335438230781492  1.0000
  H   H24       1.0  0.626883472186485  0.4353478150770656  0.3664794342297243  1.0000
  H   H25       1.0  0.8892515177801883  0.6772584236265261  0.4687986906295621  1.0000
  H   H26       1.0  0.11091724936637351  0.32305490490409744  0.5318109352453392  1.0000
  H   H27       1.0  0.9278302604577887  0.7400708433477945  0.3668682957736989  1.0000
  H   H28       1.0  0.0718308342781455  0.2600111086376843  0.6332133755608355  1.0000
  H   H29       1.0  0.9258450695273623  0.6317762722367988  0.3657174648486716  1.0000
  H   H30       1.0  0.0737133954223381  0.36830695941430497  0.6343551292744394  1.0000
  H   H31       1.0  0.11974282054771379  0.838359252796515  0.56242630111862  1.0000
  H   H32       1.0  0.8802288444806265  0.1614506831482245  0.4371811930030844  1.0000
  H   H33       1.0  0.09167449532182562  0.8683263804753949  0.6319529503059869  1.0000
  H   H34       1.0  0.9086519702947271  0.13160852956638544  0.36797265487783193  1.0000
  H   H35       1.0  0.0952413414019802  0.7588828970752176  0.6283378663500159  1.0000
  H   H36       1.0  0.9050990506174446  0.2410073629774133  0.37150603300099055  1.0000
  H   H37       1.0  0.12126899870632712  0.7280158011114111  0.55710315368011  1.0000
  H   H38       1.0  0.8786245469763757  0.2717240347074679  0.4423445829553003  1.0000
  H   H39       1.0  0.024132822805711395  0.7607948110515111  0.40767305230424  1.0000
  H   H40       1.0  0.9754484222149316  0.2390382590056818  0.5920178232376686  1.0000
  H   H41       1.0  0.0204128523197369  0.6494366712883064  0.4006879846742989  1.0000
  H   H42       1.0  0.9790222373639423  0.3503480364341272  0.5989013063371615  1.0000
  H   H43       1.0  0.15731232294062636  0.38264844811371995  0.4277393339239381  1.0000
  H   H44       1.0  0.8427944387152522  0.6173636885733133  0.5724985480762541  1.0000
  H   H45       1.0  0.26582473162415  0.564594797424597  0.6344810649611003  1.0000
  H   H46       1.0  0.7341648958374164  0.43563205202109156  0.36553221572338396  1.0000
  H   H47       1.0  0.2739745160240972  0.5535366699487909  0.4334627282465533  1.0000
  H   H48       1.0  0.7259257852405057  0.44628086386593696  0.5663468529474827  1.0000
  H   H49       1.0  0.23632512465449199  0.45571840154276794  0.367012753996633  1.0000
  H   H50       1.0  0.7636689020656177  0.5440861685848404  0.6329550900304993  1.0000
  H   H51       1.0  0.3515720086954204  0.6172912183654944  0.5889623429787391  1.0000
  H   H52       1.0  0.6483472913877364  0.38275680463997486  0.4108756543469596  1.0000
  H   H53       1.0  0.32003812287924654  0.42367464774326186  0.5388929395669564  1.0000
  H   H54       1.0  0.6800842810317745  0.5765063143534662  0.4613611739795615  1.0000
  H   H55       1.0  0.130107961270582  0.46205887892357106  0.3698908930094617  1.0000
  H   H56       1.0  0.8698687651521269  0.537712275364548  0.6300411886461815  1.0000
  H   H57       1.0  0.1682237740531747  0.5596700714960149  0.43743924497010067  1.0000
  H   H58       1.0  0.8316430484186627  0.4401178748956411  0.5623078898041102  1.0000
  H   H59       1.0  0.24667906765165531  0.6208131741500864  0.5950771815099785  1.0000
  H   H60       1.0  0.7532201479190732  0.3792427028720837  0.4047188148145863  1.0000
  H   H61       1.0  0.2662122634642969  0.3786100698040471  0.429997754569392  1.0000
  H   H62       1.0  0.7338928258440803  0.6214173414101722  0.5702325388147358  1.0000
  H   H63       1.0  0.7104897595126047  0.6128315680229123  0.9283810549886197  1.0000
  H   H64       1.0  0.2855759514318166  0.3871703802061788  0.07153556886000692  1.0000
  H   H65       1.0  0.7840099125024195  0.6864773613532549  0.07366819444898444  1.0000
  H   H66       1.0  0.2121232779284909  0.3134547550089053  0.9262436098637679  1.0000
  H   H67       1.0  0.8762697761768764  0.8332106502527594  0.07369615025816476  1.0000
  H   H68       1.0  0.1255270798293324  0.16339416902486903  0.9262975339640108  1.0000
  H   H69       1.0  0.8804873758246998  0.7519934595412181  0.07383499353549856  1.0000
  H   H70       1.0  0.11825290307693588  0.2443887682480224  0.9261694363566164  1.0000
  C   C1        1.0  0.00010935455931359996  0.8813574440019634  0.501420099995677  1.0000
  C   C2        1.0  0.9999064657818622  0.11867378299729839  0.4986212923093731  1.0000
  C   C3        1.0  0.7910382589295822  0.7903720588380666  0.08173182256672355  1.0000
  C   C4        1.0  0.2089557889189422  0.20956847537861734  0.9182568387159054  1.0000
  C   C5        1.0  0.6971913225271322  0.6646772725705219  0.9524688833935783  1.0000
  C   C6        1.0  0.3004161894450945  0.3363405060782583  0.04748052072459787  1.0000
  C   C7        1.0  0.7105048414833206  0.7074071626028059  0.9183949166287632  1.0000
  C   C8        1.0  0.2894217152433498  0.29252731724124464  0.08158803779132748  1.0000
  C   C9        1.0  0.6898418165305601  0.7800989581390566  0.9512240108014609  1.0000
  C   C10       1.0  0.31227193910430623  0.22132723490855716  0.04879859524304916  1.0000
  C   C11       1.0  0.7368053297572601  0.8286709983007228  0.047453177265950344  1.0000
  C   C12       1.0  0.2653234904184743  0.1727889383365806  0.9525722186998776  1.0000
  C   C13       1.0  0.6650208517780172  0.6628781904239034  0.8280111161615338  1.0000
  C   C14       1.0  0.3349369408707048  0.3370624747950046  0.17197385564683285  1.0000
  C   C15       1.0  0.8359495236325784  0.8356795121355843  0.17208236487362435  1.0000
  C   C16       1.0  0.1640439711756514  0.1642940445000605  0.8279085195164199  1.0000
  C   C17       1.0  0.8736034252477083  0.8737051313546045  0.24777746749499807  1.0000
  C   C18       1.0  0.12638338140857286  0.1263037239240035  0.7522155931282413  1.0000
  C   C19       1.0  0.9417535268341126  0.7914513002337671  0.5155561003831365  1.0000
  C   C20       1.0  0.0584776649076986  0.2087651778829098  0.48483034548759457  1.0000
  C   C21       1.0  0.9442613730940436  0.720444879743205  0.5164316344348804  1.0000
  C   C22       1.0  0.0559820930799333  0.279776017229196  0.48397584794566484  1.0000
  C   C23       1.0  0.9185636563601491  0.9187721579183831  0.3375385043866428  1.0000
  C   C24       1.0  0.0814181314392002  0.0812409090694928  0.6624577614483372  1.0000
  C   C25       1.0  0.9821584375044734  0.7464408741859428  0.41699089599367745  1.0000
  C   C26       1.0  0.017552262746917797  0.2535412701120308  0.5829363964771802  1.0000
  C   C27       1.0  0.0781917986245659  0.8220273415176679  0.5711740350631943  1.0000
  C   C28       1.0  0.9219193509574594  0.17787897119965382  0.42864618270970567  1.0000
  C   C29       1.0  0.00011629318161970003  0.8114615308228181  0.5020165619502778  1.0000
  C   C30       1.0  0.9999196113063032  0.1885813259007633  0.4980462222247081  1.0000
  C   C31       1.0  0.0022755119486249004  0.6898280920837578  0.4992537888296766  1.0000
  C   C32       1.0  0.9977012578286305  0.31018655714133564  0.5007539245146901  1.0000
  C   C33       1.0  0.9811110064069554  0.6738879447234611  0.41481771618997265  1.0000
  C   C34       1.0  0.0185349831913157  0.3260663441684883  0.5850660094166358  1.0000
  C   C35       1.0  0.0796213483427479  0.7494330143316504  0.5686851893888869  1.0000
  C   C36       1.0  0.9204691511924139  0.25044144457938694  0.43107582712124765  1.0000
  C   C37       1.0  0.2058024028106544  0.4293233216549268  0.4871810968920016  1.0000
  C   C38       1.0  0.794286513125776  0.5707611303368764  0.5130087901264131  1.0000
  C   C39       1.0  0.25010134419886043  0.5040666392999356  0.4268562726843684  1.0000
  C   C40       1.0  0.7498536373924197  0.4957877325702427  0.5730541273362633  1.0000
  C   C41       1.0  0.179672623368802  0.5076124428502596  0.4287748374858822  1.0000
  C   C42       1.0  0.8202734294815883  0.4922322438042742  0.5711131857519192  1.0000
  C   C43       1.0  0.1904600155647387  0.5030888037125719  0.5004808075138953  1.0000
  C   C44       1.0  0.8095334847429214  0.4969211147448361  0.4995145937673655  1.0000
  C   C45       1.0  0.32882255694547513  0.5669978983662248  0.5819011782361514  1.0000
  C   C46       1.0  0.6711464071670504  0.43310066506101913  0.41804983818733626  1.0000
  C   C47       1.0  0.2582736060595963  0.5682994441856336  0.5837406183235601  1.0000
  C   C48       1.0  0.7416825281163993  0.43180612005156854  0.41619448506864387  1.0000
  C   C49       1.0  0.3801465304131355  0.4988394328819724  0.49889928488563123  1.0000
  C   C50       1.0  0.6198598039375725  0.5011861480289782  0.5011195644599126  1.0000
  C   C51       1.0  0.5811993948076265  0.5815311346291381  0.6625750389002506  1.0000
  C   C52       1.0  0.4188108388878788  0.41848986460642124  0.33741325479195444  1.0000
  C   C53       1.0  0.8799034537105044  0.4980054449370429  0.499760914621426  1.0000
  C   C54       1.0  0.12009674308181667  0.5020118687766059  0.500250653857556  1.0000
  C   C55       1.0  0.0015690168497358  0.6197850605711324  0.49961790152566715  1.0000
  C   C56       1.0  0.9984161207608011  0.38023223759920194  0.5003968604035192  1.0000
  C   C57       1.0  0.3096555437276294  0.4982556880066297  0.498308080303822  1.0000
  C   C58       1.0  0.6903513479888517  0.5017590080839723  0.5017180908037486  1.0000
  C   C59       1.0  0.2776864156838315  0.4276607185618388  0.4879829542696044  1.0000
  C   C60       1.0  0.7223952470588629  0.5724156400054171  0.512198750037065  1.0000
  C   C61       1.0  0.7452078883838453  0.7131321952201545  0.048760941478761186  1.0000
  C   C62       1.0  0.2524202598175975  0.2878752457626277  0.9511907212211312  1.0000
  C   C63       1.0  0.8419966675066917  0.7789097062040611  0.049264197659994104  1.0000
  C   C64       1.0  0.1582156870875124  0.21848157892973316  0.9507460321215291  1.0000
  C   C65       1.0  0.7943144952992185  0.7323174042512547  0.9532804219638391  1.0000
  C   C66       1.0  0.2059458243376042  0.26507058958741675  0.04671411217081806  1.0000
  C   C67       1.0  0.6258098528758964  0.62613776269108  0.7523822801525882  1.0000
  C   C68       1.0  0.3742104172841678  0.3738579554143088  0.247606549295817  1.0000
  I   I1        1.0  0.8323660497526646  0.6382226078665454  0.903077423058754  1.0000
  I   I2        1.0  0.16535835919283673  0.3567257266781852  0.09699846236770074  1.0000
  O   O1        1.0  0.9478159735583772  0.9085622041010242  0.5007620343725919  1.0000
  O   O2        1.0  0.0521998423582701  0.0914547843306579  0.4992617998528601  1.0000
  O   O3        1.0  0.8719712600356218  0.4635529101923836  0.4293137562159329  1.0000
  O   O4        1.0  0.12802781738118088  0.5364524482713692  0.5706821543001936  1.0000
  O   O5        1.0  0.03578534214674531  0.6286946722960423  0.5707727822211837  1.0000
  O   O6        1.0  0.9642070447087221  0.37132174914268035  0.4292310265430146  1.0000
  O   O7        1.0  0.9656385294850625  0.5572576482361528  0.42925754608472744  1.0000
  O   O8        1.0  0.034352740646753005  0.44274998944228366  0.5707461006884387  1.0000
  O   O9        1.0  0.0525029624381332  0.907587777265881  0.5004205703352225  1.0000
  O   O10       1.0  0.9475078328183882  0.0924344681802013  0.49959296328476915  1.0000
  O   O11       1.0  0.8835965575024645  0.9367881537072903  0.37310375739875895  1.0000
  O   O12       1.0  0.1163997320612822  0.06322264763623052  0.6268938428370633  1.0000
  O   O13       1.0  0.9892828624669859  0.9365614887801001  0.3732387834774539  1.0000
  O   O14       1.0  0.0107111961510995  0.06344966154339461  0.6267592716737695  1.0000
  O   O15       1.0  0.4079760689097114  0.4471675588283048  0.4994682934355835  1.0000
  O   O16       1.0  0.592035282422458  0.5528364232672942  0.500550434339317  1.0000
  O   O17       1.0  0.40730071582127175  0.5521468308062015  0.49976137293459993  1.0000
  O   O18       1.0  0.5926927833124367  0.4478488634280637  0.5002390563248866  1.0000
  O   O19       1.0  0.5635879645236201  0.5110320810078619  0.6269915976811474  1.0000
  O   O20       1.0  0.4364172453494604  0.4889636166771041  0.37299274595780224  1.0000
  O   O21       1.0  0.5635300862462032  0.6165930778818947  0.6269511207487426  1.0000
  O   O22       1.0  0.43647401211142517  0.38341229111821906  0.3730521574122391  1.0000
  O   O23       1.0  0.9422041606482878  0.5350145817590926  0.57080942288772  1.0000
  O   O24       1.0  0.057786550752283006  0.4649939287210715  0.4291866927177566  1.0000
