data_image0
_chemical_formula_structural       Cd2P4H72C44S8N4O8
_chemical_formula_sum              "Cd2 P4 H72 C44 S8 N4 O8"
_cell_length_a       11.749265969333342
_cell_length_b       11.670285592123749
_cell_length_c       14.6429
_cell_angle_alpha    98.5451457107958
_cell_angle_beta     107.84772831326367
_cell_angle_gamma    115.841944565931

_space_group_name_H-M_alt    "P 1"
_space_group_IT_number       1

loop_
  _space_group_symop_operation_xyz
  'x, y, z'

loop_
  _atom_site_type_symbol
  _atom_site_label
  _atom_site_symmetry_multiplicity
  _atom_site_fract_x
  _atom_site_fract_y
  _atom_site_fract_z
  _atom_site_occupancy
  Cd  Cd1       1.0  0.9999990106632168  0.9999998235373297  0.4999993943403567  1.0000
  Cd  Cd2       1.0  3.860307203165175e-07  0.4999994075896126  4.345327369363685e-07  1.0000
  P   P1        1.0  0.3292396722986907  0.147889832944557  0.6242566676312151  1.0000
  P   P2        1.0  0.024434564862332274  0.7050258357732061  0.8756595173640136  1.0000
  P   P3        1.0  0.6707602325129399  0.8521099905927727  0.37574294660001334  1.0000
  P   P4        1.0  0.9755653399492985  0.29497398776413053  0.12434077979204972  1.0000
  H   H1        1.0  0.37340473806311536  0.3531088575259815  0.5462505035761112  1.0000
  H   H2        1.0  0.30651860871331843  0.826965572914915  0.9536359149945923  1.0000
  H   H3        1.0  0.6265956989303945  0.6468919743694528  0.45375072679395595  1.0000
  H   H4        1.0  0.6934814663136493  0.1730362673386239  0.0463639799241236  1.0000
  H   H5        1.0  0.31521483524289096  0.4205912069106219  0.686669181299635  1.0000
  H   H6        1.0  0.2324963273437461  0.6266007842454755  0.8126636917793065  1.0000
  H   H7        1.0  0.6847864958990328  0.5794096249848123  0.3133322689613038  1.0000
  H   H8        1.0  0.7675041096497563  0.37340004764995877  0.18733753859076066  1.0000
  H   H9        1.0  0.4137128656992317  0.5650122879779005  0.6576448241733956  1.0000
  H   H10       1.0  0.40533862686893934  0.7553358466491034  0.8425896787540523  1.0000
  H   H11       1.0  0.586289359591106  0.4349885439175338  0.3423561630535872  1.0000
  H   H12       1.0  0.5946627042729772  0.244664985246331  0.1574110885820588  1.0000
  H   H13       1.0  0.4953705526919805  0.5335010972322678  0.767466493299878  1.0000
  H   H14       1.0  0.26454543424419086  0.7272127391324403  0.7325578127814083  1.0000
  H   H15       1.0  0.5046313106318151  0.46650074302127104  0.23253452432540908  1.0000
  H   H16       1.0  0.735453938385561  0.27278607604679184  0.267442234085479  1.0000
  H   H17       1.0  0.6145798927040856  0.4241789450441544  0.5728166561785315  1.0000
  H   H18       1.0  0.35234499857507723  0.043895844977242894  0.9274930154576779  1.0000
  H   H19       1.0  0.385421438437838  0.5758218868512799  0.42718411115757965  1.0000
  H   H20       1.0  0.6476554384184254  0.9561049869181913  0.07250548321307099  1.0000
  H   H21       1.0  0.6803060012978578  0.5294021215400732  0.6996580015130078  1.0000
  H   H22       1.0  0.32952515585788683  0.9814258672642282  0.8007216798974142  1.0000
  H   H23       1.0  0.31969443569564493  0.47059871035536094  0.3003418630073966  1.0000
  H   H24       1.0  0.6704756431021579  0.018573956273108597  0.19927678837502333  1.0000
  H   H25       1.0  0.6007889878063892  0.5709837846689609  0.5957437357897745  1.0000
  H   H26       1.0  0.4743414514659676  0.0053150555654469  0.9047440344605421  1.0000
  H   H27       1.0  0.3992114491871134  0.42901704722648043  0.4042568116554648  1.0000
  H   H28       1.0  0.5256589855275422  0.9946857763299874  0.09525514713503472  1.0000
  H   H29       1.0  0.458353389389856  0.0455001427204849  0.5477949748529696  1.0000
  H   H30       1.0  0.9984173415252683  0.9117694978076685  0.9524696462353929  1.0000
  H   H31       1.0  0.5416450890914888  0.9544986724587403  0.45220348627338325  1.0000
  H   H32       1.0  0.0015822013198203  0.088231334087773  0.04752999839413969  1.0000
  H   H33       1.0  0.6659587349543442  0.2420614046221701  0.6932785149164502  1.0000
  H   H34       1.0  0.0485119356353821  0.9740335940048296  0.8073596414167454  1.0000
  H   H35       1.0  0.3340406376754146  0.7579374105570622  0.3067201661007672  1.0000
  H   H36       1.0  0.9514874369943765  0.0259652211744026  0.1926390396004719  1.0000
  H   H37       1.0  0.7044646491975256  0.1148005617663799  0.6571907750202541  1.0000
  H   H38       1.0  0.958316600819046  0.0494902157374568  0.8431533463350505  1.0000
  H   H39       1.0  0.29553472343222603  0.8851982534128453  0.3428079059969633  1.0000
  H   H40       1.0  0.041682771810712976  0.9505085994417684  0.15684533468217418  1.0000
  H   H41       1.0  0.6708365410238599  0.1342870821234854  0.7674179687202668  1.0000
  H   H42       1.0  0.8671106556229303  0.9041725278531842  0.7328580408973693  1.0000
  H   H43       1.0  0.32916193745748484  0.8657117330557468  0.232580492406079  1.0000
  H   H44       1.0  0.13288782285841447  0.09582628732604798  0.2671404202289764  1.0000
  H   H45       1.0  0.3372279315714195  0.823747902205497  0.568795138792524  1.0000
  H   H46       1.0  0.7568220294494452  0.7678727629543971  0.9305153094356767  1.0000
  H   H47       1.0  0.6627705469099184  0.1762509129737282  0.4312033223338219  1.0000
  H   H48       1.0  0.24317555488347858  0.23212605222483518  0.06948361472462491  1.0000
  H   H49       1.0  0.4704256114298814  0.8827449181461516  0.6934904962808944  1.0000
  H   H50       1.0  0.6906637634293203  0.7763822969928711  0.8059538747959037  1.0000
  H   H51       1.0  0.5295728670514563  0.1172538970330734  0.30650728192062365  1.0000
  H   H52       1.0  0.30933524723389644  0.22361752654445868  0.19404483661962502  1.0000
  H   H53       1.0  0.5094947257469754  0.8648647122485044  0.5857094436310106  1.0000
  H   H54       1.0  0.7807095127740737  0.9243376732141825  0.9139790056880132  1.0000
  H   H55       1.0  0.4905037527343623  0.13513410293072778  0.4142883345705073  1.0000
  H   H56       1.0  0.21929092421942895  0.0756631586812588  0.08602017590756358  1.0000
  H   H57       1.0  0.9723889298155937  0.2142650051311534  0.6297076483005313  1.0000
  H   H58       1.0  0.0857540438430178  0.3417466784116883  0.8698061704176042  1.0000
  H   H59       1.0  0.027614551589706986  0.7857348184061763  0.3702942113438538  1.0000
  H   H60       1.0  0.9142472872989059  0.6582541534837532  0.1301925481440165  1.0000
  H   H61       1.0  0.9690763541179661  0.42600810664455924  0.6384326382531285  1.0000
  H   H62       1.0  0.2874385971004542  0.3302150951359407  0.8609043888378024  1.0000
  H   H63       1.0  0.030929447766041594  0.5739927252508749  0.3615733260863365  1.0000
  H   H64       1.0  0.7125622018595975  0.6697847284013889  0.1390947623594698  1.0000
  H   H65       1.0  0.035509835432364426  0.4084909096642946  0.3613597052307398  1.0000
  H   H66       1.0  0.5478881679418706  0.675388174384544  0.13922407020714192  1.0000
  H   H67       1.0  0.9644870249674752  0.5915099222311396  0.638642011425496  1.0000
  H   H68       1.0  0.45211173686976025  0.3246116491527857  0.8607748610992516  1.0000
  H   H69       1.0  0.034494417607362514  0.197533319113802  0.3657125189664541  1.0000
  H   H70       1.0  0.33413604846509753  0.6697454024353389  0.13496745889020187  1.0000
  H   H71       1.0  0.96550244279247  0.8024675127816323  0.634287831840119  1.0000
  H   H72       1.0  0.6658642183130752  0.3302534127438861  0.8650321249427294  1.0000
  C   C1        1.0  0.455291132203719  0.4047892270650236  0.6244584713687473  1.0000
  C   C2        1.0  0.27960440830670313  0.8307277570004175  0.8755615931411783  1.0000
  C   C3        1.0  0.5447093047897837  0.5952116048304105  0.37554275900131984  1.0000
  C   C4        1.0  0.7203951345383783  0.1692730748950169  0.1244380514883545  1.0000
  C   C5        1.0  0.4175415571506064  0.48556274461664367  0.6881849452651068  1.0000
  C   C6        1.0  0.2957373643991159  0.728319916330477  0.8116638963414361  1.0000
  C   C7        1.0  0.5824612003216032  0.5144390956368952  0.311816975175887  1.0000
  C   C8        1.0  0.7042630725943865  0.27168091556495705  0.1883366511038034  1.0000
  C   C9        1.0  0.5962278437595288  0.4871478835559131  0.6232900396146661  1.0000
  C   C10       1.0  0.36360376133458056  0.9737815044788646  0.8770611772565147  1.0000
  C   C11       1.0  0.40377438153080897  0.5128529483395212  0.3767109476123167  1.0000
  C   C12       1.0  0.6363966756589292  0.0262193274165767  0.12293800433906206  1.0000
  C   C13       1.0  0.48849197604705097  0.0377821697935374  0.6246360324033731  1.0000
  C   C14       1.0  0.9140147212841043  0.8645904388442531  0.8754250158782071  1.0000
  C   C15       1.0  0.5115056082858658  0.9622166453856877  0.3753615259072732  1.0000
  C   C16       1.0  0.0859833952306914  0.1354093846930766  0.1245741585712778  1.0000
  C   C17       1.0  0.6416472605011592  0.1390142649143797  0.6897589187160804  1.0000
  C   C18       1.0  0.9495843558234609  0.9532503251261629  0.8106338435493683  1.0000
  C   C19       1.0  0.3583521121285926  0.8609845502648454  0.31023976230114414  1.0000
  C   C20       1.0  0.050414654839748586  0.0467494984111667  0.1893641849413257  1.0000
  C   C21       1.0  0.44835779468965586  0.8931824328792074  0.6175993071779828  1.0000
  C   C22       1.0  0.777051299399062  0.8307005313316154  0.8819684872921486  1.0000
  C   C23       1.0  0.5516397896432678  0.10681638230001769  0.3823982511326633  1.0000
  C   C24       1.0  0.2229486054125687  0.1692992922057144  0.11802907816458937  1.0000
  C   C25       1.0  0.9864377302813807  0.2620480705987802  0.5722749805238792  1.0000
  C   C26       1.0  0.19077053300569696  0.4137121879260874  0.9276641847251454  1.0000
  C   C27       1.0  0.013563430645206204  0.737950744580445  0.4277275548992421  1.0000
  C   C28       1.0  0.8092302659543548  0.5862876356112423  0.07233564939696185  1.0000
  C   C29       1.0  0.9842071110385361  0.3803375514045229  0.5760303833244365  1.0000
  C   C30       1.0  0.3046067456790382  0.4079272374842374  0.9237260414014088  1.0000
  C   C31       1.0  0.015796348830882316  0.6196673139233297  0.42397343394287657  1.0000
  C   C32       1.0  0.6953931591325926  0.5920725860530922  0.07627357282981963  1.0000
  C   C33       1.0  0.001606438669661352  0.4374973388799432  0.4998099209828197  1.0000
  C   C34       1.0  0.4380713208130372  0.501905204405908  0.00023426252924714107  1.0000
  C   C35       1.0  0.9983934661419694  0.5625024846573936  0.5001944737222175  1.0000
  C   C36       1.0  0.5619276898501724  0.4980946191314217  0.9997651318111096  1.0000
  C   C37       1.0  0.02144139039088342  0.3710425064031355  0.4232566736574839  1.0000
  C   C38       1.0  0.44859445653284513  0.5987640504303045  0.07705744382332112  1.0000
  C   C39       1.0  0.9785574285211212  0.6289603422085079  0.576745080543148  1.0000
  C   C40       1.0  0.5514049160969065  0.4012347647489206  0.9229412371939034  1.0000
  C   C41       1.0  0.02153166764862392  0.25244345965951  0.424982138107417  1.0000
  C   C42       1.0  0.32891499489317505  0.5969268219650771  0.07539157274337073  1.0000
  C   C43       1.0  0.9784668108327138  0.7475553555197151  0.575019737643089  1.0000
  C   C44       1.0  0.6710858040668767  0.4030730015722597  0.9246082613787366  1.0000
  S   S1        1.0  0.20247760381516136  0.1311198293192604  0.6932244096602815  1.0000
  S   S2        1.0  0.9384336230709494  0.5075832688887445  0.8068092803040443  1.0000
  S   S3        1.0  0.7975217688145975  0.8688789858599717  0.3067756372065987  1.0000
  S   S4        1.0  0.06156628174068146  0.49241655464858514  0.19319101685201903  1.0000
  S   S5        1.0  0.23979974783185298  0.08443184075242267  0.47173871980935905  1.0000
  S   S6        1.0  0.11400226101316939  0.7690495168615994  0.02824378079075983  1.0000
  S   S7        1.0  0.7601994330466937  0.9155699995011161  0.528261638143313  1.0000
  S   S8        1.0  0.8859980057650031  0.2309492983176256  0.9717558030421641  1.0000
  N   N1        1.0  0.0044454364358373155  0.1991779511811984  0.49818457973194086  1.0000
  N   N2        1.0  0.20220441137940529  0.5060162803953503  0.0021088293584128493  1.0000
  N   N3        1.0  0.9955553625242073  0.8008218723561313  0.5018152543901664  1.0000
  N   N4        1.0  0.7977954934322256  0.49398354314198656  0.9978907848728156  1.0000
  O   O1        1.0  0.4612276459879823  0.2988904506395187  0.6655938585036765  1.0000
  O   O2        1.0  0.13325004753567532  0.795887976153942  0.8344810254807341  1.0000
  O   O3        1.0  0.5387731529720695  0.7011093728978111  0.3344066585432586  1.0000
  O   O4        1.0  0.8667503894578343  0.20411285574149218  0.16551883903967726  1.0000
  O   O5        1.0  0.4042781514818471  0.0693226029241814  0.6686838852822916  1.0000
  O   O6        1.0  0.9018141994657611  0.7356537048198531  0.8312117918639856  1.0000
  O   O7        1.0  0.5957217533297835  0.9306772206131484  0.33131436309928125  1.0000
  O   O8        1.0  0.09818517316399777  0.26434511035937186  0.1687875720780667  1.0000
