data_image0
_chemical_formula_structural       K2Cd4H16C22N10O20
_chemical_formula_sum              "K2 Cd4 H16 C22 N10 O20"
_cell_length_a       9.166626358583308
_cell_length_b       9.987179284129198
_cell_length_c       9.987218534802981
_cell_angle_alpha    111.67772627323824
_cell_angle_beta     96.20071198778626
_cell_angle_gamma    96.20036581418768

_space_group_name_H-M_alt    "P 1"
_space_group_IT_number       1

loop_
  _space_group_symop_operation_xyz
  'x, y, z'

loop_
  _atom_site_type_symbol
  _atom_site_label
  _atom_site_symmetry_multiplicity
  _atom_site_fract_x
  _atom_site_fract_y
  _atom_site_fract_z
  _atom_site_occupancy
  K   K1        1.0  0.7500073412253343  0.4693622664138246  0.5306299845532861  1.0000
  K   K2        1.0  0.2499990448228928  0.5306310983624272  0.4693721037278633  1.0000
  Cd  Cd1       1.0  0.8978456586352834  0.3899479019495473  0.1807692719768639  1.0000
  Cd  Cd2       1.0  0.6021523788524162  0.8192300339562594  0.6100538406851398  1.0000
  Cd  Cd3       1.0  0.1021561997440372  0.6100529800407486  0.8192302302145932  1.0000
  Cd  Cd4       1.0  0.39784717231949435  0.1807696946453277  0.38994803617181617  1.0000
  H   H1        1.0  0.9526700017838365  0.8937599567032563  0.22942406682093253  1.0000
  H   H2        1.0  0.5473297366684591  0.7705759262931553  0.10624204586747517  1.0000
  H   H3        1.0  0.0473210991817581  0.10624284591391839  0.7705722244121629  1.0000
  H   H4        1.0  0.4526697837124232  0.22942380774838975  0.8937578276016608  1.0000
  H   H5        1.0  0.7954853732635528  0.06392230017336692  0.0912948146212074  1.0000
  H   H6        1.0  0.7045133555172071  0.9087072079487301  0.936081567413403  1.0000
  H   H7        1.0  0.2045146303694949  0.9360807021185522  0.9087083248948458  1.0000
  H   H8        1.0  0.29548652808649933  0.09129469767312057  0.0639231546041117  1.0000
  H   H9        1.0  0.2231149823967158  0.3796054424908348  0.1454876930219058  1.0000
  H   H10       1.0  0.2768836216017121  0.8545129158171464  0.6203972719297112  1.0000
  H   H11       1.0  0.7768876756286429  0.6203932840385562  0.8545110721617559  1.0000
  H   H12       1.0  0.7231150862300096  0.1454802545238536  0.3796060863847116  1.0000
  H   H13       1.0  0.18248426570056617  0.5375231453079297  0.1545228784936868  1.0000
  H   H14       1.0  0.3175136912439243  0.8454792071526569  0.46248115544725005  1.0000
  H   H15       1.0  0.8175183769292715  0.4624755839414477  0.8454748849960649  1.0000
  H   H16       1.0  0.6824838543613366  0.15452155052044247  0.5375239378479363  1.0000
  C   C1        1.0  0.9320467735881055  0.6854095467971747  0.33609024068533694  1.0000
  C   C2        1.0  0.567950731961787  0.6639073654210036  0.31459254555920774  1.0000
  C   C3        1.0  0.0679504672415945  0.3145901468456104  0.6639044147843689  1.0000
  C   C4        1.0  0.4320522584953679  0.3360935381286581  0.6854090647850128  1.0000
  C   C5        1.0  0.7499986648681017  0.0975511619021177  0.9024503013430517  1.0000
  C   C6        1.0  0.24999981580805297  0.9024485342601807  0.09755347413679528  1.0000
  C   C7        1.0  0.9896347033164548  0.907660447603078  0.5762498404218944  1.0000
  C   C8        1.0  0.5103617192095627  0.4237491596951203  0.09233986547303633  1.0000
  C   C9        1.0  0.010361602442344497  0.09234030755050782  0.4237461328631581  1.0000
  C   C10       1.0  0.48964235713886944  0.5762517735738443  0.9076608479422034  1.0000
  C   C11       1.0  0.9727204061498042  0.9415269251041707  0.34838651014945304  1.0000
  C   C12       1.0  0.5272783756270486  0.6516134112632416  0.05847486195114024  1.0000
  C   C13       1.0  0.0272716606777266  0.05847481056223812  0.6516104666561303  1.0000
  C   C14       1.0  0.47272665118779145  0.3483864577749429  0.94152553534267  1.0000
  C   C15       1.0  0.9628597292829113  0.8472969959580111  0.4224786351555635  1.0000
  C   C16       1.0  0.5371414062704433  0.5775219627230117  0.15270477432107307  1.0000
  C   C17       1.0  0.0371387790494708  0.15270381319423618  0.5775175476593546  1.0000
  C   C18       1.0  0.4628617350070884  0.42248003205676105  0.8472972569095061  1.0000
  C   C19       1.0  0.9733483889802275  0.8136315471334117  0.6629789005657969  1.0000
  C   C20       1.0  0.5266504430753259  0.3370201084621626  0.1863675022940753  1.0000
  C   C21       1.0  0.026654373678958593  0.1863682787860341  0.3370172804225006  1.0000
  C   C22       1.0  0.47335143069951613  0.6629807708081472  0.8136330015912917  1.0000
  N   N1        1.0  0.7835165397798677  0.2791451391025249  0.8338506418293787  1.0000
  N   N2        1.0  0.7164802397399868  0.1661490441467919  0.7208548962976946  1.0000
  N   N3        1.0  0.21648080881845996  0.7208545355004005  0.16615102549771169  1.0000
  N   N4        1.0  0.2835179085043791  0.8338484749952427  0.2791460340216004  1.0000
  N   N5        1.0  0.8075845958605612  0.24081299943493656  0.9500824199498223  1.0000
  N   N6        1.0  0.6924115936494318  0.049917836277927605  0.7591897177108108  1.0000
  N   N7        1.0  0.19241288816262883  0.7591877691180785  0.04991866656971678  1.0000
  N   N8        1.0  0.30758673620635335  0.9500807686542531  0.2408136368826703  1.0000
  N   N9        1.0  0.7499977358963932  0.016432120531987896  0.9835708737975463  1.0000
  N   N10       1.0  0.24999992973820886  0.9835697338111798  0.016432636996185614  1.0000
  O   O1        1.0  0.9584993747945703  0.6000906056496264  0.403218535175668  1.0000
  O   O2        1.0  0.5414974525535285  0.5967806836296959  0.399912454643946  1.0000
  O   O3        1.0  0.04149911814229768  0.3999102062226001  0.5967766459453328  1.0000
  O   O4        1.0  0.4585046028327326  0.4032212814307671  0.600090473515614  1.0000
  O   O5        1.0  0.8850435131932243  0.6366973679421903  0.2002307508242254  1.0000
  O   O6        1.0  0.6149562865877698  0.799766320850722  0.3633053847518751  1.0000
  O   O7        1.0  0.11495279256557468  0.3633033872114027  0.79976522246082  1.0000
  O   O8        1.0  0.3850434154045175  0.20023449898097573  0.6366969129914465  1.0000
  O   O9        1.0  0.8449676976105277  0.7626172275618543  0.6730382428381317  1.0000
  O   O10       1.0  0.6550339210631505  0.32696341089290837  0.23738320635755625  1.0000
  O   O11       1.0  0.15503936556199696  0.23738160696485275  0.32696094140527515  1.0000
  O   O12       1.0  0.34496730324362096  0.6730331116168957  0.7626126089006248  1.0000
  O   O13       1.0  0.09468076073058998  0.7955066843573633  0.7266881307563722  1.0000
  O   O14       1.0  0.40532110922135445  0.27331127872232497  0.204495493822364  1.0000
  O   O15       1.0  0.9053268133503424  0.20449653140966717  0.2733067268690235  1.0000
  O   O16       1.0  0.5946809461648996  0.7266906863381382  0.7955074343371961  1.0000
  O   O17       1.0  0.1527090454858211  0.44812854093873977  0.1745385357214957  1.0000
  O   O18       1.0  0.34729036708646527  0.8254642584316443  0.5518756217606651  1.0000
  O   O19       1.0  0.8472910467431163  0.5518679600116985  0.8254551713839219  1.0000
  O   O20       1.0  0.6527107686244092  0.17453876541964056  0.4481296259081445  1.0000
