data_image0
_chemical_formula_structural       Zn2H38C40N2O16
_chemical_formula_sum              "Zn2 H38 C40 N2 O16"
_cell_length_a       9.500961015940321
_cell_length_b       10.774137475037238
_cell_length_c       16.137595035954682
_cell_angle_alpha    87.71272131980976
_cell_angle_beta     91.21773192339529
_cell_angle_gamma    92.32049372239112

_space_group_name_H-M_alt    "P 1"
_space_group_IT_number       1

loop_
  _space_group_symop_operation_xyz
  'x, y, z'

loop_
  _atom_site_type_symbol
  _atom_site_label
  _atom_site_symmetry_multiplicity
  _atom_site_fract_x
  _atom_site_fract_y
  _atom_site_fract_z
  _atom_site_occupancy
  Zn  Zn1       1.0  0.6465581712887528  0.49979092628377947  0.5052958690678154  1.0000
  Zn  Zn2       1.0  0.3534746081826299  0.5001957492871439  0.49470798453459963  1.0000
  H   H1        1.0  0.3112472855146748  0.6232179339680783  0.052198994721692316  1.0000
  H   H2        1.0  0.6887438564845143  0.3767878471912596  0.9478000022924038  1.0000
  H   H3        1.0  0.7565644875650576  0.966155454242525  0.5069646925642035  1.0000
  H   H4        1.0  0.24345408275025454  0.03384381437552259  0.49304757426740065  1.0000
  H   H5        1.0  0.901779288138151  0.6260696352008495  0.6045754192519794  1.0000
  H   H6        1.0  0.09823925725230248  0.37393839796462197  0.39542184588202645  1.0000
  H   H7        1.0  0.8776380511079366  0.5522209822350774  0.37005885462676263  1.0000
  H   H8        1.0  0.12239331148798982  0.4477869425788228  0.6299484038483742  1.0000
  H   H9        1.0  0.5409970183884241  0.8169054370483194  0.9761218690333282  1.0000
  H   H10       1.0  0.595237340301864  0.7592510058077051  0.8800698891440748  1.0000
  H   H11       1.0  0.4134365470620551  0.7714249651320487  0.8995990906538226  1.0000
  H   H12       1.0  0.4590110359433908  0.1830946456076958  0.023889704894678208  1.0000
  H   H13       1.0  0.5865559764631527  0.22858809751961218  0.10040600776834913  1.0000
  H   H14       1.0  0.40476767784403483  0.24076048988711563  0.11993034626835453  1.0000
  H   H15       1.0  0.1251908809979412  0.45076187181754085  0.04483687765554121  1.0000
  H   H16       1.0  0.18143735311161177  0.29392418171818235  0.055474243472382105  1.0000
  H   H17       1.0  0.04996917672153239  0.3342321881050623  0.9788911200205278  1.0000
  H   H18       1.0  0.8185707069756986  0.7060817106236356  0.9445285695553524  1.0000
  H   H19       1.0  0.8748043467525477  0.5492363937433778  0.9551672098209211  1.0000
  H   H20       1.0  0.9500344866333846  0.6657613194304447  0.021121142686759204  1.0000
  H   H21       1.0  0.7808955042806645  0.9978316036656523  0.6630846558273191  1.0000
  H   H22       1.0  0.6261121091809301  0.9482976285088397  0.7188630575311807  1.0000
  H   H23       1.0  0.7234207187736672  0.08842921994068578  0.7459345754753317  1.0000
  H   H24       1.0  0.3739170788597406  0.051705522977535195  0.2811479757901338  1.0000
  H   H25       1.0  0.2191183160701016  0.0021934161257277963  0.3369324842765452  1.0000
  H   H26       1.0  0.27659076678288835  0.9115850430567177  0.2540693767361902  1.0000
  H   H27       1.0  0.6535981718661077  0.9814443698991011  0.2919545420945084  1.0000
  H   H28       1.0  0.8014952945612706  0.030809730866359096  0.3553781469806837  1.0000
  H   H29       1.0  0.7455431348811175  0.12763516020184798  0.26885725432272534  1.0000
  H   H30       1.0  0.1985278272807207  0.9692036312568748  0.6446302247862691  1.0000
  H   H31       1.0  0.3464341309876673  0.018558887882640797  0.7080540286362336  1.0000
  H   H32       1.0  0.25448134792501514  0.8723835746399473  0.7311591056261763  1.0000
  H   H33       1.0  0.9328485441662479  0.8343538218616613  0.508153839902626  1.0000
  H   H34       1.0  0.9102578850094574  0.7986383823717914  0.40153111529456004  1.0000
  H   H35       1.0  0.0456247357658484  0.9108013858836584  0.43165880905831966  1.0000
  H   H36       1.0  0.0897652108212554  0.20135235873939186  0.5984552685969435  1.0000
  H   H37       1.0  0.0671250061227298  0.1656315185201507  0.4918372909811383  1.0000
  H   H38       1.0  0.9543601935486591  0.0892099756978482  0.5683369723523841  1.0000
  C   C1        1.0  0.5413895732868141  0.7402763263520667  0.49882277042115686  1.0000
  C   C2        1.0  0.4586446577045323  0.259720435516634  0.5011865248335852  1.0000
  C   C3        1.0  0.5560525410100753  0.0483784357984547  0.5703450469448728  1.0000
  C   C4        1.0  0.44395121758860506  0.9516207480395948  0.42966341578799233  1.0000
  C   C5        1.0  0.47330279498815025  0.12275671372767498  0.5006065749994378  1.0000
  C   C6        1.0  0.5267062537214997  0.8772405606512167  0.49940628475749815  1.0000
  C   C7        1.0  0.5628718460734419  0.06003722424928527  0.4342393520583628  1.0000
  C   C8        1.0  0.4371359376584465  0.9399535646315584  0.5657723540030092  1.0000
  C   C9        1.0  0.03670412207806349  0.6174863163802867  0.48020148547605157  1.0000
  C   C10       1.0  0.9633105454077934  0.38252795287503716  0.5198037248392853  1.0000
  C   C11       1.0  0.9529503790339859  0.5718492205846601  0.5589824551065308  1.0000
  C   C12       1.0  0.047075731696992286  0.42816152639301197  0.44102101324693893  1.0000
  C   C13       1.0  0.9397489274542179  0.5305059119229582  0.4261039712428599  1.0000
  C   C14       1.0  0.0602836348134588  0.4695066563068694  0.5739038472387747  1.0000
  C   C15       1.0  0.5058051729484987  0.5032990494919218  0.3374914907673344  1.0000
  C   C16       1.0  0.49425300781846465  0.4966592787903322  0.6625079604590028  1.0000
  C   C17       1.0  0.5093120096586005  0.6194424555711607  0.9664851927990414  1.0000
  C   C18       1.0  0.4906906762600158  0.38055965325435903  0.033517643294779  1.0000
  C   C19       1.0  0.39411145702652567  0.5678670476920544  0.027987452210339808  1.0000
  C   C20       1.0  0.6058827287242536  0.432131187994713  0.9720172494244042  1.0000
  C   C21       1.0  0.5111192801582546  0.5038017546695102  0.24804376245667473  1.0000
  C   C22       1.0  0.4889133910731545  0.49618120339133753  0.7519601439990851  1.0000
  C   C23       1.0  0.6260105257752925  0.5535544316024995  0.022581523156148402  1.0000
  C   C24       1.0  0.37398812094632916  0.44645318401023804  0.9774218299435661  1.0000
  C   C25       1.0  0.5092451284301234  0.5038999311384059  0.08500883700880023  1.0000
  C   C26       1.0  0.49075638956466605  0.496099426372041  0.9149921724203839  1.0000
  C   C27       1.0  0.5137495508406217  0.5048852623522536  0.17253262560229396  1.0000
  C   C28       1.0  0.4862663415479389  0.49510998321908045  0.8274555108675445  1.0000
  C   C29       1.0  0.6438722314540044  0.9826109100477538  0.5039194213027188  1.0000
  C   C30       1.0  0.3561368555016741  0.01738727703575189  0.49609404535660684  1.0000
  C   C31       1.0  0.5155745984131741  0.7486051957403388  0.9285675292590769  1.0000
  C   C32       1.0  0.4844261817399341  0.25140337565240856  0.071435822542206  1.0000
  C   C33       1.0  0.14659961340392158  0.36700914711540383  0.010848154249480003  1.0000
  C   C34       1.0  0.8534031172588213  0.6329928950184891  0.9891571623072655  1.0000
  C   C35       1.0  0.688066728197768  0.03016309301044369  0.6947689432472546  1.0000
  C   C36       1.0  0.3119396079783172  0.9698518999749906  0.3052399268895131  1.0000
  C   C37       1.0  0.7094831928074895  0.062627080281743  0.3186946181137885  1.0000
  C   C38       1.0  0.2905346331680362  0.9373823816148389  0.6813181175293792  1.0000
  C   C39       1.0  0.9885558490576186  0.8239964733480675  0.4498594371276711  1.0000
  C   C40       1.0  0.011439433880418903  0.1760084979303684  0.5501371164666511  1.0000
  N   N1        1.0  0.8594008056473826  0.4864864793826414  0.5046520299102824  1.0000
  N   N2        1.0  0.14062443662987784  0.5135297973130761  0.49535259343717547  1.0000
  O   O1        1.0  0.6634700017149485  0.6955210508581402  0.5021614109970189  1.0000
  O   O2        1.0  0.3365238228800607  0.30446317747423274  0.49784596930071273  1.0000
  O   O3        1.0  0.4243626283864613  0.6790684184877521  0.49522397123676853  1.0000
  O   O4        1.0  0.5756356618673238  0.32092615249393214  0.5047808070811329  1.0000
  O   O5        1.0  0.623243128953355  0.514560237684023  0.3765151033186244  1.0000
  O   O6        1.0  0.3767892633698295  0.48541634811746087  0.6234839347046448  1.0000
  O   O7        1.0  0.3837537598232074  0.4917680003647574  0.36879952904861574  1.0000
  O   O8        1.0  0.6162956101386355  0.5082047290155315  0.6312126795776223  1.0000
  O   O9        1.0  0.24866929992017356  0.39408456094959365  0.9478472232342627  1.0000
  O   O10       1.0  0.7513305324094119  0.6059248099090766  0.05216045020635821  1.0000
  O   O11       1.0  0.60550385556094  0.1072477192117276  0.6401804628510562  1.0000
  O   O12       1.0  0.3945021410888359  0.8927600221555423  0.35982169171936823  1.0000
  O   O13       1.0  0.6189435797201668  0.1303581436706907  0.3686316106256769  1.0000
  O   O14       1.0  0.381071884090332  0.8696380971361746  0.6313881193623629  1.0000
  O   O15       1.0  0.0936279552326127  0.7318825770706567  0.4603921199324291  1.0000
  O   O16       1.0  0.9063742381944307  0.26813516791526126  0.539616066618784  1.0000
