data_image0
_chemical_formula_structural       Cd2H26C36N22
_chemical_formula_sum              "Cd2 H26 C36 N22"
_cell_length_a       6.549682603749625
_cell_length_b       11.950028324260215
_cell_length_c       11.949874894450977
_cell_angle_alpha    100.51549853216521
_cell_angle_beta     91.34586374644039
_cell_angle_gamma    91.34571687728268

_space_group_name_H-M_alt    "P 1"
_space_group_IT_number       1

loop_
  _space_group_symop_operation_xyz
  'x, y, z'

loop_
  _atom_site_type_symbol
  _atom_site_label
  _atom_site_symmetry_multiplicity
  _atom_site_fract_x
  _atom_site_fract_y
  _atom_site_fract_z
  _atom_site_occupancy
  Cd  Cd1       1.0  0.28969636890873574  0.033196918876264206  0.1401827372438476  1.0000
  Cd  Cd2       1.0  0.7896902966516707  0.140184521109525  0.0331963829604263  1.0000
  H   H1        1.0  0.04976400199480929  0.6950297403611642  0.319358941777601  1.0000
  H   H2        1.0  0.5497627863550038  0.3193577765976414  0.6950244099328201  1.0000
  H   H3        1.0  0.058979753244869905  0.5796504457132912  0.4740525596010201  1.0000
  H   H4        1.0  0.5589880377325968  0.4740467811584709  0.5796460175146975  1.0000
  H   H5        1.0  0.8793451856207496  0.3863763785765926  0.4383751721169347  1.0000
  H   H6        1.0  0.3793526903131977  0.43837991313994  0.3863683197016599  1.0000
  H   H7        1.0  0.6948048219224462  0.3217573832180348  0.2502340362886315  1.0000
  H   H8        1.0  0.19480124922849745  0.25023783403430855  0.3217547551228961  1.0000
  H   H9        1.0  0.8092511823703104  0.6918890477554951  0.025430616219736562  1.0000
  H   H10       1.0  0.3092420247907127  0.025436144203545997  0.6918890159533788  1.0000
  H   H11       1.0  0.6928335657394341  0.8912712569770206  0.08750763112919199  1.0000
  H   H12       1.0  0.19282212732841228  0.08751357530243808  0.8912751121725152  1.0000
  H   H13       1.0  0.11263299052459531  0.7786536145364167  0.1540443817589434  1.0000
  H   H14       1.0  0.6126236428121956  0.1540353182985612  0.7786504962770664  1.0000
  H   H15       1.0  0.20769461809793197  0.573555253558453  0.09906771500325817  1.0000
  H   H16       1.0  0.7076772739115568  0.0990601744695994  0.5735486497627846  1.0000
  H   H17       1.0  0.14478660503789342  0.3110535995676003  0.8443937767405173  1.0000
  H   H18       1.0  0.6447612550696961  0.8443949131196147  0.31105714044191757  1.0000
  H   H19       1.0  0.881967881838115  0.3604487358158082  0.7094250726173996  1.0000
  H   H20       1.0  0.381956115160584  0.709420302077163  0.36047360862544753  1.0000
  H   H21       1.0  0.908174335541979  0.5470358003549904  0.6442422730883166  1.0000
  H   H22       1.0  0.40820939888033075  0.6442411871078662  0.5470688265974317  1.0000
  H   H23       1.0  0.20181811755379903  0.6813216058534548  0.7124328842683879  1.0000
  H   H24       1.0  0.7018890263402894  0.7124341014875029  0.6813305944670205  1.0000
  H   H25       1.0  0.46906491184923044  0.628737954181574  0.8383949688325528  1.0000
  H   H26       1.0  0.9691172101228177  0.8383933558215303  0.628726963556737  1.0000
  C   C1        1.0  0.7887987710420462  0.4720863459025749  0.1868372233877622  1.0000
  C   C2        1.0  0.2887945351511334  0.18684164355976662  0.47208236048231816  1.0000
  C   C3        1.0  0.9762257466286287  0.6105983070972556  0.30664832272771037  1.0000
  C   C4        1.0  0.47622667658330897  0.30664186600201754  0.6105911924186386  1.0000
  C   C5        1.0  0.9807386003156539  0.5462160220947324  0.3930430134109102  1.0000
  C   C6        1.0  0.48075075108325643  0.3930389524990757  0.546215029135972  1.0000
  C   C7        1.0  0.8814070449320183  0.4397579677593767  0.3735204888601302  1.0000
  C   C8        1.0  0.3814069923047684  0.37352233250049244  0.43975942895885106  1.0000
  C   C9        1.0  0.78109052494127  0.4021387409720275  0.2688330883038502  1.0000
  C   C10       1.0  0.28108702912656014  0.2688326318797536  0.40213865786999753  1.0000
  C   C11       1.0  0.6832903583328686  0.43446078105003477  0.07631393131241987  1.0000
  C   C12       1.0  0.18327735024615072  0.07631768308417008  0.4344538336677246  1.0000
  C   C13       1.0  0.4752746698941763  0.43107178915139593  0.9283346441670517  1.0000
  C   C14       1.0  0.9752788309269037  0.9283357855035417  0.43106872584075256  1.0000
  C   C15       1.0  0.5158421452732754  0.6190537213566571  0.05854732297568428  1.0000
  C   C16       1.0  0.0158201125513315  0.058544161916827896  0.619045622826988  1.0000
  C   C17       1.0  0.6552542599014829  0.7078931445894269  0.05495239373521342  1.0000
  C   C18       1.0  0.15524374079233638  0.0549537698733005  0.7078898352697252  1.0000
  C   C19       1.0  0.5892237253984973  0.818593709177513  0.08793780354754685  1.0000
  C   C20       1.0  0.0892107981289243  0.0879431196238016  0.818591114535991  1.0000
  C   C21       1.0  0.2648735661370338  0.7553271828426488  0.1247549555854093  1.0000
  C   C22       1.0  0.7648595942397022  0.12474687434141882  0.7553223835991645  1.0000
  C   C23       1.0  0.31780058397821165  0.6419689502440988  0.09446301478957507  1.0000
  C   C24       1.0  0.8177862706166011  0.09445674246806128  0.6419663859000053  1.0000
  C   C25       1.0  0.3245360210701733  0.46535234806001563  0.8497812655964695  1.0000
  C   C26       1.0  0.8245504453504965  0.8497825162437209  0.46535574675670693  1.0000
  C   C27       1.0  0.15724303298176068  0.3908388831198123  0.8131311539835551  1.0000
  C   C28       1.0  0.6572604944692984  0.8131296034988437  0.3908484174486873  1.0000
  C   C29       1.0  0.009719747102302289  0.41951060625782316  0.7382293920506058  1.0000
  C   C30       1.0  0.5097166631722417  0.738234123745364  0.41953107840937065  1.0000
  C   C31       1.0  0.025740546499648093  0.5234903703745886  0.700984172710605  1.0000
  C   C32       1.0  0.5257659415429857  0.7009866301603932  0.5235063154368831  1.0000
  C   C33       1.0  0.1907629101403785  0.5983970665631161  0.73783377584121  1.0000
  C   C34       1.0  0.6908168611039686  0.7378334827025482  0.5984084758509738  1.0000
  C   C35       1.0  0.34094217325658605  0.5693900879322554  0.8111681448457092  1.0000
  C   C36       1.0  0.8409785886122234  0.8111654939813419  0.5693946279436943  1.0000
  N   N1        1.0  0.8841981223653053  0.5750823637009574  0.2048679575335939  1.0000
  N   N2        1.0  0.38418724161707735  0.20487358658281343  0.575079130513636  1.0000
  N   N3        1.0  0.6655191402196153  0.3280844679658443  0.018799384715031005  1.0000
  N   N4        1.0  0.1655192313136027  0.0188059879916977  0.3280824624835006  1.0000
  N   N5        1.0  0.5370438081595168  0.3257911377851385  0.9260636755066045  1.0000
  N   N6        1.0  0.03704902359530848  0.9260726120870186  0.3257898026411326  1.0000
  N   N7        1.0  0.5688427073021742  0.5030518405308866  0.01986557683048319  1.0000
  N   N8        1.0  0.06883171484248152  0.0198648669784163  0.503045869759319  1.0000
  N   N9        1.0  0.3978379629167179  0.8420826261326299  0.12147909888322062  1.0000
  N   N10       1.0  0.897831772910841  0.12147937043800987  0.8420890025140649  1.0000
  N   N11       1.0  0.6065955605402706  0.1228967927142222  0.2004947674554174  1.0000
  N   N12       1.0  0.10659713189367179  0.20050078293300544  0.1228911246223348  1.0000
  N   N13       1.0  0.6823106321877789  0.13648183948254197  0.295339697010192  1.0000
  N   N14       1.0  0.1823011553676395  0.29532915882984406  0.1364763068924049  1.0000
  N   N15       1.0  0.7551246487847081  0.15275808933024138  0.38690885447069695  1.0000
  N   N16       1.0  0.25512495328484863  0.38691495488659905  0.15275568207712098  1.0000
  N   N17       1.0  0.9900374824364419  0.9662926735029627  0.03583488086303523  1.0000
  N   N18       1.0  0.4900372406662186  0.03583451232850619  0.9662900734595753  1.0000
  N   N19       1.0  0.986746479165639  0.8887025684455594  0.9548028038692564  1.0000
  N   N20       1.0  0.4867428891598564  0.9548000820232262  0.8886949334313812  1.0000
  N   N21       1.0  0.9783529568912146  0.8131993383541312  0.8776802432390837  1.0000
  N   N22       1.0  0.4783504035917191  0.8776835371029179  0.8131947853801975  1.0000
