data_image0
_chemical_formula_structural       Zn4H48C32O16
_chemical_formula_sum              "Zn4 H48 C32 O16"
_cell_length_a       4.763995715280518
_cell_length_b       9.34984688036351
_cell_length_c       21.208329567197886
_cell_angle_alpha    93.71963236699057
_cell_angle_beta     89.99972070283334
_cell_angle_gamma    89.99880534528336

_space_group_name_H-M_alt    "P 1"
_space_group_IT_number       1

loop_
  _space_group_symop_operation_xyz
  'x, y, z'

loop_
  _atom_site_type_symbol
  _atom_site_label
  _atom_site_symmetry_multiplicity
  _atom_site_fract_x
  _atom_site_fract_y
  _atom_site_fract_z
  _atom_site_occupancy
  Zn  Zn1       1.0  0.5401020761039205  0.1779020941727296  0.7378200339275055  1.0000
  Zn  Zn2       1.0  0.5400833585942024  0.32209412977398694  0.26218114132380793  1.0000
  Zn  Zn3       1.0  0.4599051088441541  0.8220958172088046  0.26218268027371044  1.0000
  Zn  Zn4       1.0  0.4599133308699805  0.6779112182117187  0.7378161105773914  1.0000
  H   H1        1.0  0.9219129114315548  0.07038689883944468  0.8393513965916171  1.0000
  H   H2        1.0  0.9219088108638542  0.429592288176586  0.16064466431707564  1.0000
  H   H3        1.0  0.07809847180993051  0.9296066759654877  0.1606469596856073  1.0000
  H   H4        1.0  0.07808787858552789  0.5704120264779321  0.8393558609935853  1.0000
  H   H5        1.0  0.5950077184384525  0.10172287741929151  0.8752020525214803  1.0000
  H   H6        1.0  0.5950014927728304  0.39826841656539363  0.12479468851002913  1.0000
  H   H7        1.0  0.4049973675840519  0.8982706809416213  0.12479488876885372  1.0000
  H   H8        1.0  0.4049888993812019  0.6017380581610967  0.8752073082699141  1.0000
  H   H9        1.0  0.6656903023995184  0.8731040246916424  0.9349091815032297  1.0000
  H   H10       1.0  0.6656881215313177  0.6268890248409136  0.06509137113534541  1.0000
  H   H11       1.0  0.33430218895482977  0.12689708013839857  0.0650917307636405  1.0000
  H   H12       1.0  0.33431696450708165  0.3731045170419592  0.9349041551637287  1.0000
  H   H13       1.0  0.0060387995351263  0.8588062745401288  0.903018885851644  1.0000
  H   H14       1.0  0.006031133190703  0.6411756668424218  0.09698068834315171  1.0000
  H   H15       1.0  0.9939599892546765  0.14118518423636323  0.096981772279463  1.0000
  H   H16       1.0  0.9939697547017019  0.3588178640777642  0.9030138946313286  1.0000
  H   H17       1.0  0.7809530795499526  0.11465262096248811  0.9865711829826225  1.0000
  H   H18       1.0  0.7809582293504178  0.3853399008432988  0.013427271039937204  1.0000
  H   H19       1.0  0.21904990726802248  0.8853452629783191  0.0134291729027396  1.0000
  H   H20       1.0  0.21903636138891613  0.6146462045488192  0.9865737175737266  1.0000
  H   H21       1.0  0.1209593420926254  0.10478853464848473  0.954128610088894  1.0000
  H   H22       1.0  0.12096337409096954  0.39519932434712507  0.0458699787108117  1.0000
  H   H23       1.0  0.8790373475180503  0.8952082720537222  0.04587124590026551  1.0000
  H   H24       1.0  0.8790312165815166  0.6047899963848379  0.9541310946133167  1.0000
  H   H25       1.0  0.7538491583115033  0.2504714724649304  0.5989880888990129  1.0000
  H   H26       1.0  0.7538261653951182  0.2495310048903931  0.40101207192599014  1.0000
  H   H27       1.0  0.246149630312793  0.7495264499473321  0.40101556863554316  1.0000
  H   H28       1.0  0.2461600287826258  0.7504700395541876  0.5989836520439625  1.0000
  H   H29       1.0  0.7774684896876566  0.4034497311464449  0.6498515569022985  1.0000
  H   H30       1.0  0.7774423930183828  0.09654501049323731  0.3501502601036464  1.0000
  H   H31       1.0  0.2225344970826342  0.5965482022284972  0.35015304395685126  1.0000
  H   H32       1.0  0.22256899004903363  0.9034581828678158  0.6498459919861973  1.0000
  H   H33       1.0  0.22793938950700723  0.47463249814966696  0.5987954371305123  1.0000
  H   H34       1.0  0.2279213863075782  0.025360663022766506  0.40120553077804294  1.0000
  H   H35       1.0  0.772065696485882  0.5253589935488849  0.40120805097873813  1.0000
  H   H36       1.0  0.7720690058559612  0.9746468505275843  0.598793664256192  1.0000
  H   H37       1.0  0.2287975253965016  0.3144990292460008  0.550790402468266  1.0000
  H   H38       1.0  0.2287781972998886  0.18549945409643703  0.44920834711419394  1.0000
  H   H39       1.0  0.7712012633286277  0.6854935452518873  0.4492140572096944  1.0000
  H   H40       1.0  0.7712226902317455  0.8145101809863675  0.5507890177313826  1.0000
  H   H41       1.0  0.7735812564811652  0.5474124871871666  0.54867997919812  1.0000
  H   H42       1.0  0.7735698214942985  0.9525858710874431  0.45132436626600025  1.0000
  H   H43       1.0  0.22642173029442603  0.45258544069509565  0.4513241499972764  1.0000
  H   H44       1.0  0.22642266964250274  0.047425946049401105  0.5486763567053288  1.0000
  H   H45       1.0  0.7703777063224564  0.38514277515771056  0.5018889382115362  1.0000
  H   H46       1.0  0.7703581003594734  0.11486598719849181  0.49811419904855114  1.0000
  H   H47       1.0  0.2296357758721896  0.6148540753952146  0.4981146910759904  1.0000
  H   H48       1.0  0.2296406878731929  0.8851522660766945  0.5018871650030832  1.0000
  C   C1        1.0  0.6071977671473191  0.9219243659360217  0.8092643801464945  1.0000
  C   C2        1.0  0.6072011225272008  0.5780692882057751  0.19073389544340813  1.0000
  C   C3        1.0  0.3928052196525798  0.0780756341012818  0.19073367389373894  1.0000
  C   C4        1.0  0.3928018641347819  0.4219360981946708  0.809266658099702  1.0000
  C   C5        1.0  0.7445752661015986  0.015570136023058  0.8610532340267268  1.0000
  C   C6        1.0  0.74456939477529  0.48441634278860585  0.13894462946488773  1.0000
  C   C7        1.0  0.2554361170794266  0.9844255988198113  0.13894659371540294  1.0000
  C   C8        1.0  0.2554293938075602  0.5155858173093221  0.8610548960431647  1.0000
  C   C9        1.0  0.8414450131278315  0.9366467770065371  0.9178148202950213  1.0000
  C   C10       1.0  0.8414324676070567  0.5633411744180066  0.0821868184246739  1.0000
  C   C11       1.0  0.15855797374640448  0.0633479025797925  0.0821863942073833  1.0000
  C   C12       1.0  0.15856422205348508  0.4366534832316305  0.9178125094270869  1.0000
  C   C13       1.0  0.949177036611573  0.0386637847862801  0.971521233934709  1.0000
  C   C14       1.0  0.9491829377424709  0.4613226484529562  0.0284782883882286  1.0000
  C   C15       1.0  0.05082175211667559  0.9613308838373701  0.028479037243101905  1.0000
  C   C16       1.0  0.0508137520857588  0.5386634459424612  0.9715217568964721  1.0000
  C   C17       1.0  0.0654159639084497  0.24102394271078248  0.6698356803721097  1.0000
  C   C18       1.0  0.06538574542467049  0.2589677540127937  0.3301649569930447  1.0000
  C   C19       1.0  0.9345933201020243  0.7589739851374517  0.3301684488189096  1.0000
  C   C20       1.0  0.9346025475714299  0.7410440466686907  0.6698343509899374  1.0000
  C   C21       1.0  0.9072438348679412  0.32399114609587804  0.6226053790972159  1.0000
  C   C22       1.0  0.907218078932871  0.1760043311853039  0.3773958423987054  1.0000
  C   C23       1.0  0.0927591518736719  0.6760089143609136  0.37739786324431185  1.0000
  C   C24       1.0  0.09278070962130158  0.8239999559944664  0.6226023245917247  1.0000
  C   C25       1.0  0.0887891952336517  0.3948611534435429  0.5743778265742777  1.0000
  C   C26       1.0  0.0887757802310531  0.1051356549976461  0.42562339115053055  1.0000
  C   C27       1.0  0.9112158906584114  0.6051356861693832  0.42562485939157574  1.0000
  C   C28       1.0  0.9112230082573518  0.8948707977127482  0.5743767189685585  1.0000
  C   C29       1.0  0.9118998531497765  0.4658630047182726  0.5250754197806417  1.0000
  C   C30       1.0  0.9118861662852  0.0341399191491547  0.47492552123146237  1.0000
  C   C31       1.0  0.0881073317696206  0.534137033745111  0.4749259359029524  1.0000
  C   C32       1.0  0.08810422575102449  0.9658729697789783  0.5250752299781427  1.0000
  O   O1        1.0  0.516153897833199  0.9754422332790824  0.7591666000182613  1.0000
  O   O2        1.0  0.5161562470647781  0.5245502556857744  0.24083127393816992  1.0000
  O   O3        1.0  0.48384908903355495  0.024554551418376  0.24083136931150056  1.0000
  O   O4        1.0  0.48384254133978283  0.4754604786517334  0.7591684774644493  1.0000
  O   O5        1.0  0.5845282931316618  0.7878887335693463  0.8163116563535483  1.0000
  O   O6        1.0  0.5845410008355573  0.7121029999701206  0.18368470759988043  1.0000
  O   O7        1.0  0.4154662974971827  0.21210692446672397  0.18368156810768713  1.0000
  O   O8        1.0  0.4154703819847044  0.28790883903536724  0.8163179020133456  1.0000
  O   O9        1.0  0.9418844489259613  0.1937593790853285  0.7177481950684168  1.0000
  O   O10       1.0  0.9418638415293186  0.3062228240143413  0.28224933780351347  1.0000
  O   O11       1.0  0.05812273607836721  0.8062353279417208  0.2822553777498484  1.0000
  O   O12       1.0  0.0581244515824153  0.6937846620839422  0.7177474989134183  1.0000
  O   O13       1.0  0.3281707045099084  0.22043899567808  0.6612891740463455  1.0000
  O   O14       1.0  0.32813105755513305  0.27955843586355655  0.33871132412863864  1.0000
  O   O15       1.0  0.6718364804211845  0.7795599819907225  0.3387130967279362  1.0000
  O   O16       1.0  0.6718530373108749  0.7204533373772007  0.6612856255384828  1.0000
