data_image0
_chemical_formula_structural       H32Pb2C34S2N4O14
_chemical_formula_sum              "H32 Pb2 C34 S2 N4 O14"
_cell_length_a       8.093609666726996
_cell_length_b       9.475724886222133
_cell_length_c       12.455033952406787
_cell_angle_alpha    89.57836652017878
_cell_angle_beta     80.78985684171407
_cell_angle_gamma    78.62823581298896

_space_group_name_H-M_alt    "P 1"
_space_group_IT_number       1

loop_
  _space_group_symop_operation_xyz
  'x, y, z'

loop_
  _atom_site_type_symbol
  _atom_site_label
  _atom_site_symmetry_multiplicity
  _atom_site_fract_x
  _atom_site_fract_y
  _atom_site_fract_z
  _atom_site_occupancy
  H   H1        1.0  0.9250616313160124  0.0463076434446847  0.8786089751009525  1.0000
  H   H2        1.0  0.07493588959354015  0.9536976281703742  0.12139407100195848  1.0000
  H   H3        1.0  0.4039077292888891  0.1584905580783911  0.8209253818494415  1.0000
  H   H4        1.0  0.5960903549899114  0.8415071570475233  0.17907445555590581  1.0000
  H   H5        1.0  0.36625539152949915  0.9078308457238364  0.8680470771073416  1.0000
  H   H6        1.0  0.6337476882311178  0.09216690002842397  0.1319554546039683  1.0000
  H   H7        1.0  0.6087503802451835  0.7276188670234802  0.913323350670339  1.0000
  H   H8        1.0  0.3912541630392922  0.27238320495938956  0.08668140322156859  1.0000
  H   H9        1.0  0.40065878602477767  0.6838437173354774  0.6978344861683322  1.0000
  H   H10       1.0  0.599344310726842  0.316153994381942  0.3021608180192174  1.0000
  H   H11       1.0  0.5079082749764865  0.5243838985092494  0.7240200650829961  1.0000
  H   H12       1.0  0.4920933034950536  0.4756149050254237  0.2759794018695913  1.0000
  H   H13       1.0  0.0797006294733436  0.3384156979162967  0.8153433907466405  1.0000
  H   H14       1.0  0.9202974491417918  0.6615820285545695  0.18465885583329106  1.0000
  H   H15       1.0  0.14725677019356453  0.4361608614013051  0.7238431828892259  1.0000
  H   H16       1.0  0.8527410446756107  0.5638379531984512  0.2761614908576462  1.0000
  H   H17       1.0  0.050025975107047295  0.1392507356268524  0.6815441848900576  1.0000
  H   H18       1.0  0.9499728890822962  0.8607437378022809  0.3184531893636374  1.0000
  H   H19       1.0  0.17871815517067105  0.911520925994061  0.7614640920500264  1.0000
  H   H20       1.0  0.8212869646982738  0.0884735630281099  0.23853183173694958  1.0000
  H   H21       1.0  0.4790067881943969  0.7650524796019695  0.46672847887354846  1.0000
  H   H22       1.0  0.5209923057514562  0.2349462821479733  0.5332640195186824  1.0000
  H   H23       1.0  0.3519010302339112  0.9784818255901014  0.37178899015602695  1.0000
  H   H24       1.0  0.6480982727016737  0.021521266078806903  0.6282074660148993  1.0000
  H   H25       1.0  0.8747945386961433  0.2580832620832538  0.5848584150248042  1.0000
  H   H26       1.0  0.12520608297668187  0.7419090805611858  0.41514280905344947  1.0000
  H   H27       1.0  0.7415192528448032  0.4624027415838086  0.4848656400099144  1.0000
  H   H28       1.0  0.2584802760789628  0.5375993375892066  0.515144450157983  1.0000
  H   H29       1.0  0.165126334138037  0.4184998659389763  0.24338502684688015  1.0000
  H   H30       1.0  0.8348669183319045  0.5815075476191537  0.7566184436858521  1.0000
  H   H31       1.0  0.31974616188612254  0.209168740751025  0.3320297934930068  1.0000
  H   H32       1.0  0.6802503738989287  0.7908354350785486  0.6679701518664698  1.0000
  Pb  Pb1       1.0  0.24785515661723426  0.537373745139405  0.9256405032615617  1.0000
  Pb  Pb2       1.0  0.7521456570468814  0.46262826983884514  0.0743550023771107  1.0000
  C   C1        1.0  0.783741938939727  0.8743035267155503  0.8966748402968105  1.0000
  C   C2        1.0  0.21625958855136668  0.1257006873036772  0.10332940548502018  1.0000
  C   C3        1.0  0.8038413676643046  0.015409461542752495  0.8740273175854083  1.0000
  C   C4        1.0  0.19615791450450357  0.9845936717243051  0.12597797222566945  1.0000
  C   C5        1.0  0.6672308199334154  0.11540875323098729  0.8472286790865552  1.0000
  C   C6        1.0  0.3327692440338197  0.8845911345576383  0.15277334451467783  1.0000
  C   C7        1.0  0.5090264484583429  0.0783111853424288  0.8429352420608536  1.0000
  C   C8        1.0  0.49097387359118727  0.9216876256622514  0.15706676354802335  1.0000
  C   C9        1.0  0.4889607455094803  0.9384193214750522  0.8682109635049284  1.0000
  C   C10       1.0  0.5110408254105039  0.06157949718622291  0.1317917156804427  1.0000
  C   C11       1.0  0.6251779914282379  0.8369587917168603  0.8950846201243363  1.0000
  C   C12       1.0  0.37482279769331955  0.16304327242283986  0.10492132527087955  1.0000
  C   C13       1.0  0.9350964786845921  0.7645989667946225  0.91702326560614  1.0000
  C   C14       1.0  0.0649050620217295  0.23540522075305156  0.0829753587683228  1.0000
  C   C15       1.0  0.18950675255720742  0.08025094869483239  0.5184316723755201  1.0000
  C   C16       1.0  0.8104938426777294  0.9197467552727049  0.4815638907754332  1.0000
  C   C17       1.0  0.14283500790168796  0.05865176002316732  0.6299054497635623  1.0000
  C   C18       1.0  0.8571651070459935  0.9413427172809036  0.3700917950084274  1.0000
  C   C19       1.0  0.21798040528943124  0.932917001731198  0.6758436224155913  1.0000
  C   C20       1.0  0.7820234638211757  0.06707748341603549  0.3241524308530828  1.0000
  C   C21       1.0  0.3834157713025092  0.8502037996404751  0.5123557141819574  1.0000
  C   C22       1.0  0.616584311543626  0.14979605033165203  0.48763827883732347  1.0000
  C   C23       1.0  0.312420884892127  0.9713339194413495  0.4591352003415422  1.0000
  C   C24       1.0  0.6875789360959387  0.028667014878024595  0.5408604167864792  1.0000
  C   C25       1.0  0.1093033370694485  0.21053188095623906  0.4657360496919835  1.0000
  C   C26       1.0  0.8906937545333024  0.7894647535107923  0.534263899202706  1.0000
  C   C27       1.0  0.9463401669480334  0.2877816823937138  0.5094850861500219  1.0000
  C   C28       1.0  0.05366041507167551  0.7122160480453772  0.49051609840830673  1.0000
  C   C29       1.0  0.870047502305397  0.4034229114685743  0.45332298461024567  1.0000
  C   C30       1.0  0.1299512995761631  0.5965769951350168  0.5466839868218614  1.0000
  C   C31       1.0  0.10556846721249971  0.3784516603411561  0.3191799413653697  1.0000
  C   C32       1.0  0.8944273226514595  0.6215503807354921  0.6808249158402759  1.0000
  C   C33       1.0  0.19093205945984693  0.2605610646956435  0.36905409495614083  1.0000
  C   C34       1.0  0.8090634855370454  0.7394420266934032  0.6309451588344857  1.0000
  S   S1        1.0  0.6909047430373292  0.2963254903182105  0.8255167045914005  1.0000
  S   S2        1.0  0.30909506473550863  0.7036754704727031  0.17448453394398908  1.0000
  N   N1        1.0  0.33793591467399153  0.8298545495451178  0.6190175536838394  1.0000
  N   N2        1.0  0.6620634316904841  0.17014314676583808  0.380977335890627  1.0000
  N   N3        1.0  0.9460460073736813  0.44776183969209166  0.35900968608852674  1.0000
  N   N4        1.0  0.053952022148898514  0.5522412934816784  0.6409965362624559  1.0000
  O   O1        1.0  0.0814006084506005  0.79860536305749  0.902173155181252  1.0000
  O   O2        1.0  0.9186001693361803  0.20140203215211017  0.09782070482110328  1.0000
  O   O3        1.0  0.9138630927274245  0.6375670878184041  0.9442727939517822  1.0000
  O   O4        1.0  0.0861479907493958  0.3624338700304577  0.055719248666314086  1.0000
  O   O5        1.0  0.572073572021594  0.3804996689916109  0.9167367571743908  1.0000
  O   O6        1.0  0.42792274344639475  0.6195001996089005  0.08326404875556648  1.0000
  O   O7        1.0  0.6418392218335285  0.3376856898349914  0.7193394473582869  1.0000
  O   O8        1.0  0.3581620985557236  0.6623141904836203  0.2806600375866565  1.0000
  O   O9        1.0  0.8691296124532712  0.29951918816077244  0.8333967869738143  1.0000
  O   O10       1.0  0.130869458837914  0.700479618968977  0.166605348116768  1.0000
  O   O11       1.0  0.42907656591791005  0.6119905131699568  0.75609114388628  1.0000
  O   O12       1.0  0.5709282524398561  0.3880104479941125  0.24390636448951136  1.0000
  O   O13       1.0  0.18490666898737368  0.3729355088637406  0.7863567174090489  1.0000
  O   O14       1.0  0.8150914115156525  0.6270622138254752  0.2136447261126832  1.0000
