data_image0
_chemical_formula_structural       Mn2H30C46N4O10
_chemical_formula_sum              "Mn2 H30 C46 N4 O10"
_cell_length_a       9.679270554377702
_cell_length_b       10.57919924650999
_cell_length_c       10.874982947870517
_cell_angle_alpha    105.21658735235802
_cell_angle_beta     111.72013589296671
_cell_angle_gamma    107.17359722877

_space_group_name_H-M_alt    "P 1"
_space_group_IT_number       1

loop_
  _space_group_symop_operation_xyz
  'x, y, z'

loop_
  _atom_site_type_symbol
  _atom_site_label
  _atom_site_symmetry_multiplicity
  _atom_site_fract_x
  _atom_site_fract_y
  _atom_site_fract_z
  _atom_site_occupancy
  Mn  Mn1       1.0  0.1483385563178459  0.02475461795702929  0.16669077590360357  1.0000
  Mn  Mn2       1.0  0.8516571974745017  0.9752462006223866  0.8333062295635257  1.0000
  H   H1        1.0  0.6520630244495322  0.8546617792891239  0.05707072153879275  1.0000
  H   H2        1.0  0.3479265956923356  0.145337929285553  0.9429203288349297  1.0000
  H   H3        1.0  0.8808927292118368  0.2927930201661794  0.030015097482724587  1.0000
  H   H4        1.0  0.11909752577120253  0.707199046476333  0.9699723906391923  1.0000
  H   H5        1.0  0.027704049454271608  0.5569163110174243  0.10706675696617642  1.0000
  H   H6        1.0  0.9722962081815396  0.4430779466538508  0.8929272990412613  1.0000
  H   H7        1.0  0.4919359965760607  0.3588859192805671  0.09980715048993724  1.0000
  H   H8        1.0  0.50806196155564  0.6411170836343415  0.9001920436590111  1.0000
  H   H9        1.0  0.6405540845051334  0.6223914582340271  0.1739431548884056  1.0000
  H   H10       1.0  0.359454429256111  0.3776126331883418  0.8260606695977726  1.0000
  H   H11       1.0  0.3332623517724541  0.8253985832010071  0.24396466765995228  1.0000
  H   H12       1.0  0.6667305571067887  0.17460548872261233  0.7560294746220108  1.0000
  H   H13       1.0  0.627822974504582  0.863012104756585  0.3867478327730963  1.0000
  H   H14       1.0  0.3721634832501977  0.1369811340120179  0.6132506696864866  1.0000
  H   H15       1.0  0.8567047030624622  0.11269514359526768  0.506186009632678  1.0000
  H   H16       1.0  0.14329512473684478  0.8872937077475027  0.49381297820367104  1.0000
  H   H17       1.0  0.9439135123476774  0.3818241547191333  0.5700439226623002  1.0000
  H   H18       1.0  0.05608795603642848  0.6181701755084745  0.42996158056565287  1.0000
  H   H19       1.0  0.8691393670927993  0.5806838865802602  0.546517580671562  1.0000
  H   H20       1.0  0.13086761592357013  0.41931260727572806  0.45348842482345464  1.0000
  H   H21       1.0  0.6508877189187598  0.6617646779090831  0.4345327530436902  1.0000
  H   H22       1.0  0.3491252225541359  0.3382415962684533  0.5654739834414642  1.0000
  H   H23       1.0  0.35305668672342694  0.5903957483110814  0.2630828038494002  1.0000
  H   H24       1.0  0.6469562464942911  0.40961051975423857  0.7369230088389215  1.0000
  H   H25       1.0  0.14954582992658058  0.3271993481072641  0.13902373344709673  1.0000
  H   H26       1.0  0.8504615398151927  0.6728113201893676  0.8609868968649934  1.0000
  H   H27       1.0  0.08456208342767009  0.16796092610714908  0.3530093382529741  1.0000
  H   H28       1.0  0.9154287334747263  0.8320366446591975  0.6469879987892851  1.0000
  H   H29       1.0  0.05680787658882741  0.015271717812083798  0.3559037497350984  1.0000
  H   H30       1.0  0.9431962094607657  0.9847301908551102  0.6440971627521036  1.0000
  C   C1        1.0  0.8568197232180594  0.1178789240630636  0.13654357830495198  1.0000
  C   C2        1.0  0.1431732815133344  0.8821208188143644  0.8634540998254678  1.0000
  C   C3        1.0  0.6722520575650038  0.06167054718368801  0.059521771869555117  1.0000
  C   C4        1.0  0.3277348135159101  0.9383280856890008  0.9404699511674577  1.0000
  C   C5        1.0  0.5825509770177673  0.916314046329283  0.027894562206945653  1.0000
  C   C6        1.0  0.4174408557186311  0.08368785269309598  0.9720996006454283  1.0000
  C   C7        1.0  0.59006675971969  0.14973883468528018  0.032074494884845615  1.0000
  C   C8        1.0  0.4099250920496615  0.8502608784212738  0.9679182026028598  1.0000
  C   C9        1.0  0.6765372778721287  0.30476936681419187  0.0643655236290286  1.0000
  C   C10       1.0  0.32345684106800826  0.695228177132833  0.9356292032016497  1.0000
  C   C11       1.0  0.8274393804255168  0.3633938531030338  0.0641830371877035  1.0000
  C   C12       1.0  0.17255475754757285  0.6366015049281655  0.935810224278306  1.0000
  C   C13       1.0  0.9094660232755984  0.5119321810034521  0.10442293267996655  1.0000
  C   C14       1.0  0.09053366235047378  0.4880653651049585  0.8955745262404234  1.0000
  C   C15       1.0  0.6093097448395711  0.40073015873631584  0.10034537385581643  1.0000
  C   C16       1.0  0.3906904284092505  0.5992728364860581  0.8996536198134562  1.0000
  C   C17       1.0  0.6920690245411051  0.5491428546645593  0.14197274359543144  1.0000
  C   C18       1.0  0.3079350697636656  0.45085906011484417  0.8580290926886036  1.0000
  C   C19       1.0  0.8438730525509824  0.6069591029256856  0.1451579925109597  1.0000
  C   C20       1.0  0.1561332924142249  0.3930406304697697  0.8548440255223893  1.0000
  C   C21       1.0  0.9346782211025157  0.7676945549835493  0.1945878903074671  1.0000
  C   C22       1.0  0.06532923807143477  0.23230297948150277  0.8054111764261336  1.0000
  C   C23       1.0  0.4379859617341565  0.9326672468444455  0.29738477208690023  1.0000
  C   C24       1.0  0.5620064487445545  0.06733356799325207  0.7026102246076673  1.0000
  C   C25       1.0  0.6011377464486855  0.9538907364772554  0.3768876381840016  1.0000
  C   C26       1.0  0.39884981473705494  0.04610249538897189  0.6231103021373342  1.0000
  C   C27       1.0  0.7285308530945969  0.09277695626109758  0.44420619481250145  1.0000
  C   C28       1.0  0.271463378208054  0.907216270864147  0.5557939154602991  1.0000
  C   C29       1.0  0.6920233588852155  0.21032391146459867  0.43270142012159585  1.0000
  C   C30       1.0  0.3079763382060249  0.7896780431487114  0.5673045123091  1.0000
  C   C31       1.0  0.8154634190959698  0.3582377853034373  0.5031461701281613  1.0000
  C   C32       1.0  0.18454351759932303  0.6417630742719991  0.4968618422993599  1.0000
  C   C33       1.0  0.7741152668605195  0.4684054014431565  0.4888800112364604  1.0000
  C   C34       1.0  0.22589223106673015  0.5315943617231723  0.5111269874396099  1.0000
  C   C35       1.0  0.6064122117829953  0.43873732311428887  0.39936397589166717  1.0000
  C   C36       1.0  0.3935952340905899  0.5612646015190349  0.6006407929617551  1.0000
  C   C37       1.0  0.558078954027593  0.5482356306376132  0.37763245167245424  1.0000
  C   C38       1.0  0.44193235259309926  0.4517673689075323  0.6223720061762492  1.0000
  C   C39       1.0  0.39461281143957183  0.5093067516206345  0.28384378654929776  1.0000
  C   C40       1.0  0.6053962362655059  0.49069842319624973  0.7161595657532587  1.0000
  C   C41       1.0  0.279133754567212  0.3620197700980866  0.21440885896959824  1.0000
  C   C42       1.0  0.7208752798375001  0.6379897948870761  0.7856001954527797  1.0000
  C   C43       1.0  0.4810695589419893  0.2931471423219847  0.3263965248341306  1.0000
  C   C44       1.0  0.5189367644676677  0.7068569751295397  0.6736102715222072  1.0000
  C   C45       1.0  0.5238847787010528  0.17779721058836626  0.34655911350176166  1.0000
  C   C46       1.0  0.476118220427928  0.8222047172056219  0.6534442087173459  1.0000
  N   N1        1.0  0.40026059914712414  0.040610309876491585  0.28074766180480987  1.0000
  N   N2        1.0  0.5997395848794723  0.959390493317848  0.7192489427029684  1.0000
  N   N3        1.0  0.3204871203857778  0.2571471869682894  0.2361261887037713  1.0000
  N   N4        1.0  0.6795203039322573  0.7428591217211035  0.7638833584726397  1.0000
  O   O1        1.0  0.9205266940583741  0.056558478351234995  0.06671764043831978  1.0000
  O   O2        1.0  0.07946351208099146  0.9434401521509628  0.9332751675744292  1.0000
  O   O3        1.0  0.938512293258661  0.2131978378533788  0.26509504895560093  1.0000
  O   O4        1.0  0.061479654362841356  0.7867975462069833  0.7349011843805682  1.0000
  O   O5        1.0  0.03422441522410218  0.8100838661270089  0.14560817107452814  1.0000
  O   O6        1.0  0.9657780632614175  0.1899125881041783  0.854389921208387  1.0000
  O   O7        1.0  0.9092744968156481  0.8511951505950603  0.2819511674803009  1.0000
  O   O8        1.0  0.0907335128124913  0.14880347948892583  0.7180492746633362  1.0000
  O   O9        1.0  0.1470500062114937  0.10976187542386376  0.3771379277765732  1.0000
  O   O10       1.0  0.8529435927725758  0.8902367954933013  0.6228624317897057  1.0000
