data_image0
_chemical_formula_structural       Zn4H46C50N10O26
_chemical_formula_sum              "Zn4 H46 C50 N10 O26"
_cell_length_a       7.43531340936924
_cell_length_b       14.196117350158682
_cell_length_c       16.18022702597355
_cell_angle_alpha    73.93582491285818
_cell_angle_beta     76.70815484766369
_cell_angle_gamma    74.81952719946871

_space_group_name_H-M_alt    "P 1"
_space_group_IT_number       1

loop_
  _space_group_symop_operation_xyz
  'x, y, z'

loop_
  _atom_site_type_symbol
  _atom_site_label
  _atom_site_symmetry_multiplicity
  _atom_site_fract_x
  _atom_site_fract_y
  _atom_site_fract_z
  _atom_site_occupancy
  Zn  Zn1       1.0  0.8757464404556142  0.9806320368603142  0.17559883595983186  1.0000
  Zn  Zn2       1.0  0.9676537055303952  0.480584744585812  0.6755312339650318  1.0000
  Zn  Zn3       1.0  0.617224079793324  0.18486405221931082  0.6725952057142095  1.0000
  Zn  Zn4       1.0  0.525475376512418  0.6848013537616213  0.1725674386559035  1.0000
  H   H1        1.0  0.5625808145721151  0.9578667066824526  0.25526431444558273  1.0000
  H   H2        1.0  0.2241325039940706  0.45765460252277296  0.7552397133801989  1.0000
  H   H3        1.0  0.5094945737655647  0.02695223914726341  0.1612147947758942  1.0000
  H   H4        1.0  0.30203981931688856  0.5268776438576311  0.6611962494951413  1.0000
  H   H5        1.0  0.03431166876928405  0.8588769738473234  0.06910003270066054  1.0000
  H   H6        1.0  0.03799835660586128  0.3587301124275444  0.5690628802142683  1.0000
  H   H7        1.0  0.8694511619015014  0.8111734217743919  0.1344424296752607  1.0000
  H   H8        1.0  0.18481850153038698  0.31112490351317484  0.6345955954260631  1.0000
  H   H9        1.0  0.9837354036929468  0.14054033966706922  0.6895400792882853  1.0000
  H   H10       1.0  0.18629801908559068  0.6406574295352315  0.18949028526977682  1.0000
  H   H11       1.0  0.9295474651064449  0.21198821427444164  0.596292749604217  1.0000
  H   H12       1.0  0.26235426025967706  0.7120990066917587  0.09623479560367798  1.0000
  H   H13       1.0  0.4557267229012184  0.3112338023762007  0.7757009456750696  1.0000
  H   H14       1.0  0.45725871207179125  0.8112925884745865  0.27565922284726696  1.0000
  H   H15       1.0  0.6197197271918997  0.359168591218456  0.7086398503864828  1.0000
  H   H16       1.0  0.3123651309693898  0.8590763564864049  0.20862161738892837  1.0000
  H   H17       1.0  0.23022011131644146  0.14200032390286313  0.44781908625663663  1.0000
  H   H18       1.0  0.18004134779628317  0.6421492647202953  0.9479033387045279  1.0000
  H   H19       1.0  0.7290947450079274  0.26549519954870254  0.8937889474694174  1.0000
  H   H20       1.0  0.11108926454622274  0.7653787905304769  0.3936112165858034  1.0000
  H   H21       1.0  0.6457733140396655  0.1360717058221041  0.02998055872792089  1.0000
  H   H22       1.0  0.18771111100622334  0.6359814046275858  0.5298128437853505  1.0000
  H   H23       1.0  0.2902248853634645  0.1993710355969469  0.9551612583941846  1.0000
  H   H24       1.0  0.5543834191642105  0.6995515467892874  0.4552650411664558  1.0000
  H   H25       1.0  0.754016581481039  0.909666368007493  0.9619146714112504  1.0000
  H   H26       1.0  0.37452624387080385  0.40937566766839245  0.46200089568601754  1.0000
  H   H27       1.0  0.837336421513946  0.04239787630762491  0.8269072718709013  1.0000
  H   H28       1.0  0.29328131192956863  0.5421502238724187  0.3270359137292118  1.0000
  H   H29       1.0  0.203393350409435  0.9666983954538397  0.8920488643893238  1.0000
  H   H30       1.0  0.9377489627257627  0.4668042373256754  0.39204515808889784  1.0000
  H   H31       1.0  0.840042659786839  0.9730295511765236  0.6369814871644904  1.0000
  H   H32       1.0  0.5502102317963133  0.472761316749157  0.13690189371149583  1.0000
  H   H33       1.0  0.7927611771551994  0.8421002142880031  0.5707473000991783  1.0000
  H   H34       1.0  0.794991066591045  0.34196329871017644  0.07066234465536779  1.0000
  H   H35       1.0  0.5196348425068107  0.8833953098097996  0.48996546895097026  1.0000
  H   H36       1.0  0.10764329383367494  0.38340667708973797  0.989973870972733  1.0000
  H   H37       1.0  0.3818523884858889  0.17785307749820595  0.5436632349789932  1.0000
  H   H38       1.0  0.8965858587213943  0.6778239871631585  0.043709374005537406  1.0000
  H   H39       1.0  0.9282203309734101  0.1948681292705672  0.4456986561824152  1.0000
  H   H40       1.0  0.4321747696165591  0.6950427804742108  0.9456614767435312  1.0000
  H   H41       1.0  0.6861011875180978  0.2731554563903985  0.3481258949597787  1.0000
  H   H42       1.0  0.6939830048331357  0.7730811239641897  0.847916035538013  1.0000
  H   H43       1.0  0.6667647584098046  0.18327267368323424  0.2372873885328914  1.0000
  H   H44       1.0  0.913360230072797  0.6830079687256544  0.7369934589400273  1.0000
  H   H45       1.0  0.10458058382518945  0.9499446414252407  0.3156712480501653  1.0000
  H   H46       1.0  0.6298388354572564  0.4498948103973108  0.8159312517957105  1.0000
  C   C1        1.0  0.07133887867838944  0.32256543077876654  0.8358865760943531  1.0000
  C   C2        1.0  0.7697598025557608  0.8226989967809647  0.33591881957933367  1.0000
  C   C3        1.0  0.01605005647442671  0.2427173683482238  0.9147172604177032  1.0000
  C   C4        1.0  0.8258661043720179  0.7427541413813402  0.4147115314368008  1.0000
  C   C5        1.0  0.8334038604085662  0.22405225193159597  0.9355030678333948  1.0000
  C   C6        1.0  0.006481896893951928  0.7239629751293893  0.4353992308836183  1.0000
  C   C7        1.0  0.7876343585357615  0.15152241022722993  0.010226929173533962  1.0000
  C   C8        1.0  0.05009664092033004  0.651446801764614  0.5101089227231199  1.0000
  C   C9        1.0  0.0935122605519396  0.111969676468668  0.0398406615046554  1.0000
  C   C10       1.0  0.7540001791663398  0.6120359978325994  0.5398245731521315  1.0000
  C   C11       1.0  0.1472231389400562  0.18647961220895581  0.9686952735045153  1.0000
  C   C12       1.0  0.6968208685409324  0.6866116503881374  0.4687274057512311  1.0000
  C   C13       1.0  0.23550976116991515  0.04244374305687871  0.09510126932076453  1.0000
  C   C14       1.0  0.6262262754872336  0.5425390159700643  0.5950973662583579  1.0000
  C   C15       1.0  0.42462384728310804  0.8416310696485141  0.010135254355091676  1.0000
  C   C16       1.0  0.7237204441718317  0.34150624338816743  0.510158564173274  1.0000
  C   C17       1.0  0.47499546775090784  0.9258060694484275  0.9346925257739542  1.0000
  C   C18       1.0  0.6645617437810856  0.4256770355967704  0.4347324281248888  1.0000
  C   C19       1.0  0.6537589828936488  0.9488530340917906  0.9175144376858526  1.0000
  C   C20       1.0  0.47992395434592766  0.4486344954847681  0.41758801273245894  1.0000
  C   C21       1.0  0.6984018832069764  0.02326259964360841  0.8442390648293809  1.0000
  C   C22       1.0  0.43401077940257693  0.5230859980371748  0.34435710369202605  1.0000
  C   C23       1.0  0.3973853301433932  0.05722539609001842  0.8102305804035197  1.0000
  C   C24       1.0  0.7349537363788842  0.5572380109232213  0.3103073720758616  1.0000
  C   C25       1.0  0.34475653043612897  0.9812113055814535  0.8801638611430888  1.0000
  C   C26       1.0  0.7937358927140605  0.4812244363549497  0.3802191902917898  1.0000
  C   C27       1.0  0.25676015122351004  0.12467526069453783  0.7532234506005508  1.0000
  C   C28       1.0  0.8652472117539101  0.624724209251113  0.2532772581681186  1.0000
  C   C29       1.0  0.7244040356465785  0.9872560731983814  0.6011512701341244  1.0000
  C   C30       1.0  0.6874594314111563  0.4870745327911339  0.10113163708864187  1.0000
  C   C31       1.0  0.6964210019737817  0.9152369932641947  0.5645675806996948  1.0000
  C   C32       1.0  0.8242495335207706  0.4151239486155662  0.06452615505628498  1.0000
  C   C33       1.0  0.546642530094914  0.9374770650437018  0.5192359878225331  1.0000
  C   C34       1.0  0.9971499483781937  0.4374464971326689  0.019247023739502756  1.0000
  C   C35       1.0  0.43014611954991006  0.033834819511788815  0.5104602576260078  1.0000
  C   C36       1.0  0.02578040196060988  0.5338480196550537  0.010520137409002872  1.0000
  C   C37       1.0  0.46918279266849783  0.1021858726324254  0.5484596227738195  1.0000
  C   C38       1.0  0.880181630733759  0.6021312336287181  0.0485209354399245  1.0000
  C   C39       1.0  0.18320651824770098  0.007983132000745703  0.4431260583368584  1.0000
  C   C40       1.0  0.36597059164468254  0.5081750071756518  0.9432915389930371  1.0000
  C   C41       1.0  0.0361237252455453  0.06566285353454761  0.3878842176151949  1.0000
  C   C42       1.0  0.5108186736232907  0.565801913926933  0.8879935060194055  1.0000
  C   C43       1.0  0.9183910956625208  0.15824130248310553  0.3963642045720945  1.0000
  C   C44       1.0  0.5279219284574307  0.6583523526926032  0.8963502225339824  1.0000
  C   C45       1.0  0.7828011236614072  0.20206896284954473  0.3421940346107562  1.0000
  C   C46       1.0  0.6739840943531231  0.7020201766495762  0.8420593548504698  1.0000
  C   C47       1.0  0.771882236675843  0.15310585313955732  0.28039712241110953  1.0000
  C   C48       1.0  0.7952651506953216  0.6529590450219802  0.7802132069518564  1.0000
  C   C49       1.0  0.01547192724102322  0.022027954956492096  0.3240203407533074  1.0000
  C   C50       1.0  0.6387494174759213  0.5219982317149673  0.8241550854786085  1.0000
  N   N1        1.0  0.9158923381142399  0.09603238015377263  0.060911242507444265  1.0000
  N   N2        1.0  0.926544802770678  0.5960330037690442  0.5608466758500299  1.0000
  N   N3        1.0  0.5725293469960705  0.0758753153321905  0.7915624180045313  1.0000
  N   N4        1.0  0.5598759215537539  0.5757797504940003  0.2916462145254428  1.0000
  N   N5        1.0  0.6108139587317041  0.07895387799654693  0.5935805197302244  1.0000
  N   N6        1.0  0.7166646382117108  0.5788306005664128  0.09360337255351674  1.0000
  N   N7        1.0  0.2796142703660321  0.06659428467661851  0.46395204598745476  1.0000
  N   N8        1.0  0.19004549475362573  0.5667366993976161  0.9640565119833155  1.0000
  N   N9        1.0  0.8880879398413835  0.06526537401254731  0.2708058958654505  1.0000
  N   N10       1.0  0.7761297915436033  0.5651246295921271  0.7707758443004309  1.0000
  O   O1        1.0  0.1818771229824563  0.9665244636944198  0.15001756728450738  1.0000
  O   O2        1.0  0.7007759845488266  0.466681689945837  0.6500835771798846  1.0000
  O   O3        1.0  0.3955337830729206  0.06321294659910853  0.08182823411075899  1.0000
  O   O4        1.0  0.4587883775347166  0.5632594251486368  0.5817654091819335  1.0000
  O   O5        1.0  0.22510576618648762  0.34914597435815864  0.8307482086011932  1.0000
  O   O6        1.0  0.5946018633497304  0.8494040666535982  0.33070412818229045  1.0000
  O   O7        1.0  0.9564986968063348  0.3574569128827535  0.7823704841838364  1.0000
  O   O8        1.0  0.9033608503918344  0.8576229469973314  0.2825083322663531  1.0000
  O   O9        1.0  0.5835198604510267  0.0192428747824778  0.20865805415758126  1.0000
  O   O10       1.0  0.18833438959001092  0.5190507108234855  0.7086795913109611  1.0000
  O   O11       1.0  0.9003494011132105  0.8753151819194687  0.09689876858479346  1.0000
  O   O12       1.0  0.12735410047354634  0.37524259736110116  0.5970048194264947  1.0000
  O   O13       1.0  0.3105063569475843  0.19910347402757378  0.6963443432901428  1.0000
  O   O14       1.0  0.7940238006179497  0.6990668028301743  0.19630559456852126  1.0000
  O   O15       1.0  0.09729230310557546  0.10283968091427202  0.7673236319948203  1.0000
  O   O16       1.0  0.03236887958320992  0.6029791356881662  0.26743109647476615  1.0000
  O   O17       1.0  0.2666176633739282  0.8178161882545895  0.016955094514720805  1.0000
  O   O18       1.0  0.898737084004466  0.3176805731016686  0.5169486136543783  1.0000
  O   O19       1.0  0.5481413797479746  0.7987404292954282  0.05850040998174676  1.0000
  O   O20       1.0  0.5947127511697943  0.2986434786173931  0.558575445505646  1.0000
  O   O21       1.0  0.9102417303009459  0.14952803130461945  0.641326988067739  1.0000
  O   O22       1.0  0.2990014615815325  0.6496073520456989  0.1412573735855389  1.0000
  O   O23       1.0  0.5874118856111106  0.2946863664913196  0.7449895633422443  1.0000
  O   O24       1.0  0.37297749965627935  0.7946412581445944  0.24494945980784166  1.0000
  O   O25       1.0  0.21572147802476138  0.9155874680580569  0.46523038916650705  1.0000
  O   O26       1.0  0.4037761190263747  0.41579584426820304  0.9654584463271335  1.0000
