data_image0
_chemical_formula_structural       Zn2H32C51N4O8
_chemical_formula_sum              "Zn2 H32 C51 N4 O8"
_cell_length_a       14.706084293570663
_cell_length_b       15.802733804032682
_cell_length_c       16.036662540400947
_cell_angle_alpha    89.52385509015289
_cell_angle_beta     106.70434986205177
_cell_angle_gamma    99.18289016893056

_space_group_name_H-M_alt    "P 1"
_space_group_IT_number       1

loop_
  _space_group_symop_operation_xyz
  'x, y, z'

loop_
  _atom_site_type_symbol
  _atom_site_label
  _atom_site_symmetry_multiplicity
  _atom_site_fract_x
  _atom_site_fract_y
  _atom_site_fract_z
  _atom_site_occupancy
  Zn  Zn1       1.0  0.5970995407830628  0.48443108456604017  0.5261616692771582  1.0000
  Zn  Zn2       1.0  0.4041379581224903  0.5141354452289518  0.47676457754952384  1.0000
  H   H1        1.0  0.6167599128186937  0.6063301833318845  0.9551108818887002  1.0000
  H   H2        1.0  0.7372267566586007  0.7457958803609445  0.4814185149661085  1.0000
  H   H3        1.0  0.6184368580089413  0.6103646224297845  0.10151507506466113  1.0000
  H   H4        1.0  0.6123657155397312  0.1398299981806588  0.43223265636805047  1.0000
  H   H5        1.0  0.3490732017274142  0.8500148095247723  0.4447379204837815  1.0000
  H   H6        1.0  0.19269810216220415  0.09092471863108638  0.4349162340907  1.0000
  H   H7        1.0  0.9802757572398096  0.6750297764613009  0.3529875520450005  1.0000
  H   H8        1.0  0.7677287296522197  0.5378032927785341  0.4743724368319561  1.0000
  H   H9        1.0  0.6928107750119922  0.346821043671774  0.6302474677418957  1.0000
  H   H10       1.0  0.023763746995115298  0.32716425983733183  0.6526045009670227  1.0000
  H   H11       1.0  0.14733081012136046  0.69855557781554  0.3361525119326246  1.0000
  H   H12       1.0  0.6551687565963392  0.5088850197793134  0.11507666010805905  1.0000
  H   H13       1.0  0.3090749384406807  0.6513913512051275  0.37113989430798  1.0000
  H   H14       1.0  0.2377558839369271  0.46756476058541796  0.5353014436576444  1.0000
  H   H15       1.0  0.8610292914711978  0.5967459475769842  0.41672164447309257  1.0000
  H   H16       1.0  0.14357401421837326  0.40691335430731346  0.59050040771902  1.0000
  H   H17       1.0  0.855776959585029  0.3016129370486524  0.667137444892326  1.0000
  H   H18       1.0  0.45143863793820327  0.6243228739411817  0.050346816954657876  1.0000
  H   H19       1.0  0.4332252631652054  0.6117943007996441  0.902134947489593  1.0000
  H   H20       1.0  0.3520599872609794  0.5149503634164531  0.891392812302513  1.0000
  H   H21       1.0  0.5277423524188407  0.37284179315776805  0.0891223574584998  1.0000
  H   H22       1.0  0.4050632617787784  0.38177545551549497  0.05245870777388716  1.0000
  H   H23       1.0  0.6558954404725273  0.5058846292053473  0.9690453480118749  1.0000
  H   H24       1.0  0.5351655591906807  0.36934744429069605  0.9450048584639674  1.0000
  H   H25       1.0  0.32915813665876936  0.5375842684307982  0.09856620011724  1.0000
  H   H26       1.0  0.29665227972214586  0.47558276069594996  0.009571288460598714  1.0000
  H   H27       1.0  0.4107259309091307  0.37299699998192176  0.9082420689609307  1.0000
  H   H28       1.0  0.7253572635465633  0.04163597947376729  0.42982089624364045  1.0000
  H   H29       1.0  0.5336369986102555  0.2179206316328005  0.46840505778152414  1.0000
  H   H30       1.0  0.24540506524162714  0.25030505595521646  0.4479401653270898  1.0000
  H   H31       1.0  0.23120052758606852  0.9452108270470062  0.4286762028716282  1.0000
  H   H32       1.0  0.7720520237218697  0.9013451478315346  0.44960062447368204  1.0000
  C   C1        1.0  0.580435297256372  0.6610010113854797  0.5150584579616719  1.0000
  C   C2        1.0  0.3934764254163383  0.24150422315592118  0.459567703036079  1.0000
  C   C3        1.0  0.7040656257118771  0.8743023651664713  0.4616306473026698  1.0000
  C   C4        1.0  0.49672642324586747  0.5094466859164298  0.3376419583109751  1.0000
  C   C5        1.0  0.6859329405161393  0.7889171489333934  0.4799366457266316  1.0000
  C   C6        1.0  0.5321274312044225  0.8086775914757637  0.49909971770854616  1.0000
  C   C7        1.0  0.5449147267650646  0.8953863824593921  0.471876137041896  1.0000
  C   C8        1.0  0.6355330976891055  0.9287804562773091  0.4577785982162581  1.0000
  C   C9        1.0  0.4728813777729287  0.9510174334954724  0.4591069754346364  1.0000
  C   C10       1.0  0.5002111506141348  0.04058173404648358  0.4518567312299169  1.0000
  C   C11       1.0  0.5932242401364649  0.07194506621375038  0.4427261816240886  1.0000
  C   C12       1.0  0.6008188268862115  0.5414807628860245  0.9780098108430907  1.0000
  C   C13       1.0  0.6565229477090286  0.017569716617664696  0.4416359083706496  1.0000
  C   C14       1.0  0.37343027093595543  0.9187392765726514  0.4477794015089813  1.0000
  C   C15       1.0  0.3067986083191699  0.9721521605589771  0.4384795538734494  1.0000
  C   C16       1.0  0.4270927783412333  0.3362832434959769  0.4735962620847616  1.0000
  C   C17       1.0  0.334207336873263  0.0628863401906301  0.44318163178724035  1.0000
  C   C18       1.0  0.43210685514664254  0.09790666778336289  0.450253863718082  1.0000
  C   C19       1.0  0.26736592696593686  0.11883679610774318  0.4412528447884725  1.0000
  C   C20       1.0  0.29593595348692503  0.2065891988951023  0.448747189247662  1.0000
  C   C21       1.0  0.4593238598009536  0.18783461512801836  0.45905650930626507  1.0000
  C   C22       1.0  0.1640306594756709  0.6465258660708102  0.3801950690967216  1.0000
  C   C23       1.0  0.5012093608142366  0.4975419875859472  0.919766812602795  1.0000
  C   C24       1.0  0.2529402753393626  0.62147473503407  0.39894099053230303  1.0000
  C   C25       1.0  0.21227645002674222  0.5171074017305344  0.4911574529400795  1.0000
  C   C26       1.0  0.11886145925380728  0.5367684172520341  0.4756634842086456  1.0000
  C   C27       1.0  0.09397551422244282  0.6037637409758573  0.4174463149041401  1.0000
  C   C28       1.0  0.5012289541254803  0.4920758750216122  0.66337460582573  1.0000
  C   C29       1.0  0.04908014510694159  0.49087358441813916  0.5144813659303296  1.0000
  C   C30       1.0  0.9556397694063252  0.5130089388494169  0.49306513835547616  1.0000
  C   C31       1.0  0.933054864345735  0.580156235056286  0.4341200187914751  1.0000
  C   C32       1.0  0.9993813631352426  0.6241882839014464  0.3979773926821792  1.0000
  C   C33       1.0  0.0715295865646866  0.4234076407818676  0.5730445472270206  1.0000
  C   C34       1.0  0.47957449016235654  0.4056290958493988  0.9515474380877365  1.0000
  C   C35       1.0  0.004851906113671577  0.37854503429434044  0.6082782138318947  1.0000
  C   C36       1.0  0.910163575552005  0.3987164389215891  0.5885274136566352  1.0000
  C   C37       1.0  0.8856877436595384  0.4667061273990001  0.5314649885487909  1.0000
  C   C38       1.0  0.8393252529572524  0.35436419724616997  0.6240148618463621  1.0000
  C   C39       1.0  0.7499268555936993  0.37857706875627867  0.6045446329627282  1.0000
  C   C40       1.0  0.6009358219105537  0.5440992072335573  0.07437509808728744  1.0000
  C   C41       1.0  0.7922538524958757  0.48632710889896896  0.5161771365059735  1.0000
  C   C42       1.0  0.4248471261795005  0.5571391155371329  0.02640038346864063  1.0000
  C   C43       1.0  0.42308283850196204  0.5484452779344052  0.9299016853379527  1.0000
  C   C44       1.0  0.5023945156782689  0.4914178082242699  0.753860061696031  1.0000
  C   C45       1.0  0.4764139267913309  0.4097326336433155  0.04697108202118017  1.0000
  C   C46       1.0  0.5008666380154807  0.503968296288029  0.08261001650469518  1.0000
  C   C47       1.0  0.45569278020406767  0.778653818588559  0.5362430723757896  1.0000
  C   C48       1.0  0.5013444827787765  0.4936885907622965  0.8293447278093353  1.0000
  C   C49       1.0  0.5003774826646606  0.5070311184863314  0.17275214411711204  1.0000
  C   C50       1.0  0.49791231260057606  0.5097917257500697  0.24781350725535128  1.0000
  C   C51       1.0  0.6002957805272902  0.7552761348559683  0.49947791508817824  1.0000
  N   N1        1.0  0.2758049480684549  0.5568561610450828  0.453383566155253  1.0000
  N   N2        1.0  0.7276804550036291  0.44458105177151447  0.5517255389626854  1.0000
  N   N3        1.0  0.39616950170675846  0.7611424511783653  0.5715572319485461  1.0000
  N   N4        1.0  0.3276707956483662  0.5361025381734947  0.034429752082075986  1.0000
  O   O1        1.0  0.6495999250888717  0.6185983880754619  0.5313920687401748  1.0000
  O   O2        1.0  0.4927853227069009  0.630381582764187  0.5064543528669034  1.0000
  O   O3        1.0  0.573245321812692  0.4945393022993229  0.3934975682634274  1.0000
  O   O4        1.0  0.41984930923413805  0.5235527701796837  0.3525669612998072  1.0000
  O   O5        1.0  0.5175859951963631  0.3614269870725337  0.5022824107628238  1.0000
  O   O6        1.0  0.3626340634888552  0.384286406405309  0.4561194298732048  1.0000
  O   O7        1.0  0.5811575440821743  0.48976772955244036  0.6476225738340133  1.0000
  O   O8        1.0  0.4204687770769624  0.4952751959763971  0.6077104632819542  1.0000
