data_image0
_chemical_formula_structural       Zr6H4C24O32
_chemical_formula_sum              "Zr6 H4 C24 O32"
_cell_length_a       13.0775855673095
_cell_length_b       13.075517787916704
_cell_length_c       13.077594284656502
_cell_angle_alpha    59.99895100345116
_cell_angle_beta     89.99911939841924
_cell_angle_gamma    120.00642302464817

_space_group_name_H-M_alt    "P 1"
_space_group_IT_number       1

loop_
  _space_group_symop_operation_xyz
  'x, y, z'

loop_
  _atom_site_type_symbol
  _atom_site_label
  _atom_site_symmetry_multiplicity
  _atom_site_fract_x
  _atom_site_fract_y
  _atom_site_fract_z
  _atom_site_occupancy
  Zr  Zr1       1.0  0.86089734970826  0.7244108932313937  0.13683363634559234  1.0000
  Zr  Zr2       1.0  0.1319327469081199  0.9954506401835489  0.8657668396339631  1.0000
  Zr  Zr3       1.0  0.8608946794097674  0.9955072224445163  0.13685176605192598  1.0000
  Zr  Zr4       1.0  0.8608956669793314  0.9955137076523287  0.8657557558240399  1.0000
  Zr  Zr5       1.0  0.13197017877771314  0.9955367056766207  0.13682061592033518  1.0000
  Zr  Zr6       1.0  0.13201537066434804  0.26663592341749626  0.8657250391641753  1.0000
  H   H1        1.0  0.8897337372207091  0.7821587480526881  0.8946095578216527  1.0000
  H   H2        1.0  0.8897012997565095  0.7820859080730643  0.3213539466500491  1.0000
  H   H3        1.0  0.8897378999941948  0.20894527658479933  0.8945471882350663  1.0000
  H   H4        1.0  0.3165860018865271  0.20898161947433627  0.8945301112593926  1.0000
  C   C1        1.0  0.6486340749621387  0.652345310832402  0.3395216699137151  1.0000
  C   C2        1.0  0.0010271698268196727  0.6524833963980258  0.005964516272108294  1.0000
  C   C3        1.0  0.6488984753667068  0.6524742729147378  0.006044869140381966  1.0000
  C   C4        1.0  0.0011057886438122302  0.6524982246034767  0.3395096998512415  1.0000
  C   C5        1.0  0.33454200638445286  0.33829792019322735  0.6535989669428091  1.0000
  C   C6        1.0  0.0013103606480768402  0.33858084696779406  0.00593266752656523  1.0000
  C   C7        1.0  0.0011281171679370602  0.00480258563995038  0.6536346065170877  1.0000
  C   C8        1.0  0.33453020435766223  0.9858005088959703  0.006161636775580415  1.0000
  C   C9        1.0  0.001148781427836776  0.004959018192487001  0.33951644502754164  1.0000
  C   C10       1.0  0.648625900024079  0.985841700660828  0.006329384135604228  1.0000
  C   C11       1.0  0.0011509822151651338  0.3384101824121899  0.6535472400921593  1.0000
  C   C12       1.0  0.3346843642747641  0.3385091239787172  0.006058767735140714  1.0000
  C   C13       1.0  0.0026772576080344806  0.5418506589125869  0.007648237363966448  1.0000
  C   C14       1.0  0.0028598871341429274  0.44914312333288114  0.007587176747747948  1.0000
  C   C15       1.0  0.5363661260150036  0.541721875574339  0.4484751544951494  1.0000
  C   C16       1.0  0.4435331886442739  0.4489084456334  0.5413102243841977  1.0000
  C   C17       1.0  0.5366423526370311  0.5419116601806383  0.007660000138592701  1.0000
  C   C18       1.0  0.44373630807308473  0.4491276407699731  0.007680669840688359  1.0000
  C   C19       1.0  0.0027802030986235717  0.541871209194163  0.4484765116017542  1.0000
  C   C20       1.0  0.0027960523507459313  0.449029479074973  0.5412915616346652  1.0000
  C   C21       1.0  0.4434783908943694  0.9824147092793395  0.007917462062117374  1.0000
  C   C22       1.0  0.5362845089439288  0.9823688171439005  0.008054042702219918  1.0000
  C   C23       1.0  0.002798431727029396  0.008193709501902808  0.5413424104274257  1.0000
  C   C24       1.0  0.002823832291134839  0.008282779092098675  0.4484738589858637  1.0000
  O   O1        1.0  0.6933917455028645  0.7831364498180521  0.29725763308336894  1.0000
  O   O2        1.0  0.08703212576097707  0.7832424560861496  0.917431779494514  1.0000
  O   O3        1.0  0.6936167269760104  0.608667692700273  0.0920442946247135  1.0000
  O   O4        1.0  0.9126032174906553  0.6086898247416744  0.2972451586386811  1.0000
  O   O5        1.0  0.08705159557975838  0.7832799319223726  0.297311952083547  1.0000
  O   O6        1.0  0.6936191894853676  0.7832557692586732  0.9175778878600626  1.0000
  O   O7        1.0  0.9125523799800276  0.608721944928533  0.09197557482047353  1.0000
  O   O8        1.0  0.693405121255111  0.6085958049454094  0.29727504053401793  1.0000
  O   O9        1.0  0.05247724252009777  0.8834422766370909  0.05732345933235192  1.0000
  O   O10       1.0  0.8283564713381248  0.8834720595750625  0.05732353824939202  1.0000
  O   O11       1.0  0.9200299899581876  0.8427424015737232  0.9248944913370281  1.0000
  O   O12       1.0  0.9199954464513734  0.8427044292860446  0.23049098180272404  1.0000
  O   O13       1.0  0.292266775840531  0.2075204786934535  0.6983447443181987  1.0000
  O   O14       1.0  0.912831775596686  0.20777968701169408  0.09199466701322483  1.0000
  O   O15       1.0  0.9126891148126858  0.0023980357122537935  0.6983565518940228  1.0000
  O   O16       1.0  0.2922765928816276  0.9883391349154356  0.09211217355984047  1.0000
  O   O17       1.0  0.08713300194182952  0.0024321532499414523  0.2972872863455009  1.0000
  O   O18       1.0  0.6933578430611501  0.9883055220279292  0.9178502186434156  1.0000
  O   O19       1.0  0.08715037417975659  0.38220157649383435  0.6982914742221668  1.0000
  O   O20       1.0  0.2924347649672327  0.3823096625606937  0.9175689945489793  1.0000
  O   O21       1.0  0.9126611623592991  0.20765124424825399  0.6982976333321887  1.0000
  O   O22       1.0  0.29239307961540834  0.2077338249840325  0.0920899180325776  1.0000
  O   O23       1.0  0.0870646513453934  0.0021285416909149393  0.6984420633153763  1.0000
  O   O24       1.0  0.6935058990639289  0.9885846939288571  0.09221870261184507  1.0000
  O   O25       1.0  0.9126435216259168  0.002472183281334377  0.2972805225113148  1.0000
  O   O26       1.0  0.2923406704954626  0.9883429669357611  0.9176187546873181  1.0000
  O   O27       1.0  0.292360037170141  0.38210318986140396  0.6983086402345009  1.0000
  O   O28       1.0  0.08732896227111525  0.382391984498902  0.9174089702709765  1.0000
  O   O29       1.0  0.052494367482154226  0.10763740872117468  0.057278655673584915  1.0000
  O   O30       1.0  0.05249156282480526  0.10762383340547627  0.8331409815553599  1.0000
  O   O31       1.0  0.9200568396788426  0.14839738111221124  0.9248389542801406  1.0000
  O   O32       1.0  0.2257199361363502  0.14840841721201736  0.924843459439103  1.0000
