data_image0
_chemical_formula_structural       Zn2H22C40N2Cl4O14
_chemical_formula_sum              "Zn2 H22 C40 N2 Cl4 O14"
_cell_length_a       11.102855556328896
_cell_length_b       16.383509511744506
_cell_length_c       17.599950663929604
_cell_angle_alpha    95.51795788747613
_cell_angle_beta     90.97872846979624
_cell_angle_gamma    93.2699981601864

_space_group_name_H-M_alt    "P 1"
_space_group_IT_number       1

loop_
  _space_group_symop_operation_xyz
  'x, y, z'

loop_
  _atom_site_type_symbol
  _atom_site_label
  _atom_site_symmetry_multiplicity
  _atom_site_fract_x
  _atom_site_fract_y
  _atom_site_fract_z
  _atom_site_occupancy
  Zn  Zn1       1.0  0.4898041578195632  0.41697602634896913  0.5132009758821499  1.0000
  Zn  Zn2       1.0  0.5086263960950462  0.5921834889372944  0.5137895763571196  1.0000
  H   H1        1.0  0.37526179880077853  0.7139943501124718  0.44471575939373054  1.0000
  H   H2        1.0  0.37246938257155904  0.8636686133694268  0.4389336040484793  1.0000
  H   H3        1.0  0.686449049812431  0.8897238705365068  0.5912870011430655  1.0000
  H   H4        1.0  0.31555226094491223  0.1229611879773671  0.4133817441057347  1.0000
  H   H5        1.0  0.6288472486596319  0.14006546839283368  0.5659572280669779  1.0000
  H   H6        1.0  0.6185091629032798  0.2909626702863192  0.5742796168613042  1.0000
  H   H7        1.0  0.6093984932392758  0.010428108247054995  0.5567446407397797  1.0000
  H   H8        1.0  0.3939111791510896  0.9981373126414038  0.4425335598747609  1.0000
  H   H9        1.0  0.489225510942532  0.6132159976590258  0.2774728487886122  1.0000
  H   H10       1.0  0.4910217665802535  0.6102807628886708  0.1368239051789786  1.0000
  H   H11       1.0  0.5182337181778466  0.3473276321062642  0.12283355143863871  1.0000
  H   H12       1.0  0.48685811341686497  0.6544740634099071  0.9025989775466885  1.0000
  H   H13       1.0  0.5073621676554796  0.39099086021592916  0.8881568172184944  1.0000
  H   H14       1.0  0.5094624480577322  0.3881915679680573  0.7477169752029269  1.0000
  H   H15       1.0  0.5072126793170497  0.4068239311475778  0.008912139097681385  1.0000
  H   H16       1.0  0.4947820122591651  0.5947374857458173  0.016427869004893104  1.0000
  H   H17       1.0  0.20161386860704059  0.39837390289270047  0.5532400447585957  1.0000
  H   H18       1.0  0.7904761608213421  0.3801913506716019  0.53529412787492  1.0000
  H   H19       1.0  0.29451582224340467  0.5944538751305685  0.41223671216680213  1.0000
  H   H20       1.0  0.21726471657773058  0.678304491498764  0.2894088179966374  1.0000
  H   H21       1.0  0.7978124876125677  0.6839592718481453  0.2960108544434519  1.0000
  H   H22       1.0  0.7155684827308805  0.5944727392782382  0.4153805967702979  1.0000
  C   C1        1.0  0.4966441041679632  0.49521895166971325  0.3658061327147096  1.0000
  C   C2        1.0  0.25840359343797564  0.5132679402610519  0.5026241699948457  1.0000
  C   C3        1.0  0.5042765215410654  0.5071658801713353  0.6590030403691572  1.0000
  C   C4        1.0  0.7418182924624902  0.4973118673002403  0.4936595124051453  1.0000
  C   C5        1.0  0.44284931522447124  0.7554943847911629  0.4761034383423421  1.0000
  C   C6        1.0  0.4422690832107535  0.8394587731781017  0.47312538848937896  1.0000
  C   C7        1.0  0.5306158569438396  0.8913076373958687  0.5151439835587298  1.0000
  C   C8        1.0  0.6156358355337234  0.8534629790485366  0.5576520996148062  1.0000
  C   C9        1.0  0.6097623559273944  0.7682539215916222  0.5575656266123873  1.0000
  C   C10       1.0  0.5379916238465726  0.9804959380301594  0.5185862120369862  1.0000
  C   C11       1.0  0.4653674244084555  0.0274327603944329  0.48102918893934543  1.0000
  C   C12       1.0  0.3853289136173715  0.1573261722441259  0.4494592076208336  1.0000
  C   C13       1.0  0.4715738296008354  0.11684571572505578  0.4884582915378603  1.0000
  C   C14       1.0  0.5582543664102532  0.16646183399243603  0.5342012293601286  1.0000
  C   C15       1.0  0.5537070957365203  0.250839592487587  0.5389764438450159  1.0000
  C   C16       1.0  0.38723025388632243  0.24295822624325328  0.4574196383962531  1.0000
  C   C17       1.0  0.5013909434075784  0.4841417692692858  0.2807543239513848  1.0000
  C   C18       1.0  0.49521997193337336  0.5553877745929939  0.24213040214243625  1.0000
  C   C19       1.0  0.4962255719336852  0.5532320845845433  0.16351514581820234  1.0000
  C   C20       1.0  0.5033784302725551  0.4777756752233273  0.11837331855267054  1.0000
  C   C21       1.0  0.5111804967946229  0.40646885007896577  0.15612579665993562  1.0000
  C   C22       1.0  0.5109496097057261  0.4089575904513367  0.23563263867778525  1.0000
  C   C23       1.0  0.5032303936164341  0.46978614361839977  0.0353573758098236  1.0000
  C   C24       1.0  0.49850783664156484  0.5317591310719721  0.9900181863095909  1.0000
  C   C25       1.0  0.4922974153308389  0.5952019799918773  0.8692798246465403  1.0000
  C   C26       1.0  0.4983619990050911  0.523739491426731  0.906989421015929  1.0000
  C   C27       1.0  0.5038179491784192  0.4482589475884565  0.8616203256550747  1.0000
  C   C28       1.0  0.5049531555131709  0.4462879986567643  0.7829445927432703  1.0000
  C   C29       1.0  0.5003038009754731  0.5177162798884892  0.7443048743853993  1.0000
  C   C30       1.0  0.49245389139089474  0.5929546396736922  0.7897894627619666  1.0000
  C   C31       1.0  0.8714595506577968  0.49464633103135464  0.47502900230816186  1.0000
  C   C32       1.0  0.9368133902131249  0.5519297192650612  0.4303215409084303  1.0000
  C   C33       1.0  0.9336591265728557  0.434652121271796  0.508834973776729  1.0000
  C   C34       1.0  0.8793568429129053  0.6009657742643952  0.3797912983760554  1.0000
  C   C35       1.0  0.9440445521401984  0.650931816292413  0.33260655338843054  1.0000
  C   C36       1.0  0.12936644732045013  0.501962507260494  0.47999997759786345  1.0000
  C   C37       1.0  0.0627083200790324  0.4398308393323802  0.5136654007562242  1.0000
  C   C38       1.0  0.06779970582807239  0.5534203359951133  0.43081747081569693  1.0000
  C   C39       1.0  0.12908604472487184  0.6004754643880972  0.3782669037293829  1.0000
  C   C40       1.0  0.0692451148655948  0.649783493235958  0.3310593710959751  1.0000
  N   N1        1.0  0.5249101481361295  0.7193102618810554  0.5177599748307102  1.0000
  N   N2        1.0  0.4698164090350899  0.28962184327362195  0.5013219878552349  1.0000
  Cl  Cl1       1.0  0.7143304766301244  0.724241241378152  0.6105084077800527  1.0000
  Cl  Cl2       1.0  0.2789871664052583  0.2900660672064603  0.410328940664222  1.0000
  Cl  Cl3       1.0  0.5262908652847786  0.3156213786850016  0.2725228503596071  1.0000
  Cl  Cl4       1.0  0.48076139486907005  0.6868598800862812  0.7534817177172572  1.0000
  O   O1        1.0  0.48713282037708444  0.4314717618391838  0.4019102172017385  1.0000
  O   O2        1.0  0.5013246380584349  0.5689229270720733  0.3971670080625388  1.0000
  O   O3        1.0  0.31721224760864436  0.5827150282901953  0.498548310735771  1.0000
  O   O4        1.0  0.3101597945269248  0.45300165688866656  0.5294122206976938  1.0000
  O   O5        1.0  0.5050073463128727  0.5711144629220755  0.6232126194201797  1.0000
  O   O6        1.0  0.5071826805233216  0.43365181532788444  0.6276829404326634  1.0000
  O   O7        1.0  0.6841903772103708  0.4309113901187871  0.510385403835315  1.0000
  O   O8        1.0  0.6913481652151036  0.5661403594120242  0.49692843219768434  1.0000
  O   O9        1.0  0.11147211717306504  0.38569968261679594  0.555921147450043  1.0000
  O   O10       1.0  0.8794121640138076  0.3735979547806493  0.5440408590850936  1.0000
  O   O11       1.0  0.2501456586859447  0.5990567114248858  0.36291865047592614  1.0000
  O   O12       1.0  0.13396492070786786  0.6938954503531318  0.2820056786882574  1.0000
  O   O13       1.0  0.8832710761147453  0.6970582230325348  0.2858926985729369  1.0000
  O   O14       1.0  0.7573336298217724  0.6013793941096992  0.3662887084318812  1.0000
