data_image0
_chemical_formula_structural       Mn4V4H16C4N4O14
_chemical_formula_sum              "Mn4 V4 H16 C4 N4 O14"
_cell_length_a       4.987206635001198
_cell_length_b       6.115585948005082
_cell_length_c       14.284151237010143
_cell_angle_alpha    90.0001303973911
_cell_angle_beta     89.9999504295283
_cell_angle_gamma    89.99993739702357

_space_group_name_H-M_alt    "P 1"
_space_group_IT_number       1

loop_
  _space_group_symop_operation_xyz
  'x, y, z'

loop_
  _atom_site_type_symbol
  _atom_site_label
  _atom_site_symmetry_multiplicity
  _atom_site_fract_x
  _atom_site_fract_y
  _atom_site_fract_z
  _atom_site_occupancy
  Mn  Mn1       1.0  0.10705359231496199  2.2844178530999994e-06  0.2673676370673235  1.0000
  Mn  Mn2       1.0  0.892949882170839  3.1533273344000005e-06  0.7326328219050637  1.0000
  Mn  Mn3       1.0  0.607050621253208  0.5000014901615302  0.23263210792969596  1.0000
  Mn  Mn4       1.0  0.39294815742153577  0.4999997046538525  0.7673674482225222  1.0000
  V   V1        1.0  0.5584848301965053  1.7151766087e-06  0.12411649372934616  1.0000
  V   V2        1.0  0.44151463403255775  0.9999988170696241  0.8758832651646172  1.0000
  V   V3        1.0  0.05848284273000099  0.49999883133605744  0.3758832662743287  1.0000
  V   V4        1.0  0.9415139308153966  0.500000728313907  0.6241162898773849  1.0000
  H   H1        1.0  0.5451804180844347  0.13363955811348657  0.3552664531454539  1.0000
  H   H2        1.0  0.45482487831095136  0.13362890460780358  0.6447320385159543  1.0000
  H   H3        1.0  0.045183183723871395  0.3663593648106271  0.14473401104452677  1.0000
  H   H4        1.0  0.954821793572151  0.3663657236948268  0.8552675124109255  1.0000
  H   H5        1.0  0.4548123452022566  0.8663567312056413  0.644733103005258  1.0000
  H   H6        1.0  0.5451779106289506  0.8663673847051355  0.3552668175566041  1.0000
  H   H7        1.0  0.954817600083018  0.6336369245086573  0.8552669452581367  1.0000
  H   H8        1.0  0.0451769851051154  0.6336305656235054  0.14473274381545312  1.0000
  H   H9        1.0  0.2510336235756938  0.1448621802042709  0.48892022768421123  1.0000
  H   H10       1.0  0.7489716574256063  0.14485875088065103  0.5110796752967843  1.0000
  H   H11       1.0  0.7510333926390586  0.3551414690809123  0.0110808729737002  1.0000
  H   H12       1.0  0.24896959491412216  0.3551393268950704  0.9889199392431394  1.0000
  H   H13       1.0  0.7489631499683042  0.8551406497764587  0.5110786283925393  1.0000
  H   H14       1.0  0.25102712124802196  0.8551440791010305  0.4889198808562511  1.0000
  H   H15       1.0  0.24896739116755373  0.644856455402838  0.9889193832531827  1.0000
  H   H16       1.0  0.7510291837620214  0.6448585975895541  0.011080316984049397  1.0000
  C   C1        1.0  0.37117915717239197  4.335106901e-06  0.4711878969332446  1.0000
  C   C2        1.0  0.6288183019273246  0.9999945619739137  0.5288118619602213  1.0000
  C   C3        1.0  0.8711786846966659  0.4999910337901027  0.028812466517358398  1.0000
  C   C4        1.0  0.12882009397974767  0.5000052555300484  0.9711884897856178  1.0000
  N   N1        1.0  0.42728684054220156  0.9999958715707817  0.3700205191931758  1.0000
  N   N2        1.0  0.5727126236804166  1.2836508730599997e-05  0.6299799397814494  1.0000
  N   N3        1.0  0.9272881282510351  0.5000108946643776  0.12998052700136498  1.0000
  N   N4        1.0  0.07271065041977207  0.49999357048724136  0.8700204293056757  1.0000
  O   O1        1.0  0.41761817916938765  0.22447100632936667  0.178645593330657  1.0000
  O   O2        1.0  0.5823829824181955  0.22446933697221993  0.8213536887596716  1.0000
  O   O3        1.0  0.9176173062148506  0.275530862818229  0.3213540556963394  1.0000
  O   O4        1.0  0.08238378536232459  0.2755305209400518  0.6786459772589026  1.0000
  O   O5        1.0  0.5823826046366848  0.7755301884833231  0.821353262744658  1.0000
  O   O6        1.0  0.41761579625458006  0.775533493011281  0.1786465674699613  1.0000
  O   O7        1.0  0.0823814724610159  0.724468696830861  0.6786455004550687  1.0000
  O   O8        1.0  0.9176169984451404  0.7244674035418723  0.32135357889138305  1.0000
  O   O9        1.0  0.8917795947532667  0.9999999948230567  0.14710765777944348  1.0000
  O   O10       1.0  0.10822118905335287  0.9999979296606937  0.8528925984474396  1.0000
  O   O11       1.0  0.39177766294451283  0.5000002616480259  0.35289339938459097  1.0000
  O   O12       1.0  0.6082191106000394  0.4999992980037645  0.6471068568437202  1.0000
  O   O13       1.0  0.4999986492450148  0.9999988098440722  0.9999997200039841  1.0000
  O   O14       1.0  0.9999997267019365  0.4999987446821805  0.49999970082168227  1.0000
