data_image0
_chemical_formula_structural       K4H28C32O12
_chemical_formula_sum              "K4 H28 C32 O12"
_cell_length_a       3.8006611870082714
_cell_length_b       11.1798181433409
_cell_length_c       18.07398376102653
_cell_angle_alpha    94.38020555992023
_cell_angle_beta     90.00000060899957
_cell_angle_gamma    89.99975846184496

_space_group_name_H-M_alt    "P 1"
_space_group_IT_number       1

loop_
  _space_group_symop_operation_xyz
  'x, y, z'

loop_
  _atom_site_type_symbol
  _atom_site_label
  _atom_site_symmetry_multiplicity
  _atom_site_fract_x
  _atom_site_fract_y
  _atom_site_fract_z
  _atom_site_occupancy
  K   K1        1.0  0.6461693441254894  0.38838969784863064  0.09345154664253388  1.0000
  K   K2        1.0  0.14616865191958084  0.11160803119529564  0.9065466815386354  1.0000
  K   K3        1.0  0.3538372715400797  0.6116143256898284  0.9065455855603372  1.0000
  K   K4        1.0  0.8538300704219991  0.8883897257217728  0.0934518330405325  1.0000
  H   H1        1.0  0.0523542896928646  0.3885156768967946  0.9350505243825036  1.0000
  H   H2        1.0  0.5523584577602846  0.11148309991878592  0.06494996377116277  1.0000
  H   H3        1.0  0.9476418015163118  0.6114838784879737  0.06494862312101188  1.0000
  H   H4        1.0  0.44764289568556137  0.8885173697739078  0.9350514373694092  1.0000
  H   H5        1.0  0.4179621051039888  0.3285153079844818  0.9408180559760876  1.0000
  H   H6        1.0  0.9179681498553903  0.17148205162889954  0.059182367764833495  1.0000
  H   H7        1.0  0.582028723879816  0.6714815647840383  0.05918207931632939  1.0000
  H   H8        1.0  0.0820384658552555  0.828514812511955  0.9408166605698439  1.0000
  H   H9        1.0  0.7340973979756739  0.6122551794492779  0.5124089427571474  1.0000
  H   H10       1.0  0.2340826666177023  0.8877436856888111  0.48759156646478613  1.0000
  H   H11       1.0  0.2659223733294169  0.38774348314805734  0.48759071850133734  1.0000
  H   H12       1.0  0.7659134245802264  0.1122576853946455  0.512410427877384  1.0000
  H   H13       1.0  0.15368629497260855  0.44036730884318603  0.24294041594136218  1.0000
  H   H14       1.0  0.6536780339104523  0.05963042674519412  0.7570600256468507  1.0000
  H   H15       1.0  0.846322951881717  0.5596259799052135  0.7570601139377328  1.0000
  H   H16       1.0  0.3463233195241173  0.9403718284886795  0.24294034798217007  1.0000
  H   H17       1.0  0.2609494985869815  0.39562754746878437  0.3721084651859598  1.0000
  H   H18       1.0  0.7609353991718777  0.10437272676507803  0.6278920883273356  1.0000
  H   H19       1.0  0.7390676415913404  0.6043720208256503  0.6278923427526519  1.0000
  H   H20       1.0  0.2390633231471782  0.8956286313918655  0.3721082455789427  1.0000
  H   H21       1.0  0.648234926759315  0.7845998744053378  0.28404820013873416  1.0000
  H   H22       1.0  0.1482513277527175  0.7154000185557622  0.7159534615605593  1.0000
  H   H23       1.0  0.3517532710920647  0.21539877959802572  0.7159503541636167  1.0000
  H   H24       1.0  0.8517447634564732  0.2845995583700757  0.2840484533359627  1.0000
  H   H25       1.0  0.7567136984690206  0.741446120991647  0.41489599243271147  1.0000
  H   H26       1.0  0.25670849414342456  0.7585536133522198  0.5851051084630325  1.0000
  H   H27       1.0  0.2432955483458557  0.25855342576733165  0.5851020481131569  1.0000
  H   H28       1.0  0.7432849659333627  0.24144775773310562  0.41489688587922996  1.0000
  C   C1        1.0  0.3036931254417183  0.6434285390020379  0.17709429442426478  1.0000
  C   C2        1.0  0.8036969276224895  0.8565693386520083  0.8229072773315591  1.0000
  C   C3        1.0  0.6963108591252548  0.3565719177641355  0.8229054462804084  1.0000
  C   C4        1.0  0.1962991635754321  0.14343202381501646  0.17709361005341148  1.0000
  C   C5        1.0  0.5661928169807097  0.5459862751863085  0.4819374075529338  1.0000
  C   C6        1.0  0.0661825185848386  0.9540137215841257  0.5180625992518415  1.0000
  C   C7        1.0  0.43382695430747015  0.4540150743392318  0.5180618193954274  1.0000
  C   C8        1.0  0.9338135726243522  0.04598585103349961  0.4819387621660807  1.0000
  C   C9        1.0  0.2823108684114075  0.5067092788679872  0.28118224120856883  1.0000
  C   C10       1.0  0.7823076793628729  0.9932913161381336  0.7188188976813306  1.0000
  C   C11       1.0  0.717698378420387  0.49328759819564283  0.7188184475618298  1.0000
  C   C12       1.0  0.2176910429392862  0.006712733255227499  0.28118155539342377  1.0000
  C   C13       1.0  0.3833820608978016  0.6171301578013699  0.2554798616004347  1.0000
  C   C14       1.0  0.883377630782455  0.8828729803476494  0.7445208361539455  1.0000
  C   C15       1.0  0.6166166614437856  0.38286760342391085  0.7445192064573332  1.0000
  C   C16       1.0  0.11661056703514558  0.11713106905319391  0.2554796169211641  1.0000
  C   C17       1.0  0.34282681327675135  0.4820878533187524  0.3540355987366367  1.0000
  C   C18       1.0  0.8428190643111648  0.017913205817073702  0.6459655424486143  1.0000
  C   C19       1.0  0.6571850646649225  0.5179108179006208  0.6459651694793249  1.0000
  C   C20       1.0  0.15717702688112206  0.9820890537287639  0.35403538465917705  1.0000
  C   C21       1.0  0.5069687748903887  0.5670185770411893  0.4044434914672833  1.0000
  C   C22       1.0  0.0069666425106902  0.9329797184357249  0.5955575468482193  1.0000
  C   C23       1.0  0.4930457341667847  0.4329809869469089  0.5955567629928068  1.0000
  C   C24       1.0  0.9930347109407832  0.06701984986994351  0.4044432610909182  1.0000
  C   C25       1.0  0.5582090148879644  0.7005472173199082  0.30428646179585417  1.0000
  C   C26       1.0  0.0582190954457786  0.7994518937151583  0.6957135058245638  1.0000
  C   C27       1.0  0.4417897074536156  0.2994505395971601  0.6957120527833139  1.0000
  C   C28       1.0  0.9417769957577774  0.20054857167306045  0.30428734183757905  1.0000
  C   C29       1.0  0.6184776342383955  0.6759492595644617  0.3775049218774881  1.0000
  C   C30       1.0  0.11847687333615647  0.824049770047012  0.6224955951518963  1.0000
  C   C31       1.0  0.3815263503398398  0.32404939873588035  0.6224941859029299  1.0000
  C   C32       1.0  0.8815139556194893  0.17595159242375763  0.37750529223325185  1.0000
  O   O1        1.0  0.22411931716466424  0.3606431960174207  0.9726261468576706  1.0000
  O   O2        1.0  0.7241204998603975  0.13935534075163503  0.027374883175234288  1.0000
  O   O3        1.0  0.7758794051487569  0.6393590549101092  0.027373673292835594  1.0000
  O   O4        1.0  0.27588348474037616  0.8606397421581278  0.9726257261496866  1.0000
  O   O5        1.0  0.15856364043543883  0.5593295632797607  0.13527042206835918  1.0000
  O   O6        1.0  0.6585558660216222  0.9406774744022715  0.8647293428024408  1.0000
  O   O7        1.0  0.8414324507850067  0.44066819363917636  0.8647280925109011  1.0000
  O   O8        1.0  0.3414349628889467  0.059331056082527284  0.13527075540810773  1.0000
  O   O9        1.0  0.38464945198828804  0.745094148016975  0.15483242830901386  1.0000
  O   O10       1.0  0.8846440093341528  0.7549116924908077  0.8451700489640996  1.0000
  O   O11       1.0  0.6153308524940542  0.2549054159954522  0.8451678261522344  1.0000
  O   O12       1.0  0.11533892623553749  0.2450932626090179  0.15483155079122204  1.0000
