data_image0
_chemical_formula_structural       Fe2H12Pd2C24N16F4
_chemical_formula_sum              "Fe2 H12 Pd2 C24 N16 F4"
_cell_length_a       6.984946844566713
_cell_length_b       7.167559498005516
_cell_length_c       15.091604340983501
_cell_angle_alpha    89.99986511375559
_cell_angle_beta     89.99861975570207
_cell_angle_gamma    90.00004174366623

_space_group_name_H-M_alt    "P 1"
_space_group_IT_number       1

loop_
  _space_group_symop_operation_xyz
  'x, y, z'

loop_
  _atom_site_type_symbol
  _atom_site_label
  _atom_site_symmetry_multiplicity
  _atom_site_fract_x
  _atom_site_fract_y
  _atom_site_fract_z
  _atom_site_occupancy
  Fe  Fe1       1.0  0.48827991516917285  0.5000015758649995  0.0119087616413722  1.0000
  Fe  Fe2       1.0  0.48828989097359  0.9999990453183116  0.4880891321131245  1.0000
  H   H1        1.0  0.10754326237888992  0.49999842995865157  0.10106918702955883  1.0000
  H   H2        1.0  0.893595779101382  0.9999947193977975  0.6042904260658803  1.0000
  H   H3        1.0  0.8936156439124049  0.49999954873766234  0.8957401720702975  1.0000
  H   H4        1.0  0.10754759217954302  0.9999991280564728  0.3989265681825175  1.0000
  H   H5        1.0  0.677104549035171  0.49999981855489056  0.18676977353243984  1.0000
  H   H6        1.0  0.3312066336542046  3.9889472133999996e-06  0.6958915901745686  1.0000
  H   H7        1.0  0.33129149495088234  0.4999939918671502  0.8040759622436228  1.0000
  H   H8        1.0  0.6770973365517463  0.9999967524234847  0.31321926850823445  1.0000
  H   H9        1.0  0.563695348660218  0.4999979921587824  0.3456826387652826  1.0000
  H   H10       1.0  0.4518321162730815  9.2197000185e-06  0.8558526663556236  1.0000
  H   H11       1.0  0.4520064312957929  0.49999861377485644  0.6441280413968117  1.0000
  H   H12       1.0  0.5636798161000272  1.2178529758e-06  0.15431095421276103  1.0000
  Pd  Pd1       1.0  0.9904512741055954  3.1380565702000013e-06  0.0029103538793791004  1.0000
  Pd  Pd2       1.0  0.9904665346928282  0.5000005632550926  0.49709676223870514  1.0000
  C   C1        1.0  0.1862696125520671  0.8054140513673932  0.9845398969373778  1.0000
  C   C2        1.0  0.7959874899836736  0.6948241823607194  0.47547120454148484  1.0000
  C   C3        1.0  0.7959785526069041  0.8051710786014966  0.0245290260556317  1.0000
  C   C4        1.0  0.18628251305984384  0.6945825003482468  0.5154599436854783  1.0000
  C   C5        1.0  0.7959768949152064  0.19483362675065052  0.024528707486993505  1.0000
  C   C6        1.0  0.1862866639525862  0.3054193548294464  0.5154568499283629  1.0000
  C   C7        1.0  0.18626509137978078  0.19458968343187885  0.9845395786600835  1.0000
  C   C8        1.0  0.7959887774120915  0.3051741207588848  0.475467448455639  1.0000
  C   C9        1.0  0.2110344997980178  0.49999693981551735  0.1547931501838988  1.0000
  C   C10       1.0  0.7941562899250414  0.9999973372221265  0.6599882051216215  1.0000
  C   C11       1.0  0.7942247011206479  0.4999982548760116  0.8400323002484671  1.0000
  C   C12       1.0  0.21103717113327036  0.9999992971832301  0.3452020478400613  1.0000
  C   C13       1.0  0.5260621852948333  0.4999997231103493  0.2035846480806711  1.0000
  C   C14       1.0  0.48287238600321564  4.003393179600001e-06  0.7121222377140555  1.0000
  C   C15       1.0  0.48297092819946397  0.49999269088286274  0.7878640682099844  1.0000
  C   C16       1.0  0.5260529346314655  0.999998134805118  0.29640683688026576  1.0000
  C   C17       1.0  0.15755160166024498  0.4999980978408445  0.24348251193794115  1.0000
  C   C18       1.0  0.8532350892171864  2.6519268772000005e-06  0.7483262785597661  1.0000
  C   C19       1.0  0.8533568819277165  0.5000040738769728  0.7516980695575415  1.0000
  C   C20       1.0  0.15755395987800824  8.211286513000002e-07  0.2565198437440515  1.0000
  C   C21       1.0  0.46218554510454624  0.49999809085144165  0.2907321541755863  1.0000
  C   C22       1.0  0.5494548615735582  7.998416045e-06  0.799334574352919  1.0000
  C   C23       1.0  0.5495934747713136  0.4999957194455932  0.7006575727450298  1.0000
  C   C24       1.0  0.4621730424706953  2.441597061400001e-06  0.2092619726279423  1.0000
  N   N1        1.0  0.3039211383552427  0.6888653568372335  0.9848003415835864  1.0000
  N   N2        1.0  0.678409099031576  0.8109487558152468  0.47028550468569114  1.0000
  N   N3        1.0  0.6783998212308688  0.6890436305526039  0.029711473434090904  1.0000
  N   N4        1.0  0.30392841139533994  0.811136859882865  0.5151987749677431  1.0000
  N   N5        1.0  0.6783925229768357  0.3109581747213213  0.02971036136028001  1.0000
  N   N6        1.0  0.30393390758380434  0.18886787122781365  0.5151964752224103  1.0000
  N   N7        1.0  0.3039195668014684  0.31113706581108164  0.9848005545148485  1.0000
  N   N8        1.0  0.6784131637053079  0.1890453030161652  0.4702832047427493  1.0000
  N   N9        1.0  0.400158830974462  0.5000012418612203  0.13495451580087092  1.0000
  N   N10       1.0  0.6061677643731755  2.931380289999987e-08  0.6440671162890298  1.0000
  N   N11       1.0  0.606222880347431  0.4999939629196605  0.85592966380991  1.0000
  N   N12       1.0  0.4001619603780071  0.9999965258309732  0.3650411035507447  1.0000
  N   N13       1.0  0.2745944899600232  0.49999797275155106  0.3114368239581964  1.0000
  N   N14       1.0  0.7380514269274415  6.6275592445000025e-06  0.8169319894620132  1.0000
  N   N15       1.0  0.7382138094995838  0.5000000157407598  0.6830851019888089  1.0000
  N   N16       1.0  0.2745887300385021  1.0301080806000004e-06  0.18855553816285212  1.0000
  F   F1        1.0  0.9672623821336686  0.49999276078968075  0.26238295339813794  1.0000
  F   F2        1.0  0.0438025727189881  9.222691020000003e-07  0.7664225647325296  1.0000
  F   F3        1.0  0.04394100118491911  0.500006618660983  0.7336206004941559  1.0000
  F   F4        1.0  0.967263174886881  0.9999984373686888  0.23762188458132272  1.0000
