data_image0
_chemical_formula_structural       Mn2H36C36N4O10
_chemical_formula_sum              "Mn2 H36 C36 N4 O10"
_cell_length_a       6.859243342712584
_cell_length_b       8.521141521068019
_cell_length_c       15.644101917222166
_cell_angle_alpha    89.99698518971387
_cell_angle_beta     90.00036520617631
_cell_angle_gamma    101.49836781622352

_space_group_name_H-M_alt    "P 1"
_space_group_IT_number       1

loop_
  _space_group_symop_operation_xyz
  'x, y, z'

loop_
  _atom_site_type_symbol
  _atom_site_label
  _atom_site_symmetry_multiplicity
  _atom_site_fract_x
  _atom_site_fract_y
  _atom_site_fract_z
  _atom_site_occupancy
  Mn  Mn1       1.0  0.6117665785647615  0.3029653529180365  0.35062822717706876  1.0000
  Mn  Mn2       1.0  0.3882765620583584  0.697029062232815  0.850645749488976  1.0000
  H   H1        1.0  0.179409059306586  0.2061993117304439  0.3383816262001319  1.0000
  H   H2        1.0  0.8206354443516515  0.7937819986841035  0.8383968569484069  1.0000
  H   H3        1.0  0.2973863929230163  0.1548255837861561  0.42321067395990053  1.0000
  H   H4        1.0  0.7026528611732558  0.845173718897648  0.9232183273648008  1.0000
  H   H5        1.0  0.27715380598713313  0.41408905565140935  0.23894443956201888  1.0000
  H   H6        1.0  0.7228537097561298  0.5858819894357552  0.7389731555701076  1.0000
  H   H7        1.0  0.32616934312051177  0.9199809802852246  0.2816631140967161  1.0000
  H   H8        1.0  0.6737897242985724  0.0799862134490397  0.7817077724655377  1.0000
  H   H9        1.0  0.6335465383885719  0.9189723315832409  0.36269536434122795  1.0000
  H   H10       1.0  0.3664065283095752  0.0810096271019844  0.8627372379241935  1.0000
  H   H11       1.0  0.9273814309827485  0.9038743415736548  0.4064210904867311  1.0000
  H   H12       1.0  0.0725599514384712  0.09613180700886662  0.906480898127221  1.0000
  H   H13       1.0  0.21337181259546156  0.857673501545868  0.4915500012135966  1.0000
  H   H14       1.0  0.7865778141131582  0.1423723330897815  0.9915950608651658  1.0000
  H   H15       1.0  0.982841156293503  0.3494861685716656  0.46795214094985493  1.0000
  H   H16       1.0  0.017215644481822792  0.6505509124075957  0.9679623418428849  1.0000
  H   H17       1.0  0.013824525911331929  0.7549987576033601  0.21604292609200126  1.0000
  H   H18       1.0  0.9861208967626707  0.2449696927626661  0.7160625153760167  1.0000
  H   H19       1.0  0.9829539464599221  0.5420708277987812  0.21719475759506685  1.0000
  H   H20       1.0  0.01699779616628662  0.4579131337658496  0.7172067566541005  1.0000
  H   H21       1.0  0.1137531230555382  0.655008492814126  0.13248523767996556  1.0000
  H   H22       1.0  0.886188542761161  0.3449607419371503  0.632499712310427  1.0000
  H   H23       1.0  0.43635097966184583  0.6348929549382161  0.517500722162005  1.0000
  H   H24       1.0  0.5636401502332332  0.3651955616521718  0.017518324609767405  1.0000
  H   H25       1.0  0.30255831618402595  0.43608114297668266  0.536856428109701  1.0000
  H   H26       1.0  0.6974712950347665  0.5639955414650684  0.0368730545141034  1.0000
  H   H27       1.0  0.2811354138753258  0.595377761288617  0.607845041143328  1.0000
  H   H28       1.0  0.7188487401227518  0.40468049937990697  0.10786702480428544  1.0000
  H   H29       1.0  0.499529323810208  0.9430210211328003  0.6287516496580923  1.0000
  H   H30       1.0  0.5004997795419399  0.05696816424802619  0.1287474118255574  1.0000
  H   H31       1.0  0.9109765058483317  0.061911468631542683  0.5459415500994498  1.0000
  H   H32       1.0  0.08905150146190273  0.9380772887911917  0.045944297247686415  1.0000
  H   H33       1.0  0.7626211202239331  0.8456464585399175  0.7033355338629762  1.0000
  H   H34       1.0  0.23739785377588155  0.15433895500746786  0.20333220561663276  1.0000
  H   H35       1.0  0.1808299200323162  0.9778098227557308  0.628949503709393  1.0000
  H   H36       1.0  0.8192027903928149  0.022175837751149202  0.1289465125447009  1.0000
  C   C1        1.0  0.35495820128310357  0.5289533284516067  0.26409995054145  1.0000
  C   C2        1.0  0.6450364332818523  0.471017437581004  0.764125422193793  1.0000
  C   C3        1.0  0.27651256249683337  0.6663887011666391  0.2506863894653364  1.0000
  C   C4        1.0  0.7234646164735492  0.333583009925249  0.7507013927869297  1.0000
  C   C5        1.0  0.38124974571903886  0.8087987154290558  0.28687061097895145  1.0000
  C   C6        1.0  0.6187099038809405  0.1911775279919183  0.7869048356441797  1.0000
  C   C7        1.0  0.5551812662607672  0.8087489968225798  0.3329105640492927  1.0000
  C   C8        1.0  0.4447709670958915  0.19124414572530668  0.8329545406494108  1.0000
  C   C9        1.0  0.6217919868258406  0.6652504255098606  0.34360624044275323  1.0000
  C   C10       1.0  0.37818007842274426  0.3347194294000815  0.8436432816953501  1.0000
  C   C11       1.0  0.7992429263370154  0.6509947739508206  0.39409920242761143  1.0000
  C   C12       1.0  0.20073481289249165  0.3490049230375831  0.8941366212687358  1.0000
  C   C13       1.0  0.9412592667073908  0.7820889195057887  0.4222940476735816  1.0000
  C   C14       1.0  0.058679987035709785  0.21791328217211972  0.922340027809284  1.0000
  C   C15       1.0  0.10286615781127036  0.7552209966833698  0.46979426758540666  1.0000
  C   C16       1.0  0.8970994055009169  0.24481889032302465  0.9698398277323009  1.0000
  C   C17       1.0  0.12340289478232341  0.5984801083826952  0.48896930883547196  1.0000
  C   C18       1.0  0.8765748432037055  0.40156771620128506  0.9890000007257174  1.0000
  C   C19       1.0  0.9761335246626998  0.4748472707270466  0.4573009174970154  1.0000
  C   C20       1.0  0.02388842894634282  0.5251710751444351  0.9573256704501535  1.0000
  C   C21       1.0  0.08622385322543381  0.654395294844285  0.2017912010230846  1.0000
  C   C22       1.0  0.9137383294650476  0.34557723433917437  0.7017993405110518  1.0000
  C   C23       1.0  0.294546155827028  0.5633735361793981  0.5402417745770833  1.0000
  C   C24       1.0  0.7054610387657687  0.43670715344160266  0.040267259803833604  1.0000
  C   C25       1.0  0.5343070738467333  0.09733728133694798  0.5143286051744412  1.0000
  C   C26       1.0  0.4657216860745094  0.9026700191754032  0.014329579134539505  1.0000
  C   C27       1.0  0.6085233433200371  0.004505876621898598  0.5827283654876114  1.0000
  C   C28       1.0  0.39150559413830877  0.9954984469222694  0.0827206689911293  1.0000
  C   C29       1.0  0.8026365405041529  0.9971598951509505  0.5912048520917426  1.0000
  C   C30       1.0  0.19740048065915514  0.0028342365436557987  0.09120328965927632  1.0000
  C   C31       1.0  0.8741134545838418  0.9114062277510939  0.6596952741934461  1.0000
  C   C32       1.0  0.12591270648442074  0.08858112561372167  0.15969420489313532  1.0000
  C   C33       1.0  0.0692907810335583  0.9114554650154005  0.6724517008062352  1.0000
  C   C34       1.0  0.930727995306192  0.08851740778451503  0.17244707279916582  1.0000
  C   C35       1.0  0.14120195243032901  0.8217428221046108  0.7422954070513728  1.0000
  C   C36       1.0  0.8588272405400373  0.1782271353124756  0.24228668063503286  1.0000
  N   N1        1.0  0.5199362980045379  0.5268306907809117  0.30935496136397955  1.0000
  N   N2        1.0  0.4800534896570666  0.4731487550076565  0.8093895096152154  1.0000
  N   N3        1.0  0.8193823398920798  0.4996966020346533  0.4116895407728053  1.0000
  N   N4        1.0  0.18062212854360374  0.5003043160805092  0.9117167262884112  1.0000
  O   O1        1.0  0.6556816612699663  0.15615380674468327  0.454506003927243  1.0000
  O   O2        1.0  0.34433566196123877  0.8438635255586248  0.9545063275825288  1.0000
  O   O3        1.0  0.3526624056820395  0.1111459038106801  0.5183219932341816  1.0000
  O   O4        1.0  0.6473501034519413  0.8888535432653413  0.0183238660562992  1.0000
  O   O5        1.0  0.3257602630487567  0.8080340662701744  0.7388792358425107  1.0000
  O   O6        1.0  0.6742651948960441  0.1919456821204548  0.23888111142567686  1.0000
  O   O7        1.0  0.029179497444033642  0.7591023958958446  0.8030212927613294  1.0000
  O   O8        1.0  0.9708609779920463  0.24086911379218626  0.30300336865491323  1.0000
  O   O9        1.0  0.308069892065717  0.1815218563776213  0.35998135687120947  1.0000
  O   O10       1.0  0.6919839407222452  0.8184742559673737  0.8599884836727869  1.0000
