data_image0
_chemical_formula_structural       Ni2H20C24N4O8
_chemical_formula_sum              "Ni2 H20 C24 N4 O8"
_cell_length_a       8.6521702436076
_cell_length_b       8.903914602814254
_cell_length_c       8.903937809982795
_cell_angle_alpha    73.99053287877395
_cell_angle_beta     89.01397063708858
_cell_angle_gamma    89.01401082382579

_space_group_name_H-M_alt    "P 1"
_space_group_IT_number       1

loop_
  _space_group_symop_operation_xyz
  'x, y, z'

loop_
  _atom_site_type_symbol
  _atom_site_label
  _atom_site_symmetry_multiplicity
  _atom_site_fract_x
  _atom_site_fract_y
  _atom_site_fract_z
  _atom_site_occupancy
  Ni  Ni1       1.0  0.2499996324130933  0.8506347818400712  0.14936393795900935  1.0000
  Ni  Ni2       1.0  0.75000024730992  0.1493617173315229  0.8506391192249296  1.0000
  H   H1        1.0  0.9910391959604256  0.6764767329187864  0.3358184132460805  1.0000
  H   H2        1.0  0.5089634072472649  0.6641785356186178  0.32351998191881387  1.0000
  H   H3        1.0  0.008962892773169502  0.3235267801348201  0.664181540600424  1.0000
  H   H4        1.0  0.4910399146000373  0.3358191342754112  0.676478195176699  1.0000
  H   H5        1.0  0.8662966068838073  0.4154438817866364  0.3775685987334327  1.0000
  H   H6        1.0  0.633702028636904  0.6224266724462453  0.5845552280169815  1.0000
  H   H7        1.0  0.1337008603733736  0.5845596248729594  0.6224325659232335  1.0000
  H   H8        1.0  0.36630126411010616  0.3775733360673926  0.4154445492535573  1.0000
  H   H9        1.0  0.9808355204004258  0.2262073407443808  0.24038397652493876  1.0000
  H   H10       1.0  0.5191618921366228  0.7596114673421895  0.7737895360952577  1.0000
  H   H11       1.0  0.019161963626402198  0.7737949974013889  0.759617510883828  1.0000
  H   H12       1.0  0.48083677247547024  0.24038853238953092  0.22620808346664495  1.0000
  H   H13       1.0  0.21720667010668393  0.3049359755711621  0.07170024516044292  1.0000
  H   H14       1.0  0.28279329193301816  0.9283000415342076  0.6950586037749247  1.0000
  H   H15       1.0  0.7827920391422083  0.6950616911127343  0.9283036341036491  1.0000
  H   H16       1.0  0.7172030965899124  0.07169761837081981  0.3049408281160382  1.0000
  H   H17       1.0  0.32425445858158497  0.5735600845991158  0.03962135623171295  1.0000
  H   H18       1.0  0.17574882597889294  0.9603782019147715  0.4264338937882642  1.0000
  H   H19       1.0  0.6757488866938672  0.42643641916899366  0.960380512134698  1.0000
  H   H20       1.0  0.8242498889421412  0.03961829227544911  0.573564694029912  1.0000
  C   C1        1.0  0.0365592946271533  0.5900526543580044  0.2799903642333774  1.0000
  C   C2        1.0  0.4634437759184778  0.7200083616828223  0.4099426610167854  1.0000
  C   C3        1.0  0.9634404945891291  0.40994968499484946  0.7200077106713039  1.0000
  C   C4        1.0  0.5365594766307354  0.27999398147056814  0.5900531022307618  1.0000
  C   C5        1.0  0.9682270551641137  0.44506659029185874  0.3021490236675747  1.0000
  C   C6        1.0  0.5317741786665664  0.6978488146169398  0.5549278294176362  1.0000
  C   C7        1.0  0.031772723941024594  0.5549369199627351  0.6978520970038176  1.0000
  C   C8        1.0  0.46822682689377615  0.3021488500901626  0.44506814598396716  1.0000
  C   C9        1.0  0.03210160254248961  0.34016392831451736  0.22654650349466013  1.0000
  C   C10       1.0  0.46789702464366906  0.7734501328303551  0.6598320378336169  1.0000
  C   C11       1.0  0.9678947635386593  0.6598360725980259  0.7734578970901324  1.0000
  C   C12       1.0  0.5321039853556755  0.2265475334686826  0.34016618324717746  1.0000
  C   C13       1.0  0.1621386105757949  0.38459995247894346  0.1305629690332709  1.0000
  C   C14       1.0  0.3378623788745259  0.8694371414861165  0.6153942237622374  1.0000
  C   C15       1.0  0.8378612545970725  0.6153977160024483  0.8694408882381737  1.0000
  C   C16       1.0  0.6621374628701914  0.13056169312120153  0.3846059422383092  1.0000
  C   C17       1.0  0.2231019919254607  0.5322111101385686  0.1132875213451571  1.0000
  C   C18       1.0  0.2769000752390554  0.8867104228539163  0.46778308177920286  1.0000
  C   C19       1.0  0.7769002141956494  0.467784223318212  0.886714691765988  1.0000
  C   C20       1.0  0.7230975071861536  0.1132849034128824  0.5322192193025046  1.0000
  C   C21       1.0  0.03287601111159691  0.9912431240840289  0.9212650159317093  1.0000
  C   C22       1.0  0.46712607726818334  0.07873657622197071  0.008757711900216205  1.0000
  C   C23       1.0  0.9671225494299804  0.008765060020337502  0.0787370814031547  1.0000
  C   C24       1.0  0.5328783580857959  0.921263429313342  0.9912353063400727  1.0000
  N   N1        1.0  0.16189561679850328  0.6332819595306347  0.18704918848569463  1.0000
  N   N2        1.0  0.338105317537739  0.8129472613575502  0.3667139724712031  1.0000
  N   N3        1.0  0.8381042249462141  0.3667168750766833  0.8129509775148519  1.0000
  N   N4        1.0  0.6618956946811069  0.18705040573745896  0.6332853714491975  1.0000
  O   O1        1.0  0.1574829816655452  0.9140571492092634  0.9251034187938032  1.0000
  O   O2        1.0  0.3425152933335838  0.07489528743794689  0.08594382860172801  1.0000
  O   O3        1.0  0.842514490030645  0.0859463590422749  0.0748999915420683  1.0000
  O   O4        1.0  0.6574880475028592  0.9251012147382199  0.9140557940854775  1.0000
  O   O5        1.0  0.9573885821195206  0.05432183906700062  0.798301612049883  1.0000
  O   O6        1.0  0.5426121990803453  0.20169924202521375  0.9456792274914393  1.0000
  O   O7        1.0  0.04261005339228059  0.9456804992843221  0.20169760768703784  1.0000
  O   O8        1.0  0.4573910746775169  0.7983019342062861  0.054319104187406715  1.0000
