data_image0
_chemical_formula_structural       Zn2H20C16O8
_chemical_formula_sum              "Zn2 H20 C16 O8"
_cell_length_a       4.790251651685449
_cell_length_b       9.393752663160074
_cell_length_c       10.990906218254105
_cell_angle_alpha    102.3481622513508
_cell_angle_beta     102.34628456762564
_cell_angle_gamma    90.14589106278159

_space_group_name_H-M_alt    "P 1"
_space_group_IT_number       1

loop_
  _space_group_symop_operation_xyz
  'x, y, z'

loop_
  _atom_site_type_symbol
  _atom_site_label
  _atom_site_symmetry_multiplicity
  _atom_site_fract_x
  _atom_site_fract_y
  _atom_site_fract_z
  _atom_site_occupancy
  Zn  Zn1       1.0  0.9100185081861271  0.5499592585589852  0.7515460113757655  1.0000
  Zn  Zn2       1.0  0.8421988463551884  0.0497988408584931  0.7518516366391382  1.0000
  H   H1        1.0  0.23227811626940556  0.8366384134794413  0.9093267618865823  1.0000
  H   H2        1.0  0.6756828063654082  0.33710583605746797  0.9085566552427196  1.0000
  H   H3        1.0  0.2701583465671646  0.7410856484700901  0.03172179023958683  1.0000
  H   H4        1.0  0.7597207065125602  0.2421586014089457  0.031267752980525615  1.0000
  H   H5        1.0  0.5070509889586033  0.9045935743200249  0.23180354318454027  1.0000
  H   H6        1.0  0.7206803967422672  0.4061366752715543  0.23152428004736691  1.0000
  H   H7        1.0  0.8069738921877133  0.0325578858232944  0.23525115785189854  1.0000
  H   H8        1.0  0.423879855738349  0.5330463218153129  0.23479977559966161  1.0000
  H   H9        1.0  0.5432904494523854  0.8853117137592365  0.482904072980631  1.0000
  H   H10       1.0  0.9425133274502429  0.3847115490204445  0.481916467604549  1.0000
  H   H11       1.0  0.3348530706681814  0.8907364494416683  0.5975630683546883  1.0000
  H   H12       1.0  0.26416363885361693  0.3921112394126922  0.5967636341901256  1.0000
  H   H13       1.0  0.9218952238067215  0.655409291462142  0.25928066475793793  1.0000
  H   H14       1.0  0.33650115646266704  0.15418343972649498  0.2573130343819443  1.0000
  H   H15       1.0  0.14011320745382955  0.8276443770070044  0.2902158504249002  1.0000
  H   H16       1.0  0.137512116120611  0.3223610298944167  0.2863110865463697  1.0000
  H   H17       1.0  0.7613110464721587  0.9420600477611885  0.004975123582063573  1.0000
  H   H18       1.0  0.2417761233638771  0.4415619559403866  0.004823963152702539  1.0000
  H   H19       1.0  0.16189079670808576  0.6139719112071802  0.4698922771089046  1.0000
  H   H20       1.0  0.3222091200061428  0.11791310461904911  0.4717975192875842  1.0000
  C   C1        1.0  0.5030685003192659  0.6621343885235262  0.8876621676151117  1.0000
  C   C2        1.0  0.38398271778198995  0.16218421359715052  0.8878951194597636  1.0000
  C   C3        1.0  0.673741489224696  0.7500753626455036  0.6148506961783795  1.0000
  C   C4        1.0  0.9436441461185864  0.2503282529113591  0.6148477782287571  1.0000
  C   C5        1.0  0.616754234776522  0.8986110895994132  0.05441534802644548  1.0000
  C   C6        1.0  0.43549368008910255  0.3988421468245633  0.05417555108521552  1.0000
  C   C7        1.0  0.21935983850455895  0.7103665459070428  0.43803639744459844  1.0000
  C   C8        1.0  0.22396890417873294  0.2111610904134125  0.4379688738381732  1.0000
  C   C9        1.0  0.3922409024718689  0.7866778070826328  0.9735214986065728  1.0000
  C   C10       1.0  0.5797599858570948  0.28718500967401894  0.9732936644596251  1.0000
  C   C11       1.0  0.645027539300841  0.948266468911264  0.1798064214201673  1.0000
  C   C12       1.0  0.5311549208217841  0.449015910792859  0.17946559427583966  1.0000
  C   C13       1.0  0.43994827523876273  0.8156351020788365  0.5311384331693247  1.0000
  C   C14       1.0  0.09416588158719462  0.3160814227337738  0.53064630030309  1.0000
  C   C15       1.0  0.08862114890756348  0.7315211868969199  0.32368311370452574  1.0000
  C   C16       1.0  0.23203002775819206  0.2293501996835374  0.3215822991795321  1.0000
  O   O1        1.0  0.3309371602998326  0.572500539095593  0.7993124260074821  1.0000
  O   O2        1.0  0.46872277109725496  0.07211480909627  0.7998731322276953  1.0000
  O   O3        1.0  0.7731637907927292  0.6509565246314535  0.903219180150579  1.0000
  O   O4        1.0  0.12898388941276548  0.15108426173745224  0.9033970188384614  1.0000
  O   O5        1.0  0.6827108459082609  0.6118153709351403  0.5987939250983487  1.0000
  O   O6        1.0  0.9187946470923618  0.11203994901410398  0.5990169809995082  1.0000
  O   O7        1.0  0.8554956207181518  0.8345919024616109  0.7036994340662588  1.0000
  O   O8        1.0  0.8492290328564566  0.3346115905903986  0.7036155168383831  1.0000
