data_image0
_chemical_formula_structural       Al2H20C28N2O10
_chemical_formula_sum              "Al2 H20 C28 N2 O10"
_cell_length_a       6.682646490525339
_cell_length_b       11.070116943229843
_cell_length_c       16.82996120227917
_cell_angle_alpha    77.43967899358375
_cell_angle_beta     84.11097524587018
_cell_angle_gamma    73.43695621825789

_space_group_name_H-M_alt    "P 1"
_space_group_IT_number       1

loop_
  _space_group_symop_operation_xyz
  'x, y, z'

loop_
  _atom_site_type_symbol
  _atom_site_label
  _atom_site_symmetry_multiplicity
  _atom_site_fract_x
  _atom_site_fract_y
  _atom_site_fract_z
  _atom_site_occupancy
  Al  Al1       1.0  0.491166378663486  0.5050391901052224  0.49557516892731707  1.0000
  Al  Al2       1.0  0.9908110364382023  0.5044040973925946  0.49610200545342303  1.0000
  H   H1        1.0  0.17785647698894994  0.6626927484239289  0.4411947737937965  1.0000
  H   H2        1.0  0.8073966318918125  0.34477254849095124  0.5434663444922023  1.0000
  H   H3        1.0  0.9213566897021862  0.4154285165370768  0.7428434554131726  1.0000
  H   H4        1.0  0.8476331166764127  0.42281130568657244  0.8912732565228509  1.0000
  H   H5        1.0  0.37588258837786975  0.5725833058465214  0.8867719507600071  1.0000
  H   H6        1.0  0.6137232646471418  0.43329559397719214  0.1054931345309811  1.0000
  H   H7        1.0  0.13877717145557963  0.5857446388477145  0.10173821335448  1.0000
  H   H8        1.0  0.06259845321167033  0.5937156096681804  0.2499664453418404  1.0000
  H   H9        1.0  0.9075927468681612  0.7445656713407514  0.6031988057312816  1.0000
  H   H10       1.0  0.08740433200406267  0.8435188730917604  0.6809395231052733  1.0000
  H   H11       1.0  0.6431851203273808  0.2104897072021644  0.6099099185369425  1.0000
  H   H12       1.0  0.9539733012976368  0.07751766715989564  0.6847653344870253  1.0000
  H   H13       1.0  0.16569011230141234  0.13249317817195555  0.4459273586010468  1.0000
  H   H14       1.0  0.2866653140950677  0.89631917902404  0.4486061054952303  1.0000
  H   H15       1.0  0.579070790595203  0.6149743276880743  0.7705015438401476  1.0000
  H   H16       1.0  0.4462820660511754  0.6653987435965333  0.6773534070964615  1.0000
  H   H17       1.0  0.6130860917294639  0.5102987809997047  0.7000510140006994  1.0000
  H   H18       1.0  0.3727797531329033  0.4949351566533479  0.2916420872792855  1.0000
  H   H19       1.0  0.5422147948097729  0.3406599926466854  0.3148503407685652  1.0000
  H   H20       1.0  0.4108025236629019  0.38973515472808623  0.22134239184098453  1.0000
  C   C1        1.0  0.6290298152190985  0.7297357493557401  0.5047415416413444  1.0000
  C   C2        1.0  0.773981510104235  0.521132051053016  0.3496104631217847  1.0000
  C   C3        1.0  0.352121251784304  0.2753585117550728  0.5017150415083265  1.0000
  C   C4        1.0  0.20952506304271168  0.48732892826384955  0.6428221726488275  1.0000
  C   C5        1.0  0.18650405564163466  0.49114695245385315  0.731434213269992  1.0000
  C   C6        1.0  0.019303080426361394  0.44987854054324583  0.7755314364179497  1.0000
  C   C7        1.0  0.9778344856222035  0.45381539864477116  0.857246771083183  1.0000
  C   C8        1.0  0.10737614319416618  0.5003430000880088  0.8966976138709413  1.0000
  C   C9        1.0  0.27767122511119874  0.538330276573028  0.8537308855081137  1.0000
  C   C10       1.0  0.32067045188944115  0.5358090891878292  0.7708434582347152  1.0000
  C   C11       1.0  0.7105588244109313  0.4683410410437645  0.1386526590286223  1.0000
  C   C12       1.0  0.8804763164828768  0.5070879912466496  0.09590549826272368  1.0000
  C   C13       1.0  0.008658005971547315  0.5543502609066098  0.13554766191980147  1.0000
  C   C14       1.0  0.9658275564832196  0.5585746983289326  0.2171786149751611  1.0000
  C   C15       1.0  0.7987582259440275  0.5167756207621182  0.2610350626819766  1.0000
  C   C16       1.0  0.6662965087032973  0.4710140864993734  0.22148299106208924  1.0000
  C   C17       1.0  0.5596550299070414  0.866782152121431  0.5141504246891415  1.0000
  C   C18       1.0  0.6751667214268621  0.9216709447819866  0.5569463954282554  1.0000
  C   C19       1.0  0.3751709723594133  0.9413905391209809  0.47826135324871194  1.0000
  C   C20       1.0  0.8524478264565899  0.8471250111477603  0.6024268342371428  1.0000
  C   C21       1.0  0.952402677346846  0.9027143885224832  0.6462477279713711  1.0000
  C   C22       1.0  0.4204852957943359  0.13235965729353444  0.5132028761082168  1.0000
  C   C23       1.0  0.3064260108324106  0.0738270160748087  0.47713352503659223  1.0000
  C   C24       1.0  0.6015295459154472  0.05722378091530092  0.5574684186797825  1.0000
  C   C25       1.0  0.7053175832662645  0.10994299457739491  0.6053979790210136  1.0000
  C   C26       1.0  0.8774944327418268  0.034869684353729724  0.6482586614688373  1.0000
  C   C27       1.0  0.4997578055103843  0.5839913233342104  0.727892026130796  1.0000
  C   C28       1.0  0.4880637661137186  0.42165437306569226  0.2641506389385242  1.0000
  N   N1        1.0  0.07954296832155448  0.5124220923457374  0.9792528735079812  1.0000
  N   N2        1.0  0.9091151102025068  0.49489242113513404  0.013422161909787176  1.0000
  O   O1        1.0  0.4851653794163866  0.6746576403524999  0.5053632854740115  1.0000
  O   O2        1.0  0.9390057085696666  0.514384033708538  0.3844598741605907  1.0000
  O   O3        1.0  0.15635578775739126  0.3292788301974385  0.5031048932844868  1.0000
  O   O4        1.0  0.39063003111999006  0.47453810891013865  0.6078367662449153  1.0000
  O   O5        1.0  0.49440383039744507  0.3340139035685255  0.4894694362270613  1.0000
  O   O6        1.0  0.0431515514277478  0.4958530161318253  0.6082380551347909  1.0000
  O   O7        1.0  0.8236241216076577  0.6779947001098633  0.494374671220065  1.0000
  O   O8        1.0  0.5925520852390561  0.5326049469153702  0.3842324822517611  1.0000
  O   O9        1.0  0.21889125136594603  0.5702112666935549  0.459849800098695  1.0000
  O   O10       1.0  0.7630924831683784  0.4381350237882274  0.5322777185052061  1.0000
