data_image0
_chemical_formula_structural       Ag8H48C40N24O24
_chemical_formula_sum              "Ag8 H48 C40 N24 O24"
_cell_length_a       6.6468561510061495
_cell_length_b       11.214079124002488
_cell_length_c       19.834610614022306
_cell_angle_alpha    89.99992562825626
_cell_angle_beta     90.00015542017803
_cell_angle_gamma    89.99998798718296

_space_group_name_H-M_alt    "P 1"
_space_group_IT_number       1

loop_
  _space_group_symop_operation_xyz
  'x, y, z'

loop_
  _atom_site_type_symbol
  _atom_site_label
  _atom_site_symmetry_multiplicity
  _atom_site_fract_x
  _atom_site_fract_y
  _atom_site_fract_z
  _atom_site_occupancy
  Ag  Ag1       1.0  0.5245513090299595  0.20647760309115884  0.2733107956881398  1.0000
  Ag  Ag2       1.0  0.9754460858696703  0.7935229834719237  0.7733100108892046  1.0000
  Ag  Ag3       1.0  0.47545413220767335  0.706477697899018  0.22669056478194702  1.0000
  Ag  Ag4       1.0  0.0245543421359784  0.29352216158329714  0.7266892372762825  1.0000
  Ag  Ag5       1.0  0.47545313006514084  0.7935239575348518  0.7266902648836577  1.0000
  Ag  Ag6       1.0  0.024550830868591302  0.206475901947158  0.22669004134174034  1.0000
  Ag  Ag7       1.0  0.5245503068874343  0.2935238627269925  0.7733104957898433  1.0000
  Ag  Ag8       1.0  0.9754485924808166  0.7064767238365731  0.2733098066189683  1.0000
  H   H1        1.0  0.2363865971978498  0.36887166022292206  0.3035557153634371  1.0000
  H   H2        1.0  0.26361497678531987  0.6311271332302794  0.8035553627599512  1.0000
  H   H3        1.0  0.7636172791652953  0.8688717896428314  0.1964435077794278  1.0000
  H   H4        1.0  0.7363840071477271  0.1311280794789127  0.696444510224417  1.0000
  H   H5        1.0  0.7636148329522073  0.6311281169320678  0.6964443368692272  1.0000
  H   H6        1.0  0.736387957829429  0.36887175219015933  0.1964431769660919  1.0000
  H   H7        1.0  0.2363856554532049  0.13112887924880567  0.8035560402843771  1.0000
  H   H8        1.0  0.26361742300436225  0.8688716976755017  0.3035560461774551  1.0000
  H   H9        1.0  0.9914083054978493  0.3660314072382532  0.3289319044658043  1.0000
  H   H10       1.0  0.5085940529016427  0.6339690532019232  0.8289323261940993  1.0000
  H   H11       1.0  0.008597076392391  0.8660307914702228  0.1710673207881683  1.0000
  H   H12       1.0  0.4914034255058439  0.13397008587249098  0.6710680488473812  1.0000
  H   H13       1.0  0.0085901157083654  0.633971045125996  0.6710676435952863  1.0000
  H   H14       1.0  0.4914088817151452  0.3660298322179472  0.17106671770115867  1.0000
  H   H15       1.0  0.9914058582206451  0.13396631047844207  0.8289307147693278  1.0000
  H   H16       1.0  0.5085980046499969  0.8660314747531287  0.3289335158922597  1.0000
  H   H17       1.0  0.912126149710666  0.28503311318397817  0.4336070060966648  1.0000
  H   H18       1.0  0.5878755512435206  0.7149671099047341  0.9336074397403848  1.0000
  H   H19       1.0  0.08787625335824602  0.7850318336861406  0.0663912709949557  1.0000
  H   H20       1.0  0.41212340150869414  0.21496838927367182  0.5663923709554552  1.0000
  H   H21       1.0  0.0878707670230199  0.7149684474447683  0.5663920377948628  1.0000
  H   H22       1.0  0.4121258789022875  0.28503355898757116  0.0663916041535231  1.0000
  H   H23       1.0  0.9121251767819345  0.2149661599993563  0.9336062603923098  1.0000
  H   H24       1.0  0.5878750197097631  0.7850340630871528  0.433610202120903  1.0000
  H   H25       1.0  0.0029328014280097  0.1367560657847875  0.5234909432252977  1.0000
  H   H26       1.0  0.49706650628856164  0.8632424709804806  0.0234911655813548  1.0000
  H   H27       1.0  0.9970646759393421  0.6367546408986938  0.9765084214080774  1.0000
  H   H28       1.0  0.5029373721702869  0.3632419179663771  0.4765085659131429  1.0000
  H   H29       1.0  0.9970641153097546  0.8632454948428075  0.47650910900465254  1.0000
  H   H30       1.0  0.5029364283280631  0.1367573061755607  0.9765078783135691  1.0000
  H   H31       1.0  0.002927727387799501  0.36323978583978794  0.0234916308224697  1.0000
  H   H32       1.0  0.49705954457564167  0.63675964265893  0.5234935029936523  1.0000
  H   H33       1.0  0.30925802582444106  0.008805302199192502  0.5065288610667266  1.0000
  H   H34       1.0  0.1907396401597978  0.9911923812931958  0.0065277014761875  1.0000
  H   H35       1.0  0.6907379946641471  0.5088047666978213  0.9934721111335136  1.0000
  H   H36       1.0  0.809264190709371  0.4911917537034682  0.49347092662031145  1.0000
  H   H37       1.0  0.6907388909131599  0.9911971501645735  0.49347119116288946  1.0000
  H   H38       1.0  0.8092602855175599  0.0088073958624477  0.9934718465865798  1.0000
  H   H39       1.0  0.30925591313877027  0.49119501045588976  0.006529453603370399  1.0000
  H   H40       1.0  0.1907357349700334  0.508808023451607  0.5065291256116708  1.0000
  H   H41       1.0  0.5257644709945808  0.0466078854835743  0.40403134469807606  1.0000
  H   H42       1.0  0.9742384950981416  0.9533924046701542  0.9040299358552133  1.0000
  H   H43       1.0  0.4742365162858562  0.5466082768448787  0.0959696303748743  1.0000
  H   H44       1.0  0.025766386860958307  0.45339009557558546  0.5959686893696556  1.0000
  H   H45       1.0  0.4742324457450593  0.9533945668796232  0.5959692117007548  1.0000
  H   H46       1.0  0.0257614305773473  0.0466064807498938  0.0959691080386733  1.0000
  H   H47       1.0  0.5257573915151924  0.4533906085732368  0.9040314301931218  1.0000
  H   H48       1.0  0.9742365477580394  0.5466078981075384  0.404030858695144  1.0000
  C   C1        1.0  0.16965309609882692  0.2406666762032899  0.3726919524944847  1.0000
  C   C2        1.0  0.3303490373327946  0.7593328522186269  0.8726920694931835  1.0000
  C   C3        1.0  0.8303523324133835  0.7406669545234121  0.1273068617289042  1.0000
  C   C4        1.0  0.6696498989155588  0.25933307136740774  0.6273066999033717  1.0000
  C   C5        1.0  0.8303483340471517  0.7593331009528367  0.62730709139975  1.0000
  C   C6        1.0  0.6696508883445702  0.24066692493701675  0.127307478569584  1.0000
  C   C7        1.0  0.16965361114454677  0.2593328226324516  0.8726921821673841  1.0000
  C   C8        1.0  0.33035153123636724  0.7406675975231849  0.3726938564981737  1.0000
  C   C9        1.0  0.045978318557239106  0.22981954015270392  0.42961260430832476  1.0000
  C   C10       1.0  0.4540182575910593  0.7701798592014696  0.9296128257056323  1.0000
  C   C11       1.0  0.9540180871675475  0.7298181494886721  0.0703867221396095  1.0000
  C   C12       1.0  0.5459821790958729  0.2701802219968528  0.57038643980205  1.0000
  C   C13       1.0  0.954015589234821  0.7701838039485622  0.5703864395811706  1.0000
  C   C14       1.0  0.5459816680842664  0.22981991795474951  0.0703862181879273  1.0000
  C   C15       1.0  0.045975820620043406  0.27017627725257404  0.9296108092455597  1.0000
  C   C16       1.0  0.45401624211850594  0.7298222303651157  0.4296151249358857  1.0000
  C   C17       1.0  0.09583217602387611  0.14670342825428412  0.4785629507949025  1.0000
  C   C18       1.0  0.40417081411033  0.8532949683682177  0.978563065111807  1.0000
  C   C19       1.0  0.9041702784947249  0.6467039379345607  0.0214364374056757  1.0000
  C   C20       1.0  0.595831096134333  0.3532936528104145  0.5214356344781024  1.0000
  C   C21       1.0  0.9041692541282202  0.8532963489001303  0.5214376056069767  1.0000
  C   C22       1.0  0.5958306160336023  0.1467048087884848  0.0214354746132202  1.0000
  C   C23       1.0  0.09582814271436042  0.3532940557482576  0.9785636148262853  1.0000
  C   C24       1.0  0.40416732507833336  0.6467070160797802  0.4785654260912864  1.0000
  C   C25       1.0  0.2677540325288703  0.0763918143768549  0.4697315229962058  1.0000
  C   C26       1.0  0.23224587719737852  0.923608385744302  0.9697309245723461  1.0000
  C   C27       1.0  0.732243934731649  0.576390540825976  0.030268925778990798  1.0000
  C   C28       1.0  0.7677560068993615  0.42360613815507253  0.5302682269481949  1.0000
  C   C29       1.0  0.7322428842085671  0.9236115297230895  0.5302685292330764  1.0000
  C   C30       1.0  0.7677585618941407  0.0763904996743392  0.0302691276620166  1.0000
  C   C31       1.0  0.26774395518116734  0.4236056693856866  0.9697306222796342  1.0000
  C   C32       1.0  0.23224241431125855  0.5763945307356977  0.4697323294519791  1.0000
  C   C33       1.0  0.386444498370139  0.0954188463300767  0.41307958806750383  1.0000
  C   C34       1.0  0.11355796187074667  0.9045805905140798  0.9130783916843228  1.0000
  C   C35       1.0  0.6135564707528545  0.5954201335216069  0.0869203424028839  1.0000
  C   C36       1.0  0.8864454337732683  0.4045782004729189  0.5869207739735458  1.0000
  C   C37       1.0  0.6135554273131802  0.9045818225600256  0.5869214725025671  1.0000
  C   C38       1.0  0.8864434682771007  0.09542007837764999  0.0869211563787999  1.0000
  C   C39       1.0  0.38644044598866156  0.40458321057719354  0.9130807181648278  1.0000
  C   C40       1.0  0.1135575008474348  0.5954215766819785  0.4130792782598006  1.0000
  N   N1        1.0  0.3386547793076602  0.17577146654225828  0.3651567403996552  1.0000
  N   N2        1.0  0.1613457886796681  0.824229862437903  0.8651571596761514  1.0000
  N   N3        1.0  0.661346159929849  0.6757708559628881  0.1348426262047298  1.0000
  N   N4        1.0  0.8386546279102376  0.3242273693675841  0.6348430740148955  1.0000
  N   N5        1.0  0.6613421374260257  0.8242300940864878  0.6348423034918724  1.0000
  N   N6        1.0  0.8386571459410421  0.1757699147169944  0.1348428925571952  1.0000
  N   N7        1.0  0.3386462433945852  0.3242271377208538  0.8651569218552809  1.0000
  N   N8        1.0  0.1613468022418587  0.6757724077868302  0.36515748238698353  1.0000
  N   N9        1.0  0.1177606635295732  0.3160888937910471  0.319094680313782  1.0000
  N   N10       1.0  0.38223953172352765  0.6839107561636196  0.8190943963636101  1.0000
  N   N11       1.0  0.8822402235224446  0.8160899361974573  0.180904582042011  1.0000
  N   N12       1.0  0.6177609370496671  0.1839108598952564  0.68090543740648  1.0000
  N   N13       1.0  0.88223474873584  0.6839108833648664  0.6809048677469319  1.0000
  N   N14       1.0  0.6177618984222806  0.31608991272868536  0.1809046475302978  1.0000
  N   N15       1.0  0.11776120662353412  0.18390984095867677  0.8190944618522309  1.0000
  N   N16       1.0  0.3822419975749511  0.8160898089946684  0.3190956231649551  1.0000
  N   N17       1.0  0.38016672037036875  0.9901684650983854  0.17579100495783  1.0000
  N   N18       1.0  0.11983532422166122  0.009830618061179998  0.6757914873701552  1.0000
  N   N19       1.0  0.619835606415002  0.4901682436438009  0.3242091364061821  1.0000
  N   N20       1.0  0.8801652092934094  0.5098304440342573  0.8242084757318223  1.0000
  N   N21       1.0  0.6198347097836037  0.009832203791624701  0.8242100556129301  1.0000
  N   N22       1.0  0.8801676104012516  0.990168267356978  0.3242090690327331  1.0000
  N   N23       1.0  0.3801673282036617  0.5098315335116653  0.6757904116579497  1.0000
  N   N24       1.0  0.11983622085664081  0.4901693331207256  0.17579157650084198  1.0000
  O   O1        1.0  0.541489745123009  0.9870384221837083  0.21057724257553193  1.0000
  O   O2        1.0  0.9585101510857117  0.012962306626768302  0.7105775264572216  1.0000
  O   O3        1.0  0.4585125828264297  0.48703829862511566  0.2894229011138947  1.0000
  O   O4        1.0  0.0414903812687086  0.5129623103455855  0.7894234426564424  1.0000
  O   O5        1.0  0.458513189497694  0.0129613549711891  0.7894228096578219  1.0000
  O   O6        1.0  0.041489774595561406  0.9870383622639096  0.2894230299436416  1.0000
  O   O7        1.0  0.541490351796483  0.5129605867930351  0.7105776552890006  1.0000
  O   O8        1.0  0.9585095444127347  0.48703746680892096  0.21057711374474758  1.0000
  O   O9        1.0  0.302990312758837  0.8940473610699157  0.1535379849038279  1.0000
  O   O10       1.0  0.1970115517609017  0.10595177254910482  0.6535379619122921  1.0000
  O   O11       1.0  0.6970120497728873  0.3940461883226405  0.3464617237039107  1.0000
  O   O12       1.0  0.8029904504786245  0.6059515571597061  0.8464624339469681  1.0000
  O   O13       1.0  0.6970111173905525  0.10595598302975867  0.846462067327508  1.0000
  O   O14       1.0  0.8029913828599649  0.8940471128696216  0.3464620903213813  1.0000
  O   O15       1.0  0.302990884849855  0.6059535888316886  0.6535388326986508  1.0000
  O   O16       1.0  0.19701248414411762  0.394048219994623  0.1535381224555934  1.0000
  O   O17       1.0  0.297141121213116  0.08914755394954452  0.163590406987332  1.0000
  O   O18       1.0  0.20286232912669533  0.910851556873837  0.6635918079968733  1.0000
  O   O19       1.0  0.7028598502508245  0.5891464814202861  0.3364115448199954  1.0000
  O   O20       1.0  0.7971395597181257  0.4108512868555039  0.8364083613389681  1.0000
  O   O21       1.0  0.7028603089466402  0.9108548984111025  0.8364121660903977  1.0000
  O   O22       1.0  0.7971406054984201  0.0891464368075745  0.3364092525755638  1.0000
  O   O23       1.0  0.29714157989939594  0.4108524039985328  0.663588507412996  1.0000
  O   O24       1.0  0.20286187043600287  0.589148490298342  0.1635926992321188  1.0000
