data_image0
_chemical_formula_structural       Al4H20C36I5N3O26
_chemical_formula_sum              "Al4 H20 C36 I5 N3 O26"
_cell_length_a       6.792383209812278
_cell_length_b       16.527182104693416
_cell_length_c       18.494920417742826
_cell_angle_alpha    106.51939044956912
_cell_angle_beta     89.76935177044152
_cell_angle_gamma    90.55006656508729

_space_group_name_H-M_alt    "P 1"
_space_group_IT_number       1

loop_
  _space_group_symop_operation_xyz
  'x, y, z'

loop_
  _atom_site_type_symbol
  _atom_site_label
  _atom_site_symmetry_multiplicity
  _atom_site_fract_x
  _atom_site_fract_y
  _atom_site_fract_z
  _atom_site_occupancy
  Al  Al1       1.0  0.12965533963485854  0.5024201741215608  0.4999794491504231  1.0000
  Al  Al2       1.0  0.6318469692879561  0.5039457569621462  0.5022844799012205  1.0000
  Al  Al3       1.0  0.6444564465648455  0.0014124370178266  0.9964686957563913  1.0000
  Al  Al4       1.0  0.14221874234931417  0.00020719814750689926  0.9971302478334111  1.0000
  H   H1        1.0  0.6503627893706819  0.8511194144850693  0.7539529858226358  1.0000
  H   H2        1.0  0.9709298899298632  0.7813696911398863  0.6398914811439765  1.0000
  H   H3        1.0  0.7159538263700754  0.7567280046950345  0.6343772353352078  1.0000
  H   H4        1.0  0.6162166499523137  0.767871886429731  0.8460670890073984  1.0000
  H   H5        1.0  0.5846885712262093  0.6751128689267175  0.722958979734976  1.0000
  H   H6        1.0  0.17624694534135438  0.7716034644005421  0.8420086588020581  1.0000
  H   H7        1.0  0.19011151587862685  0.8251193265067729  0.772640671514381  1.0000
  H   H8        1.0  0.2068023812084405  0.6913002085973049  0.6853041361636939  1.0000
  H   H9        1.0  0.8270713523763858  0.7147604141371178  0.8648915301937521  1.0000
  H   H10       1.0  0.7395136021992386  0.6087901900031484  0.7561320739279012  1.0000
  H   H11       1.0  0.6449278731944191  0.262010803582669  0.3367636994320192  1.0000
  H   H12       1.0  0.6799203025596796  0.1617273153919002  0.2190552893902407  1.0000
  H   H13       1.0  0.6682314182895438  0.23799089798864512  0.17193848189211988  1.0000
  H   H14       1.0  0.11029849921598611  0.2628270517774781  0.3290116033010476  1.0000
  H   H15       1.0  0.31364440049900116  0.22943516003974915  0.37246985970842417  1.0000
  H   H16       1.0  0.12202840968488722  0.341939584329893  0.2572608945465902  1.0000
  H   H17       1.0  0.38329164942295085  0.5991154848707156  0.4825793482682244  1.0000
  H   H18       1.0  0.877003313398646  0.4017344755348092  0.44410071193384226  1.0000
  H   H19       1.0  0.39332290835906747  0.9040072461660816  0.013657304897158468  1.0000
  H   H20       1.0  0.8982019069702433  0.11208820315548003  0.012151376707834106  1.0000
  C   C1        1.0  0.3799624364024012  0.3910806099255383  0.38315800829967367  1.0000
  C   C2        1.0  0.37602571308930527  0.41733452149537  0.5850521895047719  1.0000
  C   C3        1.0  0.8840135638133048  0.61218186221884  0.6177657757080297  1.0000
  C   C4        1.0  0.8842876084602408  0.5910163179591451  0.41591018554545656  1.0000
  C   C5        1.0  0.8845397093913121  0.6387632189631702  0.3619343918382043  1.0000
  C   C6        1.0  0.8849446071692738  0.6815312158961788  0.31755217357600424  1.0000
  C   C7        1.0  0.8853516207521038  0.7287706226110374  0.2694947120634339  1.0000
  C   C8        1.0  0.8855688366748853  0.7729130315947687  0.22578285548772203  1.0000
  C   C9        1.0  0.8859599046736831  0.8205729636760212  0.17808254790996605  1.0000
  C   C10       1.0  0.8866638472211507  0.8639903454905067  0.1342253312825932  1.0000
  C   C11       1.0  0.8072291144932962  0.8373459654134764  0.7441848961780194  1.0000
  C   C12       1.0  0.8452586043955179  0.7661646674339623  0.6714195839114011  1.0000
  C   C13       1.0  0.7578713315261679  0.7409702577594501  0.8228672747865317  1.0000
  C   C14       1.0  0.1026285759020311  0.7784783175289793  0.7915974171543282  1.0000
  C   C15       1.0  0.8939524222371203  0.812682141031111  0.8116648159415546  1.0000
  C   C16       1.0  0.8891549211006052  0.6824263509116193  0.6916708438781568  1.0000
  C   C17       1.0  0.72997677132944  0.6716620024919706  0.7475497110378198  1.0000
  C   C18       1.0  0.0936269502717124  0.6949441174844255  0.7283048316922418  1.0000
  C   C19       1.0  0.5932948490991947  0.2850437763407498  0.29029687077688476  1.0000
  C   C20       1.0  0.5942306427381966  0.21577332436078933  0.2151638599363039  1.0000
  C   C21       1.0  0.2781340634140363  0.3412364208189872  0.24237681373352868  1.0000
  C   C22       1.0  0.26453254690897415  0.24405052916317524  0.321136225187466  1.0000
  C   C23       1.0  0.38497786423707947  0.31953635174334494  0.30836731938603623  1.0000
  C   C24       1.0  0.38631953889191806  0.18839633555661814  0.1861404712919636  1.0000
  C   C25       1.0  0.30247266733749717  0.2695892903656585  0.16763285391795074  1.0000
  C   C26       1.0  0.28623441488716855  0.1653038024945488  0.2546935205750955  1.0000
  C   C27       1.0  0.37448695110892766  0.3682034174272957  0.638029131615049  1.0000
  C   C28       1.0  0.37721190754712813  0.3241310678272101  0.6813134281287176  1.0000
  C   C29       1.0  0.38072405344841803  0.27561500270447686  0.7283371207997291  1.0000
  C   C30       1.0  0.38501706604593977  0.23045257837851107  0.7711722942976991  1.0000
  C   C31       1.0  0.38934142279110523  0.18174143815799232  0.8180147835029814  1.0000
  C   C32       1.0  0.39321571848460474  0.13763666972489122  0.861257746345153  1.0000
  C   C33       1.0  0.39439797770425133  0.08711448484093151  0.9129928110532219  1.0000
  C   C34       1.0  0.3940772255812917  0.1141947837991069  0.1130099432954239  1.0000
  C   C35       1.0  0.8899293761363225  0.9134034978548514  0.08159811407837474  1.0000
  C   C36       1.0  0.8920019604222064  0.886567245625983  0.883130396418032  1.0000
  I   I1        1.0  0.17534326391595564  0.5874978302347389  0.7698448961488821  1.0000
  I   I2        1.0  0.30101484455963856  0.47037372615933754  0.23731035491666563  1.0000
  I   I3        1.0  0.4818338824904841  0.29933824612577814  0.07946440294401208  1.0000
  I   I4        1.0  0.9239691103263539  0.9572380297376669  0.7330935368390427  1.0000
  I   I5        1.0  0.0189911630700834  0.08798344595587082  0.2454818158455652  1.0000
  N   N1        1.0  0.7437719795795488  0.3514218656051327  0.28670019150159476  1.0000
  N   N2        1.0  0.43476272876789324  0.10102696067662718  0.2752382255106625  1.0000
  N   N3        1.0  0.09446534351577178  0.2481272950135535  0.1315293654736109  1.0000
  O   O1        1.0  0.5449732868393652  0.43620213583406553  0.5642337391554192  1.0000
  O   O2        1.0  0.21277728389691225  0.4142922197868943  0.4111553690719987  1.0000
  O   O3        1.0  0.05279986767823169  0.5716374079892149  0.4357049849600044  1.0000
  O   O4        1.0  0.20934060443075714  0.4356124442344438  0.56317978935121  1.0000
  O   O5        1.0  0.0479760716379332  0.5875155083701531  0.586379865694525  1.0000
  O   O6        1.0  0.5464165295104735  0.41695744492243864  0.4118006709381845  1.0000
  O   O7        1.0  0.3817700091026525  0.5535941170246164  0.5062010404233206  1.0000
  O   O8        1.0  0.715079245930106  0.5864991808275734  0.5910009686552016  1.0000
  O   O9        1.0  0.7154684662486376  0.5743562679196048  0.438963254205376  1.0000
  O   O10       1.0  0.8788004054772854  0.4513338569709618  0.4879352444103588  1.0000
  O   O11       1.0  0.2265250878595992  0.08788856247473122  0.08600078867496559  1.0000
  O   O12       1.0  0.5624750838640153  0.0685737443543033  0.9337470155276221  1.0000
  O   O13       1.0  0.7243436748010624  0.9147878145379521  0.9087447793065164  1.0000
  O   O14       1.0  0.5617933937184674  0.09002268250614524  0.0861860585553771  1.0000
  O   O15       1.0  0.7231293223272318  0.9329126615116083  0.06043248163432216  1.0000
  O   O16       1.0  0.22668607464039073  0.0664761602487829  0.9334281496890142  1.0000
  O   O17       1.0  0.3931497810570264  0.9510287068031077  0.9919280122626118  1.0000
  O   O18       1.0  0.0595966554864304  0.9320551078351613  0.06117575862731429  1.0000
  O   O19       1.0  0.0580165437840918  0.9126812152243603  0.9123557347926974  1.0000
  O   O20       1.0  0.8946219495629109  0.0518843289664943  0.006947991022066398  1.0000
  O   O21       1.0  0.7200417493068088  0.3920697667546023  0.2411657823338728  1.0000
  O   O22       1.0  0.8896595791323278  0.35838899779922434  0.32845443575554606  1.0000
  O   O23       1.0  0.4976436154926774  0.11756007833542272  0.3402360507503985  1.0000
  O   O24       1.0  0.47773556781893234  0.03824910445667481  0.2233516547374279  1.0000
  O   O25       1.0  0.06423379345118718  0.24050609294452846  0.06461421862388049  1.0000
  O   O26       1.0  0.970819775720635  0.23737985967368053  0.17693019506825178  1.0000
