data_image0
_chemical_formula_structural       Cu12H72C120N36
_chemical_formula_sum              "Cu12 H72 C120 N36"
_cell_length_a       32.90665065657719
_cell_length_b       32.931518381518984
_cell_length_c       33.64202259328428
_cell_angle_alpha    89.70421043922543
_cell_angle_beta     92.83116299580296
_cell_angle_gamma    89.82663619669104

_space_group_name_H-M_alt    "P 1"
_space_group_IT_number       1

loop_
  _space_group_symop_operation_xyz
  'x, y, z'

loop_
  _atom_site_type_symbol
  _atom_site_label
  _atom_site_symmetry_multiplicity
  _atom_site_fract_x
  _atom_site_fract_y
  _atom_site_fract_z
  _atom_site_occupancy
  Cu  Cu1       1.0  0.8759500195036408  0.9125644204210206  0.83313086312085  1.0000
  Cu  Cu2       1.0  0.8388787683940534  0.8764138272999705  0.9103515967960334  1.0000
  Cu  Cu3       1.0  0.9113093816583413  0.8299475377782743  0.870206161107461  1.0000
  Cu  Cu4       1.0  0.13205073900707728  0.5905301369865512  0.3388316070653161  1.0000
  Cu  Cu5       1.0  0.1716727686744051  0.6263039862686314  0.4192219206607462  1.0000
  Cu  Cu6       1.0  0.09015086283066859  0.6649501803530101  0.3789453088079142  1.0000
  Cu  Cu7       1.0  0.36106562730341096  0.09996980167360903  0.6688970692267233  1.0000
  Cu  Cu8       1.0  0.3283624820608964  0.12574183417827814  0.5823479541129329  1.0000
  Cu  Cu9       1.0  0.4150360455661328  0.15462135527059936  0.6150580484396357  1.0000
  Cu  Cu10      1.0  0.6243000629956513  0.4136135938125777  0.16421340792300754  1.0000
  Cu  Cu11      1.0  0.6615406351737577  0.3735209694495652  0.0889547399897452  1.0000
  Cu  Cu12      1.0  0.5870904721791703  0.3313310320281246  0.1287807761827864  1.0000
  H   H1        1.0  0.8140440157269281  0.985704111403287  0.8139240295048182  1.0000
  H   H2        1.0  0.7734024905125451  0.9444847476477849  0.927766127607839  1.0000
  H   H3        1.0  0.9778071897346693  0.8090761544487037  0.8073119009591635  1.0000
  H   H4        1.0  0.9392763392459286  0.9289469815326897  0.7671601377235007  1.0000
  H   H5        1.0  0.8221444745939551  0.8161085770946814  0.9812555259465795  1.0000
  H   H6        1.0  0.925874860524054  0.757095981070009  0.9317661428880086  1.0000
  H   H7        1.0  0.1963366221449405  0.5227440084733247  0.3202385870976414  1.0000
  H   H8        1.0  0.24504944904633416  0.563413819920918  0.4351321567225597  1.0000
  H   H9        1.0  0.016779177351537597  0.6824931616794533  0.3151946790903537  1.0000
  H   H10       1.0  0.06897305524720569  0.5738743791608485  0.2662443329072204  1.0000
  H   H11       1.0  0.18693079614848065  0.6869173076546744  0.4917204100505613  1.0000
  H   H12       1.0  0.0710989343507862  0.7317269841988294  0.442612840143461  1.0000
  H   H13       1.0  0.294845383455332  0.034798364938510004  0.6907115080848172  1.0000
  H   H14       1.0  0.2597239739343635  0.05841178004073561  0.5669532569120435  1.0000
  H   H15       1.0  0.49707171170903297  0.15782086473929982  0.6694905147209766  1.0000
  H   H16       1.0  0.4160452954927791  0.09950964085096102  0.7496594029656904  1.0000
  H   H17       1.0  0.31205684843563125  0.19015525178213727  0.5114937571069902  1.0000
  H   H18       1.0  0.4366494657589469  0.21839585117379565  0.5485905804809974  1.0000
  H   H19       1.0  0.6863618163813925  0.48665218332187987  0.17978485564172084  1.0000
  H   H20       1.0  0.7309661661426716  0.436784038101557  0.0712444121240949  1.0000
  H   H21       1.0  0.5209235791183033  0.31278602082540635  0.1919645033680482  1.0000
  H   H22       1.0  0.5622330949491996  0.4314200023462791  0.23120346632033767  1.0000
  H   H23       1.0  0.6770819320187299  0.31174946956950583  0.019707016111041798  1.0000
  H   H24       1.0  0.5694884566224088  0.25880981117475693  0.06777415619502848  1.0000
  H   H25       1.0  0.7088379721133792  0.0800503640248067  0.9336630987352876  1.0000
  H   H26       1.0  0.6785244860382773  0.0593264995578267  0.8098542034513017  1.0000
  H   H27       1.0  0.7320281828720353  0.005745532601089601  0.8084460204112318  1.0000
  H   H28       1.0  0.7617457501982939  0.025779478347402605  0.9330046821828546  1.0000
  H   H29       1.0  0.3156833818693201  0.42771510913912186  0.43570181537870667  1.0000
  H   H30       1.0  0.32837538022863544  0.45210973936398363  0.3114198087830147  1.0000
  H   H31       1.0  0.27564827015272897  0.5064104849394512  0.31345699540521815  1.0000
  H   H32       1.0  0.2642270196971026  0.48307777389733536  0.43862005265338405  1.0000
  H   H33       1.0  0.1957161183267288  0.9228699678542968  0.5716864253708565  1.0000
  H   H34       1.0  0.16612714741410878  0.9552588039733155  0.6902954632660965  1.0000
  H   H35       1.0  0.21611619597940285  0.011830165443782905  0.6898629176194646  1.0000
  H   H36       1.0  0.24524405704310934  0.979774314757975  0.5704532037687855  1.0000
  H   H37       1.0  0.8000674913793446  0.5706633230610123  0.06110489044245071  1.0000
  H   H38       1.0  0.8209739233596736  0.5569841317921063  0.18749688873630527  1.0000
  H   H39       1.0  0.7667730155458158  0.5043208675459142  0.1885294024450417  1.0000
  H   H40       1.0  0.7471724029813344  0.5166629078046655  0.061380485265431196  1.0000
  H   H41       1.0  0.07211533310749732  0.9321786464430631  0.7042102981960809  1.0000
  H   H42       1.0  0.045438776867087  0.8078816445666918  0.675503666843916  1.0000
  H   H43       1.0  0.9930653074546356  0.8063794050701891  0.7264629175751693  1.0000
  H   H44       1.0  0.019335096415595398  0.9314165428129971  0.7547311303041511  1.0000
  H   H45       1.0  0.45412685364725996  0.3089843017439621  0.3214893797576011  1.0000
  H   H46       1.0  0.43085963954053597  0.43554777382517784  0.2985677274826415  1.0000
  H   H47       1.0  0.483011150712123  0.435847956107125  0.2474175805295076  1.0000
  H   H48       1.0  0.5056931248826046  0.30855051258578925  0.2697982191604993  1.0000
  H   H49       1.0  0.9458351650064856  0.6913812724180206  0.179125326569455  1.0000
  H   H50       1.0  0.9318547344867838  0.5628013845060951  0.19538206679628442  1.0000
  H   H51       1.0  0.9871530087521021  0.5631026325298552  0.24873085114423787  1.0000
  H   H52       1.0  0.9995041754655886  0.6925305678065572  0.2340196328730144  1.0000
  H   H53       1.0  0.5184217514679474  0.1495351316183999  0.8540596661624065  1.0000
  H   H54       1.0  0.604269928752359  0.10923841660431322  0.7705373290908923  1.0000
  H   H55       1.0  0.5498507904773007  0.11033561301390904  0.7163847970592059  1.0000
  H   H56       1.0  0.4631867698488391  0.14857159406259512  0.8006675728295889  1.0000
  H   H57       1.0  0.9387629551701975  0.6899303801135519  0.065617479816396  1.0000
  H   H58       1.0  0.808335139311879  0.6841972939491825  0.053428382226059105  1.0000
  H   H59       1.0  0.8081717829461823  0.73688658691664  3.965741881731807e-05  1.0000
  H   H60       1.0  0.9392016924592211  0.7407782960809683  0.010556956679451389  1.0000
  H   H61       1.0  0.3183778857789433  0.3256844884004835  0.4430117713350511  1.0000
  H   H62       1.0  0.43978987667163943  0.2889589294749086  0.4182097497135899  1.0000
  H   H63       1.0  0.43743036829704346  0.23476258359539773  0.46996422217552686  1.0000
  H   H64       1.0  0.31508584012248525  0.2709249857273975  0.4940440007173379  1.0000
  H   H65       1.0  0.5587337805568282  0.18913097772484386  0.9350134061031383  1.0000
  H   H66       1.0  0.6890289502167873  0.18216022117321987  0.9487931344588246  1.0000
  H   H67       1.0  0.6886718146640122  0.23444031099862173  0.0019817174373671174  1.0000
  H   H68       1.0  0.5577392973723221  0.24000081710424587  0.9894635146905486  1.0000
  H   H69       1.0  0.1887214157458956  0.8195048724639451  0.5646489542905754  1.0000
  H   H70       1.0  0.0609832832254469  0.797527993446913  0.5742248318840169  1.0000
  H   H71       1.0  0.0629217709946346  0.7458694144526847  0.5205956456907899  1.0000
  H   H72       1.0  0.1915554795277856  0.766582732869587  0.5123464321415412  1.0000
  C   C1        1.0  0.3550716790361221  0.4030815075926455  0.3720649986142135  1.0000
  C   C2        1.0  0.38069346122183134  0.3436552966539922  0.39763046722934786  1.0000
  C   C3        1.0  0.4085163523784344  0.37253987840318814  0.3437520372749247  1.0000
  C   C4        1.0  0.6576572433720215  0.1036242590915464  0.872855291368772  1.0000
  C   C5        1.0  0.5972878872179094  0.1286987441865506  0.8474416287710368  1.0000
  C   C6        1.0  0.6245885372207454  0.15278342186552857  0.9059773684581032  1.0000
  C   C7        1.0  0.8456313383995065  0.5983785209627754  0.12398341281931381  1.0000
  C   C8        1.0  0.8737614601014697  0.6534435150008734  0.0951506975436871  1.0000
  C   C9        1.0  0.9031524651565519  0.6265366447699279  0.1519864813354275  1.0000
  C   C10       1.0  0.14838241777815847  0.9017536224203087  0.631109985791376  1.0000
  C   C11       1.0  0.0934638167168416  0.8711168128974337  0.6568106610599928  1.0000
  C   C12       1.0  0.12310654020369328  0.8435318889166227  0.6035037335663134  1.0000
  C   C13       1.0  0.8085864516350441  0.9701046881342851  0.8416402273888507  1.0000
  C   C14       1.0  0.7808529974319923  0.9793164353417226  0.8707244911158938  1.0000
  C   C15       1.0  0.7885329292547069  0.9496017964527045  0.9002420501812125  1.0000
  C   C16       1.0  0.9631420648356083  0.8382931836863817  0.8019463933003763  1.0000
  C   C17       1.0  0.9716854330708175  0.8687106361202768  0.7741750167412249  1.0000
  C   C18       1.0  0.9440987010765339  0.8999076937926845  0.7820913551467825  1.0000
  C   C19       1.0  0.8472682237143374  0.8063375359817827  0.9638470699149052  1.0000
  C   C20       1.0  0.8738459255839857  0.7732336807543164  0.9699790801151522  1.0000
  C   C21       1.0  0.9008473042343111  0.7767704145144451  0.9391227647084222  1.0000
  C   C22       1.0  0.203469750430834  0.5380021842018365  0.3482248443339842  1.0000
  C   C23       1.0  0.23457666410084235  0.5298301703947245  0.3772499240980807  1.0000
  C   C24       1.0  0.2277780954197581  0.5581347991865118  0.4073300092998196  1.0000
  C   C25       1.0  0.034963696165455395  0.6562201819344583  0.3080492742253327  1.0000
  C   C26       1.0  0.029134252085029302  0.6281757241920048  0.27700020747768406  1.0000
  C   C27       1.0  0.061026717516981  0.6001715357855417  0.28360258961782847  1.0000
  C   C28       1.0  0.15895273124781537  0.6933823628685051  0.4743705496316224  1.0000
  C   C29       1.0  0.1285508744203199  0.7222652112283471  0.4809575696171891  1.0000
  C   C30       1.0  0.09934669623316238  0.7156110302938645  0.4498380429913595  1.0000
  C   C31       1.0  0.29066670542675144  0.0461310764481055  0.6604227489113724  1.0000
  C   C32       1.0  0.26402313314778775  0.03277301090037809  0.6293470456679771  1.0000
  C   C33       1.0  0.2734355833238737  0.05755349372533663  0.5969610935659446  1.0000
  C   C34       1.0  0.4722513662279225  0.14302215212548228  0.6838860353194535  1.0000
  C   C35       1.0  0.4703676251693096  0.12898577466574318  0.7232247312512499  1.0000
  C   C36       1.0  0.43052226282639333  0.11423284957406572  0.7251459866895331  1.0000
  C   C37       1.0  0.342239589261979  0.19237526866166382  0.5258409168762341  1.0000
  C   C38       1.0  0.3748444427227753  0.2175766700551947  0.5165277228029481  1.0000
  C   C39       1.0  0.4062128227120779  0.206090156746491  0.544145759264147  1.0000
  C   C40       1.0  0.6926038371733938  0.46908936833300885  0.15355987187883366  1.0000
  C   C41       1.0  0.7220358776581434  0.47535017770103144  0.1253499432208329  1.0000
  C   C42       1.0  0.7147644628723384  0.4442160105174865  0.0975898173404346  1.0000
  C   C43       1.0  0.5361837640158031  0.34160681259898246  0.19701590649406597  1.0000
  C   C44       1.0  0.5284737094240269  0.3721094116395491  0.22469766726514712  1.0000
  C   C45       1.0  0.5566405391607603  0.40259265208406003  0.2164573123509328  1.0000
  C   C46       1.0  0.651136191254686  0.30347657571599035  0.03669155651925851  1.0000
  C   C47       1.0  0.6231429623751409  0.2717835525403346  0.0304849000323486  1.0000
  C   C48       1.0  0.5956116713873741  0.27701486452917834  0.06064533000249382  1.0000
  C   C49       1.0  0.7141342288717638  0.06347909290125392  0.9064412507850009  1.0000
  C   C50       1.0  0.6904501220960026  0.0731015905479353  0.871748950878299  1.0000
  C   C51       1.0  0.697411358513186  0.05211193870790251  0.8364821184314336  1.0000
  C   C52       1.0  0.7273054375912339  0.022269048419829608  0.8358753624584025  1.0000
  C   C53       1.0  0.7505656178614543  0.011863000783591803  0.8707140811674989  1.0000
  C   C54       1.0  0.7434594110488533  0.03306850792807131  0.9059473518629559  1.0000
  C   C55       1.0  0.3069633361889004  0.4455043006460713  0.4092247121349004  1.0000
  C   C56       1.0  0.3251362173912824  0.4364143119007054  0.373406843146796  1.0000
  C   C57       1.0  0.31388382274225524  0.45895677819703457  0.3390598145249371  1.0000
  C   C58       1.0  0.2843896027822623  0.489177113956309  0.34034270570867864  1.0000
  C   C59       1.0  0.266058554130737  0.4985072534060679  0.37615060746612977  1.0000
  C   C60       1.0  0.27830063408870837  0.47645342410277186  0.4106746718547996  1.0000
  C   C61       1.0  0.20027550668785205  0.9427652784439077  0.5972807893767609  1.0000
  C   C62       1.0  0.17783661835355247  0.9354533320572856  0.6310360363923522  1.0000
  C   C63       1.0  0.18381800646351817  0.9607912004391397  0.6642714827632332  1.0000
  C   C64       1.0  0.21186471557241046  0.9922766829272336  0.6639017095450653  1.0000
  C   C65       1.0  0.23428574054546658  0.9999256733640678  0.6300644320192319  1.0000
  C   C66       1.0  0.2277257134177333  0.9746796140364469  0.5967143410679724  1.0000
  C   C67       1.0  0.7927548921992765  0.5556275471896585  0.0887762135787398  1.0000
  C   C68       1.0  0.8137758001150174  0.5670519141836226  0.12427944363751917  1.0000
  C   C69       1.0  0.8042540318135565  0.5481688848397896  0.160141061745982  1.0000
  C   C70       1.0  0.7739942797277591  0.5188752239089425  0.16054222753129468  1.0000
  C   C71       1.0  0.7532253694807806  0.5067728339631118  0.12499913794869141  1.0000
  C   C72       1.0  0.763314664160127  0.5254859689476631  0.0890962717434292  1.0000
  C   C73       1.0  0.054379342724175196  0.9048925683272986  0.7091700987325494  1.0000
  C   C74       1.0  0.0620934081687423  0.8701256814148837  0.6866826186669002  1.0000
  C   C75       1.0  0.0396265015601003  0.8346988014941062  0.6932254538463241  1.0000
  C   C76       1.0  0.010515093421517498  0.8339880049815349  0.7218344057453692  1.0000
  C   C77       1.0  0.002448786916971798  0.8688261330577663  0.7442616219669134  1.0000
  C   C78       1.0  0.024805834135967996  0.9043239098041556  0.7372133178264519  1.0000
  C   C79       1.0  0.4605054215799528  0.33654005787139607  0.304869719687396  1.0000
  C   C80       1.0  0.4392261703649254  0.3722877436060728  0.3132485723337268  1.0000
  C   C81       1.0  0.4476808932117676  0.4079824754725223  0.2921751655152676  1.0000
  C   C82       1.0  0.4769136082478909  0.4079879399034568  0.2637623067480703  1.0000
  C   C83       1.0  0.49807976673476145  0.37218240628133265  0.2549213106981014  1.0000
  C   C84       1.0  0.48917044657983416  0.3364358892080476  0.2758923039517001  1.0000
  C   C85       1.0  0.9548260926187025  0.6635319970070627  0.1949018502674846  1.0000
  C   C86       1.0  0.9354971058637743  0.6270390753522221  0.1839305288107624  1.0000
  C   C87       1.0  0.9472432888293056  0.59096320216581  0.20380189107868318  1.0000
  C   C88       1.0  0.9781041787844842  0.5913085435398173  0.2335369436797734  1.0000
  C   C89       1.0  0.9971592060142382  0.6278762627692985  0.245206556362902  1.0000
  C   C90       1.0  0.984742874753955  0.6640045277710344  0.2255622389278287  1.0000
  C   C91       1.0  0.5248572737639562  0.1404898354458979  0.823890044453023  1.0000
  C   C92       1.0  0.5647385270918902  0.1292275461747039  0.8156591810139915  1.0000
  C   C93       1.0  0.5733225936976395  0.11824993984230053  0.7766785682543258  1.0000
  C   C94       1.0  0.542849118555381  0.11892069161343241  0.7465815324638143  1.0000
  C   C95       1.0  0.5025943438333157  0.1293177103994125  0.7547652537917529  1.0000
  C   C96       1.0  0.49414015079758394  0.13989670561912956  0.7940005056071087  1.0000
  C   C97       1.0  0.910374852206857  0.7001082524046469  0.050677351097782306  1.0000
  C   C98       1.0  0.8735753849721204  0.683943158838858  0.0628987533366328  1.0000
  C   C99       1.0  0.836813237298962  0.6971350872955426  0.0441025105756339  1.0000
  C   C100      1.0  0.8368892151926132  0.726545572029508  0.014303123944394308  1.0000
  C   C101      1.0  0.8736915041170049  0.7425234604707072  0.001502327541253102  1.0000
  C   C102      1.0  0.910442572983186  0.7284599151400641  0.019945643030915512  1.0000
  C   C103      1.0  0.3441015585376235  0.3052647953250515  0.4489411671448167  1.0000
  C   C104      1.0  0.3792343457767871  0.31075375227911195  0.42744666881278454  1.0000
  C   C105      1.0  0.4127105528470167  0.2848647549013066  0.4351727150764262  1.0000
  C   C106      1.0  0.4112690576606823  0.25474368600201563  0.4641727977531004  1.0000
  C   C107      1.0  0.3761098160895883  0.24897384889226257  0.4857444645978006  1.0000
  C   C108      1.0  0.3424214386674578  0.2745944640867535  0.4773060824568347  1.0000
  C   C109      1.0  0.5869575242405246  0.19882693955211295  0.9503523874821695  1.0000
  C   C110      1.0  0.6238884916647719  0.182361381761055  0.9386680781032554  1.0000
  C   C111      1.0  0.6604636780289325  0.19524019407335666  0.957798640745743  1.0000
  C   C112      1.0  0.6600965394382853  0.22447219648124425  0.9873882930971687  1.0000
  C   C113      1.0  0.6231683382867103  0.24088017252000074  0.9995218874267381  1.0000
  C   C114      1.0  0.5865861824319083  0.22721100507445163  0.9807527530468007  1.0000
  C   C115      1.0  0.16142609104834799  0.8028372499825592  0.5550888382557346  1.0000
  C   C116      1.0  0.124683614783315  0.8118305327339784  0.5727476281318927  1.0000
  C   C117      1.0  0.0893651551469787  0.7907240976165898  0.5602210491548973  1.0000
  C   C118      1.0  0.090608914466344  0.761958376527531  0.5302013431761807  1.0000
  C   C119      1.0  0.12737851805308512  0.7525269137835411  0.5125551285923747  1.0000
  C   C120      1.0  0.16283114903389867  0.7732309291096442  0.5258784609711995  1.0000
  N   N1        1.0  0.3533012761726724  0.37386378281232174  0.4000013266245048  1.0000
  N   N2        1.0  0.40902997555695453  0.3416325461361752  0.370177524532302  1.0000
  N   N3        1.0  0.3819541993649338  0.40379613146998855  0.343213178491574  1.0000
  N   N4        1.0  0.6294893375798338  0.10428893839422673  0.8424407436414327  1.0000
  N   N5        1.0  0.592683061863731  0.15253359556304966  0.8793107719474023  1.0000
  N   N6        1.0  0.6573372017661471  0.12836588277473743  0.9045571184592731  1.0000
  N   N7        1.0  0.8436357316160611  0.6258719417616877  0.0941707273834496  1.0000
  N   N8        1.0  0.9041911277117476  0.655188548158634  0.12336101742696567  1.0000
  N   N9        1.0  0.8747126756466342  0.5973768312435795  0.15355901771622632  1.0000
  N   N10       1.0  0.12017948498779418  0.9020440318715476  0.6587145313062166  1.0000
  N   N11       1.0  0.09337110725696358  0.8413037369706803  0.6295276531116585  1.0000
  N   N12       1.0  0.15143107106827358  0.8728924046078461  0.6031770485283658  1.0000
  N   N13       1.0  0.8184029716937431  0.924505948765159  0.8893851549772975  1.0000
  N   N14       1.0  0.8311959681402  0.9375078531585715  0.8532279958864919  1.0000
  N   N15       1.0  0.9207907685286614  0.8887498089571582  0.8120965954464126  1.0000
  N   N16       1.0  0.932920996344329  0.8506792570982427  0.8247725686265568  1.0000
  N   N17       1.0  0.8908921204696939  0.8094322415721962  0.9162661745218941  1.0000
  N   N18       1.0  0.8578850686043749  0.8280235130713082  0.9318829210420886  1.0000
  N   N19       1.0  0.19519892226607988  0.5814883363285547  0.3967804255862006  1.0000
  N   N20       1.0  0.17988354564311487  0.5686737109043138  0.3602620535082224  1.0000
  N   N21       1.0  0.08415804999866339  0.6109264687980699  0.316024328158889  1.0000
  N   N22       1.0  0.06775067153949269  0.6454678988212664  0.331464947438441  1.0000
  N   N23       1.0  0.1116051310285329  0.6852487444902595  0.4264454204027714  1.0000
  N   N24       1.0  0.14844023276273788  0.6711316307858511  0.4419147462323423  1.0000
  N   N25       1.0  0.3032477342054846  0.08375041594390353  0.6080660333137614  1.0000
  N   N26       1.0  0.3142388874480417  0.0763712268379848  0.6474067062711768  1.0000
  N   N27       1.0  0.41033360214937176  0.11900994116625443  0.6895448578039803  1.0000
  N   N28       1.0  0.4361459072400535  0.13721296143783232  0.6640189182981544  1.0000
  N   N29       1.0  0.3931655842823645  0.17645021696095853  0.5681449242546179  1.0000
  N   N30       1.0  0.3535479706332438  0.167634255686572  0.5565414454605744  1.0000
  N   N31       1.0  0.6835040016000776  0.4210752308842773  0.10866553178653501  1.0000
  N   N32       1.0  0.6694691602282673  0.4367471914462584  0.14317274661498663  1.0000
  N   N33       1.0  0.5794580092758963  0.39094284303560306  0.18629534086331023  1.0000
  N   N34       1.0  0.5664571176649815  0.35325470597894804  0.1739265787191897  1.0000
  N   N35       1.0  0.6066332804891914  0.30929122266658043  0.083192086935  1.0000
  N   N36       1.0  0.6408465890404429  0.32593975474672027  0.0680386643091779  1.0000
