data_image0
_chemical_formula_structural       Zn4H10C20O14
_chemical_formula_sum              "Zn4 H10 C20 O14"
_cell_length_a       13.2994059722197
_cell_length_b       13.308880299061528
_cell_length_c       15.908704803107641
_cell_angle_alpha    80.90723701754645
_cell_angle_beta     79.88452162370017
_cell_angle_gamma    89.09189544873787

_space_group_name_H-M_alt    "P 1"
_space_group_IT_number       1

loop_
  _space_group_symop_operation_xyz
  'x, y, z'

loop_
  _atom_site_type_symbol
  _atom_site_label
  _atom_site_symmetry_multiplicity
  _atom_site_fract_x
  _atom_site_fract_y
  _atom_site_fract_z
  _atom_site_occupancy
  Zn  Zn1       1.0  0.5991301316113111  0.5702766629091371  0.5520811289082773  1.0000
  Zn  Zn2       1.0  0.5857408988104567  0.4078885141116402  0.43156962144218636  1.0000
  Zn  Zn3       1.0  0.4312124078559379  0.6087973638894085  0.4358995648782058  1.0000
  Zn  Zn4       1.0  0.3973090904727385  0.4167934634569974  0.5834316013533825  1.0000
  H   H1        1.0  0.3963912463091149  0.44117858544476  0.026444647110423606  1.0000
  H   H2        1.0  0.9106175169018087  0.3494223604684805  0.4712043632264485  1.0000
  H   H3        1.0  0.08892510296584531  0.624876374169119  0.5203218346342738  1.0000
  H   H4        1.0  0.5846613225371727  0.08817030023730149  0.4572879404647667  1.0000
  H   H5        1.0  0.4137029786047677  0.9200726881299061  0.4978320272352478  1.0000
  H   H6        1.0  0.3606176076773267  0.0904109320271189  0.5501938050365496  1.0000
  H   H7        1.0  0.6490646453049038  0.9095362394757274  0.4568521266745338  1.0000
  H   H8        1.0  0.9148776724039536  0.5592685783411113  0.5299778188924691  1.0000
  H   H9        1.0  0.08403319741008632  0.39380140092210786  0.5156448015469695  1.0000
  H   H10       1.0  0.6431796402767418  0.6219411140094733  0.0007452960145429617  1.0000
  C   C1        1.0  0.45867794108858834  0.22706402060647687  0.5173275669966275  1.0000
  C   C2        1.0  0.053326171059787  0.4701964941132814  0.5182612377350608  1.0000
  C   C3        1.0  0.8839837112532082  0.42131436994648636  0.49141493871484715  1.0000
  C   C4        1.0  0.5515297958892803  0.7742528218158353  0.47156635456742896  1.0000
  C   C5        1.0  0.9468661980029935  0.4868707701824633  0.5143828638984334  1.0000
  C   C6        1.0  0.7760196784200559  0.4469305572443433  0.48833527648830016  1.0000
  C   C7        1.0  0.2277094497597076  0.534362556996456  0.5200058986835218  1.0000
  C   C8        1.0  0.5157862277426162  0.5233517413092984  0.27638023858772703  1.0000
  C   C9        1.0  0.4769420839308367  0.4947076039677968  0.724149174902614  1.0000
  C   C10       1.0  0.5174231231519927  0.528761741300336  0.1843505044009888  1.0000
  C   C11       1.0  0.5247019773602659  0.5357686382059939  0.01713356638281739  1.0000
  C   C12       1.0  0.4633179233525056  0.4896286197038221  0.8931198946901096  1.0000
  C   C13       1.0  0.4570575564576345  0.4859556478772262  0.9819835455592172  1.0000
  C   C14       1.0  0.5185296850915863  0.5307015444995782  0.1073466451739193  1.0000
  C   C15       1.0  0.4679754712378212  0.49210340214047926  0.8154214088821876  1.0000
  C   C16       1.0  0.5694719228469438  0.8844918491692295  0.46688664314996253  1.0000
  C   C17       1.0  0.49215353983190374  0.9496193495398442  0.48324846912375824  1.0000
  C   C18       1.0  0.43667600899675574  0.1183084366737646  0.5182390846078634  1.0000
  C   C19       1.0  0.5086084739178887  0.05597534829322369  0.4845650428236612  1.0000
  C   C20       1.0  0.1166261588303925  0.5469704515459171  0.5223746550792614  1.0000
  O   O1        1.0  0.502724313622835  0.5000526391974063  0.49934748327088146  1.0000
  O   O2        1.0  0.5723276985393113  0.4555733322795845  0.3091022311316182  1.0000
  O   O3        1.0  0.4136180081595812  0.4391254584767665  0.6992072207285532  1.0000
  O   O4        1.0  0.4582857101964635  0.5869011236136714  0.3131538644721915  1.0000
  O   O5        1.0  0.5477803132201303  0.552549078038389  0.6765454237702075  1.0000
  O   O6        1.0  0.6026413139238542  0.5927821411931828  0.9649245342928912  1.0000
  O   O7        1.0  0.7379432473747087  0.5182106599286199  0.5286769016969118  1.0000
  O   O8        1.0  0.2590071049951348  0.4512600042468975  0.5580737932673971  1.0000
  O   O9        1.0  0.5358068621058366  0.2670043132449109  0.4633422398880997  1.0000
  O   O10       1.0  0.4707655276334749  0.7467818576842048  0.44753891595306095  1.0000
  O   O11       1.0  0.3980953347637737  0.27207770590288044  0.570811042071874  1.0000
  O   O12       1.0  0.6186883434714261  0.7151973999174144  0.5005769404016578  1.0000
  O   O13       1.0  0.729405992153133  0.39529489933688927  0.44503815987209083  1.0000
  O   O14       1.0  0.28338413878008595  0.6099777325473995  0.47825103807849006  1.0000
