data_image0
_chemical_formula_structural       AlH27C48O12
_chemical_formula_sum              "Al1 H27 C48 O12"
_cell_length_a       4.194411943984274
_cell_length_b       23.48877734952783
_cell_length_c       23.50262104344059
_cell_angle_alpha    60.07755317533932
_cell_angle_beta     87.67114553407657
_cell_angle_gamma    87.59222179783228

_space_group_name_H-M_alt    "P 1"
_space_group_IT_number       1

loop_
  _space_group_symop_operation_xyz
  'x, y, z'

loop_
  _atom_site_type_symbol
  _atom_site_label
  _atom_site_symmetry_multiplicity
  _atom_site_fract_x
  _atom_site_fract_y
  _atom_site_fract_z
  _atom_site_occupancy
  Al  Al1       1.0  0.0574091466745372  0.49969814177216415  0.49961209135467755  1.0000
  H   H1        1.0  0.8164021577982082  0.33303714005111124  0.6785033821273813  1.0000
  H   H2        1.0  0.8015487519246347  0.26992417796243734  0.7991386373541544  1.0000
  H   H3        1.0  0.856831421752794  0.22963467468711943  0.8935747960833778  1.0000
  H   H4        1.0  0.8500851123202438  0.16940536079723503  0.013097389576991152  1.0000
  H   H5        1.0  0.2865345942355901  0.8017990307851479  0.26899335469326485  1.0000
  H   H6        1.0  0.22587357680051673  0.896608628250675  0.2283130724633865  1.0000
  H   H7        1.0  0.2267821623275239  0.015961418215219698  0.1684396581170944  1.0000
  H   H8        1.0  0.5221471572805427  0.10572439365887482  0.1047544040592214  1.0000
  H   H9        1.0  0.7867701712974975  0.6789208011550656  0.48656959678621786  1.0000
  H   H10       1.0  0.7692503160928013  0.7996459445413892  0.42927933342051716  1.0000
  H   H11       1.0  0.8159115217359341  0.8944857540109014  0.3758083035697266  1.0000
  H   H12       1.0  0.8152922767892647  0.0138047343331493  0.3154579745385604  1.0000
  H   H13       1.0  0.3295587784122489  0.26880336138608374  0.4317322626086835  1.0000
  H   H14       1.0  0.25693329348001015  0.2301891588752838  0.3778628607183023  1.0000
  H   H15       1.0  0.23671521421084657  0.17158323085539004  0.3173318221510187  1.0000
  H   H16       1.0  0.5274313689593839  0.10587480012825519  0.2877580694534386  1.0000
  H   H17       1.0  0.8590142954997404  0.48303287186610094  0.33323526967066636  1.0000
  H   H18       1.0  0.8465954358085028  0.42535286894050733  0.2701552403805607  1.0000
  H   H19       1.0  0.8750710331526433  0.37235875764867643  0.22640453012184736  1.0000
  H   H20       1.0  0.8521753769485301  0.31325793740907676  0.16619383739103447  1.0000
  H   H21       1.0  0.270219446771236  0.4304786908750202  0.8018681543927926  1.0000
  H   H22       1.0  0.20559355069105584  0.375574227194953  0.8966683793027883  1.0000
  H   H23       1.0  0.20551128810894426  0.3154374570979784  0.0161698805590476  1.0000
  H   H24       1.0  0.5338619689536442  0.28871639319899606  0.10483006879218948  1.0000
  H   H25       1.0  0.7078376288283295  0.3024355221339762  0.5516399218323825  1.0000
  H   H26       1.0  0.6499092875152924  0.550377601088428  0.6481755078048579  1.0000
  H   H27       1.0  0.6961725305612774  0.6486772125351336  0.30086293638701994  1.0000
  C   C1        1.0  0.5498075965716396  0.45042115335258615  0.5991945288787619  1.0000
  C   C2        1.0  0.5837145663196566  0.44914906263694837  0.45033732754180983  1.0000
  C   C3        1.0  0.5486380609336691  0.5992993236017199  0.44946754411528633  1.0000
  C   C4        1.0  0.6972698371528024  0.3537291896875772  0.7064204620790873  1.0000
  C   C5        1.0  0.687549163535543  0.3185702937566717  0.7745739298934992  1.0000
  C   C6        1.0  0.7061834237773538  0.24869803509326263  0.9194147471699807  1.0000
  C   C7        1.0  0.7028198963630458  0.2140900825547832  0.9876405187535154  1.0000
  C   C8        1.0  0.40613289948856834  0.7077893623227709  0.34942432714114346  1.0000
  C   C9        1.0  0.39515990915965915  0.7761751910154403  0.31701004618625467  1.0000
  C   C10       1.0  0.3612833703114616  0.9212205702598483  0.24794545396161982  1.0000
  C   C11       1.0  0.3620082831492937  0.9894575661908931  0.21342328622418463  1.0000
  C   C12       1.0  0.5495537542439165  0.4159326057422348  0.6720534624519772  1.0000
  C   C13       1.0  0.5347596368571671  0.3447147473717038  0.8113311422913724  1.0000
  C   C14       1.0  0.5309051340342207  0.30808871479704447  0.8840495753068253  1.0000
  C   C15       1.0  0.5270876460425811  0.23755699803655972  0.02419613452755698  1.0000
  C   C16       1.0  0.5264290102115864  0.20126948890019486  0.0966712567790182  1.0000
  C   C17       1.0  0.5235407660604635  0.13241027608042802  0.1316988882584553  1.0000
  C   C18       1.0  0.6775720625286539  0.7067408729186582  0.4386591164935964  1.0000
  C   C19       1.0  0.6658949443924341  0.7749480746135619  0.4058778701723469  1.0000
  C   C20       1.0  0.6796508155706888  0.9200703527523687  0.33101716102832757  1.0000
  C   C21       1.0  0.6789481692912459  0.9883078706680591  0.2967961950155242  1.0000
  C   C22       1.0  0.45218060397943555  0.3486659436116284  0.44413737254493657  1.0000
  C   C23       1.0  0.44541271357850587  0.3160281687626211  0.4084791244965799  1.0000
  C   C24       1.0  0.39468385179443277  0.24877325082284335  0.332074538598313  1.0000
  C   C25       1.0  0.38343548644682807  0.2149318718795499  0.2977702451702057  1.0000
  C   C26       1.0  0.5463745761464976  0.672193123648583  0.41138696173617023  1.0000
  C   C27       1.0  0.5256664142502672  0.8115750348679996  0.34388284343521036  1.0000
  C   C28       1.0  0.5208838033889122  0.8843571552585416  0.3076924240658628  1.0000
  C   C29       1.0  0.5208064619485455  0.024761852852428504  0.2370226235086363  1.0000
  C   C30       1.0  0.5230221849978776  0.097298495970179  0.2005676307715163  1.0000
  C   C31       1.0  0.5271987200182195  0.13256848148733272  0.23421140905197285  1.0000
  C   C32       1.0  0.7438985435094665  0.43577518600559273  0.3542051280848708  1.0000
  C   C33       1.0  0.734911141067947  0.4028124821817656  0.3189576507697466  1.0000
  C   C34       1.0  0.7288280449042402  0.32898039105236165  0.2468495770018181  1.0000
  C   C35       1.0  0.715888720321864  0.295473781267198  0.21220494191567948  1.0000
  C   C36       1.0  0.3951443046037397  0.4429404527164778  0.7077625622528956  1.0000
  C   C37       1.0  0.3884985832506871  0.40743009057537444  0.7761342353978052  1.0000
  C   C38       1.0  0.3538251178863305  0.33105287429135904  0.9211032991814035  1.0000
  C   C39       1.0  0.3533471472416068  0.2969745091027463  0.9893070633898802  1.0000
  C   C40       1.0  0.5984312442097062  0.40997884893768344  0.4165064003797808  1.0000
  C   C41       1.0  0.5834964167642126  0.34210595118545944  0.3450623358067162  1.0000
  C   C42       1.0  0.5690206708441891  0.3066432630681604  0.3078944429054147  1.0000
  C   C43       1.0  0.5438116103413861  0.23745581836269028  0.2369515463726302  1.0000
  C   C44       1.0  0.5330312776162173  0.20140447791783345  0.20055108493463075  1.0000
  C   C45       1.0  0.5308037329251647  0.23512857994444397  0.13171397232430584  1.0000
  C   C46       1.0  0.30070492573907603  0.3151956563813556  0.5117425297878738  1.0000
  C   C47       1.0  0.24040173321932193  0.510344554311594  0.6751876297479882  1.0000
  C   C48       1.0  0.2741682302928226  0.6753261679817726  0.31449772374786983  1.0000
  O   O1        1.0  0.31849376598411544  0.5713045085006528  0.4399247972582998  1.0000
  O   O2        1.0  0.3081085736327793  0.4878619112399676  0.5714395710575744  1.0000
  O   O3        1.0  0.3398699020514471  0.4403147534740768  0.48800339903310425  1.0000
  O   O4        1.0  0.7765011400511809  0.5705095302469515  0.4892155219174229  1.0000
  O   O5        1.0  0.8089091043928959  0.48867728366303725  0.4387895879200555  1.0000
  O   O6        1.0  0.7883974647987841  0.4392935218930346  0.5702676744678569  1.0000
  O   O7        1.0  0.470749520314392  0.29945807815899883  0.5637780011480514  1.0000
  O   O8        1.0  0.01845476511687852  0.2995201154342411  0.5178723340900647  1.0000
  O   O9        1.0  0.4142847248636841  0.5625412465439155  0.6390893921572669  1.0000
  O   O10       1.0  0.9528688359079639  0.5162270892416599  0.6852603581937871  1.0000
  O   O11       1.0  0.4641115870430212  0.6396560668792475  0.29770316032255545  1.0000
  O   O12       1.0  0.9911254574594109  0.6853395119740213  0.29888571715388673  1.0000
