data_image0
_chemical_formula_structural       Zn6Si4H68C112O32
_chemical_formula_sum              "Zn6 Si4 H68 C112 O32"
_cell_length_a       13.779111489577087
_cell_length_b       14.644115415946755
_cell_length_c       24.149210631613407
_cell_angle_alpha    79.92260868320604
_cell_angle_beta     73.45063441164086
_cell_angle_gamma    61.96245343054009

_space_group_name_H-M_alt    "P 1"
_space_group_IT_number       1

loop_
  _space_group_symop_operation_xyz
  'x, y, z'

loop_
  _atom_site_type_symbol
  _atom_site_label
  _atom_site_symmetry_multiplicity
  _atom_site_fract_x
  _atom_site_fract_y
  _atom_site_fract_z
  _atom_site_occupancy
  Zn  Zn1       1.0  0.2738732940692757  0.0742486781215206  0.9620781330336282  1.0000
  Zn  Zn2       1.0  0.31001202650202225  0.42581663884968196  0.5379664610499617  1.0000
  Zn  Zn3       1.0  0.7261257770839504  0.9257518147934791  0.03792268020063006  1.0000
  Zn  Zn4       1.0  0.6899893118631013  0.574183831792361  0.46203191076961037  1.0000
  Zn  Zn5       1.0  0.5000010329511397  0.9999982087858329  9.095319058173851e-07  1.0000
  Zn  Zn6       1.0  0.4999989619094831  0.49999984663259783  0.4999990956436731  1.0000
  Si  Si1       1.0  0.6461683697286488  0.44575338924442326  0.8360431165678506  1.0000
  Si  Si2       1.0  0.9276361404261594  0.05416791104079271  0.6640527893174802  1.0000
  Si  Si3       1.0  0.35382956504223984  0.5542478676318581  0.16395655760277345  1.0000
  Si  Si4       1.0  0.0723659533606949  0.9458310259187925  0.3359472829324018  1.0000
  H   H1        1.0  0.2741766160602311  0.1909909837453512  0.861760293434557  1.0000
  H   H2        1.0  0.46458687920917197  0.836227252448893  0.8249109712970079  1.0000
  H   H3        1.0  0.5524558489334837  0.662976202062552  0.7838169132381693  1.0000
  H   H4        1.0  0.6067823731269327  0.5178818627771521  0.9515582359196982  1.0000
  H   H5        1.0  0.5257669795016184  0.6914337951877274  0.9903460502059216  1.0000
  H   H6        1.0  0.5538092086803132  0.144461569029815  0.880618425453285  1.0000
  H   H7        1.0  0.4114336229835517  0.5164932994797127  0.9127588340605752  1.0000
  H   H8        1.0  0.2861446122328814  0.4290209808185566  0.9523940267094486  1.0000
  H   H9        1.0  0.8205042563831099  0.4391411243157108  0.7213623956645348  1.0000
  H   H10       1.0  0.8002880875549894  0.4846154302575201  0.6200397000202924  1.0000
  H   H11       1.0  0.4565497685368954  0.530060571109793  0.6737766030238814  1.0000
  H   H12       1.0  0.47279068997975315  0.4892207977156389  0.7761957423393537  1.0000
  H   H13       1.0  0.7605925438122652  0.24941685881479  0.9065114653063586  1.0000
  H   H14       1.0  0.9525789678456816  0.15699550555057576  0.9255419437903282  1.0000
  H   H15       1.0  0.04834535383520227  0.3772841794715874  0.811364318665802  1.0000
  H   H16       1.0  0.8540956541246701  0.4754753829410561  0.7964163407850149  1.0000
  H   H17       1.0  0.6770683936383293  0.23072602483164667  0.8370726887787469  1.0000
  H   H18       1.0  0.3266930131982733  0.30897058905807734  0.638358131612172  1.0000
  H   H19       1.0  0.12619219063447668  0.6636832881900575  0.6749902582120197  1.0000
  H   H20       1.0  0.9992517332164608  0.8368414584926  0.7161282909386131  1.0000
  H   H21       1.0  0.07567912621416882  0.9823807277211716  0.5485193602590925  1.0000
  H   H22       1.0  0.20730637184198022  0.8089492157711646  0.5096350765594053  1.0000
  H   H23       1.0  0.5789190315442951  0.35547359333600775  0.6194422648118872  1.0000
  H   H24       1.0  0.8403174341300287  0.9835389366426742  0.5872021280634953  1.0000
  H   H25       1.0  0.6672432282116034  0.07110242872486341  0.5475097689187862  1.0000
  H   H26       1.0  0.9807203165909613  0.06066129077832729  0.7788674494200617  1.0000
  H   H27       1.0  0.9044465141795541  0.015222484782874801  0.8801483845204955  1.0000
  H   H28       1.0  0.6599494215782683  0.9699230647235169  0.8260920400959577  1.0000
  H   H29       1.0  0.7380345137031696  0.010737758249490501  0.7237128287784671  1.0000
  H   H30       1.0  0.9163344096327108  0.2505561567010588  0.5935029265795178  1.0000
  H   H31       1.0  0.035150142662331484  0.34279347890350204  0.5743494512161502  1.0000
  H   H32       1.0  0.23683527948342237  0.12256688943037371  0.6886301503075741  1.0000
  H   H33       1.0  0.1257678348221347  0.0243841730687961  0.703598969183467  1.0000
  H   H34       1.0  0.744733419678816  0.2691347208172915  0.6630739874404554  1.0000
  H   H35       1.0  0.7258179107663806  0.8090095189386802  0.13824168117393745  1.0000
  H   H36       1.0  0.535416348708189  0.16377243779131595  0.1750867609595943  1.0000
  H   H37       1.0  0.4475428357575666  0.33702350181078333  0.21618239388769206  1.0000
  H   H38       1.0  0.393214796421816  0.4821178430644935  0.048441320499236426  1.0000
  H   H39       1.0  0.4742339779028981  0.3085659057331399  0.00965288298031909  1.0000
  H   H40       1.0  0.4461883396796081  0.8555373738347002  0.1193823946758172  1.0000
  H   H41       1.0  0.5885662122915037  0.4835087406058208  0.08724168343036344  1.0000
  H   H42       1.0  0.7138540823097941  0.5709802828017629  0.04760634980467417  1.0000
  H   H43       1.0  0.1794932974271787  0.5608593628394091  0.2786378398727719  1.0000
  H   H44       1.0  0.19971288625182373  0.5153873785650305  0.37996013145743734  1.0000
  H   H45       1.0  0.5434500634372199  0.46994145738344173  0.32622267398201626  1.0000
  H   H46       1.0  0.5272061084600138  0.5107796981518292  0.22380544483451803  1.0000
  H   H47       1.0  0.23940388671704213  0.7505874886109896  0.09348728897374772  1.0000
  H   H48       1.0  0.047412171737782796  0.8430104162394797  0.0744595793938458  1.0000
  H   H49       1.0  0.951651463207483  0.622719432025754  0.18863859378959077  1.0000
  H   H50       1.0  0.14590115526701902  0.5245266765374978  0.20358632927214154  1.0000
  H   H51       1.0  0.32293254521447073  0.769269035489245  0.1629271711928552  1.0000
  H   H52       1.0  0.6733105890778007  0.6910298477187026  0.36163655830765845  1.0000
  H   H53       1.0  0.8738091390305415  0.33631410159898684  0.32501010978116796  1.0000
  H   H54       1.0  0.000751498001839875  0.16315824333990045  0.2838706818030374  1.0000
  H   H55       1.0  0.9243225975128058  0.0176205280984263  0.45148010417386775  1.0000
  H   H56       1.0  0.7926934546817748  0.19105126843147965  0.49036478503828806  1.0000
  H   H57       1.0  0.42107965314676205  0.6445261105373278  0.3805570423139668  1.0000
  H   H58       1.0  0.1596823945943484  0.0164615552881671  0.41279856052423  1.0000
  H   H59       1.0  0.3327603730665699  0.9288949542476246  0.4524898116397792  1.0000
  H   H60       1.0  0.019286312822408804  0.939334555559228  0.22113345762920025  1.0000
  H   H61       1.0  0.09555897450143654  0.9847725850894732  0.11985238155194369  1.0000
  H   H62       1.0  0.3400538336933039  0.0300812970294473  0.17390807333541858  1.0000
  H   H63       1.0  0.2619702523606691  0.9892650611086682  0.2762880334466472  1.0000
  H   H64       1.0  0.08366692113262525  0.7494412369520874  0.40649785490869295  1.0000
  H   H65       1.0  0.9648481643690657  0.6572054668409637  0.42565165776142766  1.0000
  H   H66       1.0  0.7631687082057114  0.8774328075538734  0.31136828429252  1.0000
  H   H67       1.0  0.8742346486254178  0.9756186144649492  0.29639854552610956  1.0000
  H   H68       1.0  0.2552626222901039  0.73086577989843  0.3369277378749657  1.0000
  C   C1        1.0  0.43795938052418387  0.877219666771147  0.9351258446041226  1.0000
  C   C2        1.0  0.49055697182833313  0.7737420116672667  0.9099906245889567  1.0000
  C   C3        1.0  0.49734985915934266  0.76575151181094  0.8519381688422667  1.0000
  C   C4        1.0  0.5459929121303942  0.6683795897708437  0.8293605881770102  1.0000
  C   C5        1.0  0.5855268221292959  0.5775314605459273  0.8645771004811776  1.0000
  C   C6        1.0  0.5771419806858873  0.5869979233266136  0.9229830542052749  1.0000
  C   C7        1.0  0.5314384270480303  0.6839020666902158  0.9453461690174759  1.0000
  C   C8        1.0  0.413301330552315  0.2813924900678587  0.9193083235304724  1.0000
  C   C9        1.0  0.5235650309161952  0.2259868904459097  0.8870124481613925  1.0000
  C   C10       1.0  0.5541923193579023  0.38010515113739995  0.8726402741188861  1.0000
  C   C11       1.0  0.44319691404738387  0.4348766944337257  0.9051813518451863  1.0000
  C   C12       1.0  0.37263454165663046  0.38667990112692513  0.9276821934429831  1.0000
  C   C13       1.0  0.3384496923446605  0.22915633399922802  0.9431694740481473  1.0000
  C   C14       1.0  0.7394064744080211  0.46050744230360874  0.7119756169879992  1.0000
  C   C15       1.0  0.7293700826391073  0.4851883667295099  0.6548023306847027  1.0000
  C   C16       1.0  0.6272100382960346  0.5106336340210192  0.6410605296068039  1.0000
  C   C17       1.0  0.5351958531299206  0.5112615073320939  0.6851428399115418  1.0000
  C   C18       1.0  0.545311518514424  0.4879892726701487  0.7422274628509411  1.0000
  C   C19       1.0  0.6473591204980309  0.4625759756753495  0.7568228232867396  1.0000
  C   C20       1.0  0.7933280927340506  0.36822423782446373  0.8488219175484983  1.0000
  C   C21       1.0  0.01249077113801176  0.26017884248150847  0.8687631579910755  1.0000
  C   C22       1.0  0.1236216899196947  0.20518405268265383  0.8831451882365753  1.0000
  C   C23       1.0  0.8228883329013783  0.2781583729695356  0.8854152370671712  1.0000
  C   C24       1.0  0.9305963252947648  0.22528799342406106  0.8960379853845165  1.0000
  C   C25       1.0  0.985164456371251  0.34940040725101096  0.8316801127650632  1.0000
  C   C26       1.0  0.8759823725253497  0.40340838944360513  0.8230113041688013  1.0000
  C   C27       1.0  0.617038533714883  0.532772935607241  0.5796583535889465  1.0000
  C   C28       1.0  0.592486626384314  0.2751278302180253  0.8633467856448857  1.0000
  C   C29       1.0  0.25055628177786826  0.6229655711069029  0.5648117565163203  1.0000
  C   C30       1.0  0.174435558358482  0.7264174349873826  0.5899429935673766  1.0000
  C   C31       1.0  0.1152870247848909  0.7342101972355692  0.6479887938046858  1.0000
  C   C32       1.0  0.04381916419094979  0.8315112112181994  0.6706088781929364  1.0000
  C   C33       1.0  0.027346993490446857  0.9224792209840942  0.6354433622863809  1.0000
  C   C34       1.0  0.08678638408363774  0.9131768440893212  0.5770417190848818  1.0000
  C   C35       1.0  0.16059020115915948  0.8163565616132618  0.5546438245361145  1.0000
  C   C36       1.0  0.6137476494729838  0.21863798146325314  0.5807116337041549  1.0000
  C   C37       1.0  0.6364526094525688  0.2739493389644565  0.6130467628321625  1.0000
  C   C38       1.0  0.806674292181505  0.1198317082362195  0.6274211676743278  1.0000
  C   C39       1.0  0.7829167463502528  0.0651212951213438  0.5948256584327751  1.0000
  C   C40       1.0  0.6866563033544325  0.11334577477627762  0.5723288669399054  1.0000
  C   C41       1.0  0.510526847460845  0.27098028710312155  0.5568312925571133  1.0000
  C   C42       1.0  0.9115602164555341  0.03932829799443029  0.788190389995492  1.0000
  C   C43       1.0  0.8689156518840804  0.014677913987952698  0.8453321034915644  1.0000
  C   C44       1.0  0.7784132630669165  0.9892722675180466  0.858952397416871  1.0000
  C   C45       1.0  0.7311691576758719  0.98871136283892  0.814809075002401  1.0000
  C   C46       1.0  0.7752642250424701  0.0119038782436505  0.7577500111849673  1.0000
  C   C47       1.0  0.8665477505878343  0.03720700633622442  0.7432666331478684  1.0000
  C   C48       1.0  0.010043006749277996  0.13173569156563764  0.6512620683379351  1.0000
  C   C49       1.0  0.1413449804837299  0.23966781630699072  0.6312075561137289  1.0000
  C   C50       1.0  0.21179957187239745  0.29473601583556075  0.6168982694701126  1.0000
  C   C51       1.0  0.9863250475262575  0.2217228638847928  0.6145877447261867  1.0000
  C   C52       1.0  0.051913353714674294  0.2745356869153639  0.6038850600153649  1.0000
  C   C53       1.0  0.16606858828589574  0.15046028401721398  0.6683142664336541  1.0000
  C   C54       1.0  0.10217657978134301  0.0964476637652822  0.6770043284343855  1.0000
  C   C55       1.0  0.7290269899790188  0.9670120641404836  0.9202960413293437  1.0000
  C   C56       1.0  0.7307989852355306  0.22477487556688666  0.636754844659009  1.0000
  C   C57       1.0  0.5620377934258158  0.12278005452689912  0.06487536579487597  1.0000
  C   C58       1.0  0.5094428546954151  0.22625847253537756  0.0900092370087293  1.0000
  C   C59       1.0  0.5026477001013137  0.23425051963476312  0.14806148210323755  1.0000
  C   C60       1.0  0.45400237221616613  0.3316224368991385  0.1706386097180754  1.0000
  C   C61       1.0  0.4144711093406525  0.4224697847380626  0.13542133320440536  1.0000
  C   C62       1.0  0.42286048966030887  0.41300176789774673  0.0770148026978603  1.0000
  C   C63       1.0  0.46856895878497085  0.3160952997691879  0.0546515478233545  1.0000
  C   C64       1.0  0.5867000155149994  0.7186080076228692  0.0806929427542044  1.0000
  C   C65       1.0  0.476435540026152  0.7740120214333007  0.11298497891644381  1.0000
  C   C66       1.0  0.4458078793751524  0.6198945469035309  0.12735837021887866  1.0000
  C   C67       1.0  0.5567976148774463  0.5651268659187069  0.09481614561958907  1.0000
  C   C68       1.0  0.6273660446388976  0.6133205898197645  0.07231837049820905  1.0000
  C   C69       1.0  0.6615471049947881  0.7708441580041385  0.056831299630708564  1.0000
  C   C70       1.0  0.2605933291627665  0.5394883858426667  0.2880235174149845  1.0000
  C   C71       1.0  0.2706308616640598  0.5148082378819795  0.3451969446950967  1.0000
  C   C72       1.0  0.37278789647485416  0.48936762285526203  0.3589391445638269  1.0000
  C   C73       1.0  0.4648020903922685  0.48874130542708377  0.3148574901523347  1.0000
  C   C74       1.0  0.45468603639618266  0.5120112183490663  0.2577731861813816  1.0000
  C   C75       1.0  0.35264069727441694  0.5374229526444055  0.24317638241770098  1.0000
  C   C76       1.0  0.2066694665778071  0.6317762686511446  0.15118038546388138  1.0000
  C   C77       1.0  0.9875030189209892  0.7398247845447585  0.13124149353551226  1.0000
  C   C78       1.0  0.876370204036398  0.7948188065907543  0.11686027394976858  1.0000
  C   C79       1.0  0.17710809652761833  0.7218459705921492  0.11458310371792627  1.0000
  C   C80       1.0  0.06939972867518654  0.7747155997369503  0.10396298424233663  1.0000
  C   C81       1.0  0.014832351920126954  0.6506016483634482  0.16832214379707716  1.0000
  C   C82       1.0  0.12401972891249359  0.5965920995347745  0.17698901047931054  1.0000
  C   C83       1.0  0.3829590113441057  0.4672259956649897  0.4203412260551003  1.0000
  C   C84       1.0  0.4075124294669338  0.7248695586593923  0.1366535427928994  1.0000
  C   C85       1.0  0.7494454353984279  0.37703413655800944  0.43518787901341927  1.0000
  C   C86       1.0  0.8255654023469744  0.2735822775257759  0.4100571801039122  1.0000
  C   C87       1.0  0.8847124109266459  0.2657879574989225  0.35201055977140766  1.0000
  C   C88       1.0  0.9561844381875346  0.1684861756183835  0.32939111586064473  1.0000
  C   C89       1.0  0.9726573653588774  0.0775181610042281  0.36455609362565145  1.0000
  C   C90       1.0  0.9132149575824259  0.08682363814501311  0.42295789321973837  1.0000
  C   C91       1.0  0.8394088623430775  0.18364237928294366  0.44535674629991456  1.0000
  C   C92       1.0  0.3862540535016522  0.7813586260281725  0.4192879305241277  1.0000
  C   C93       1.0  0.36354796479071916  0.726049584507045  0.38695190473072216  1.0000
  C   C94       1.0  0.1933240236011927  0.8801687933911284  0.3725805971965029  1.0000
  C   C95       1.0  0.2170838355952326  0.9348776553988501  0.4051759035952215  1.0000
  C   C96       1.0  0.3133446530009821  0.8866523973103922  0.42767230481819496  1.0000
  C   C97       1.0  0.4894759863945523  0.729015537106527  0.4431673432597165  1.0000
  C   C98       1.0  0.08844829595938818  0.9606652197865985  0.21181004858758004  1.0000
  C   C99       1.0  0.13109135303952965  0.9853171577801804  0.15466882678281724  1.0000
  C   C100      1.0  0.22158923138377423  0.010730558656682402  0.14104925224287257  1.0000
  C   C101      1.0  0.2688337210363585  0.011292244649275997  0.1851932537757078  1.0000
  C   C102      1.0  0.22473751293737365  0.9880989527793318  0.2422521766163257  1.0000
  C   C103      1.0  0.13345587474361767  0.962795036556727  0.25673408810042275  1.0000
  C   C104      1.0  0.9899602080667265  0.8682609023651793  0.34873600611222605  1.0000
  C   C105      1.0  0.8586608792550336  0.760327988509637  0.36878892713689027  1.0000
  C   C106      1.0  0.7882043983141358  0.7052605693829079  0.38309885334347626  1.0000
  C   C107      1.0  0.01367212972468926  0.7782768690055448  0.3854147061578529  1.0000
  C   C108      1.0  0.9480860841974916  0.7254624755473174  0.3961151205507604  1.0000
  C   C109      1.0  0.83393275773021  0.8495417386436087  0.3316843477841471  1.0000
  C   C110      1.0  0.8978262715254601  0.9035527971802467  0.322992967102074  1.0000
  C   C111      1.0  0.2709736116184942  0.032991530843780516  0.0797050074083145  1.0000
  C   C112      1.0  0.26920159995969334  0.7752256115157009  0.3632453057871601  1.0000
  O   O1        1.0  0.35770187714558693  0.9504874082484349  0.9140500606018376  1.0000
  O   O2        1.0  0.47299997405934135  0.8855982431221892  0.9764237862140062  1.0000
  O   O3        1.0  0.6984501192747459  0.5445083853307865  0.5423335917868144  1.0000
  O   O4        1.0  0.5298581756702064  0.537570599490799  0.5689066594627831  1.0000
  O   O5        1.0  0.23506121331401175  0.27811591777439293  0.9625385337698302  1.0000
  O   O6        1.0  0.3888610388277983  0.1270272435049051  0.9386853551762325  1.0000
  O   O7        1.0  0.13868554633332758  0.14418573874146295  0.926287963659341  1.0000
  O   O8        1.0  0.2051627732590831  0.22605723386330825  0.8469373254382117  1.0000
  O   O9        1.0  0.22254720327946842  0.5496424780726413  0.5858769814709672  1.0000
  O   O10       1.0  0.33532505265655743  0.6146575942215762  0.5236178322682576  1.0000
  O   O11       1.0  0.7849607811269765  0.9551812845563181  0.9575978513107227  1.0000
  O   O12       1.0  0.6358971682412431  0.9622148651415827  0.9310533572610209  1.0000
  O   O13       1.0  0.47521579840198314  0.22201983384476165  0.5375903757885536  1.0000
  O   O14       1.0  0.4545898696326842  0.3731586589213905  0.5611743403503763  1.0000
  O   O15       1.0  0.20895283893856487  0.35589051223127643  0.5738218105868993  1.0000
  O   O16       1.0  0.2780165594643762  0.2738021165060331  0.6531216758663589  1.0000
  O   O17       1.0  0.6422968020951032  0.04951075133431001  0.08594983111581198  1.0000
  O   O18       1.0  0.5269990948932629  0.1144022420646138  0.02357620003022021  1.0000
  O   O19       1.0  0.3015428901577266  0.45549363656346753  0.45766515305785294  1.0000
  O   O20       1.0  0.47014274898094055  0.4624213606566131  0.43109312920735465  1.0000
  O   O21       1.0  0.7649367378591734  0.7218884470035718  0.03746203869228279  1.0000
  O   O22       1.0  0.6111346242787334  0.8729755451580488  0.06131245436215237  1.0000
  O   O23       1.0  0.8613033064374205  0.8558140358873773  0.07371916629673342  1.0000
  O   O24       1.0  0.7948298465639  0.7739394124866832  0.1530666290136296  1.0000
  O   O25       1.0  0.7774545127965171  0.450357225728169  0.4141222405637561  1.0000
  O   O26       1.0  0.6646755292377194  0.3853428812687199  0.47638107769287064  1.0000
  O   O27       1.0  0.21503866663680074  0.0448184376533547  0.042403398643678286  1.0000
  O   O28       1.0  0.3641004117717444  0.0377918146322997  0.06894619388916107  1.0000
  O   O29       1.0  0.5247908254074077  0.7779790431125021  0.46240315965187745  1.0000
  O   O30       1.0  0.5454114644335988  0.6268387463240543  0.43882768162288227  1.0000
  O   O31       1.0  0.7910458413512342  0.6441091761856653  0.4261758425588908  1.0000
  O   O32       1.0  0.7219866684529779  0.7261975737341685  0.3468760563902433  1.0000
