data_image0
_chemical_formula_structural       Ag4H24C32S2N8O12
_chemical_formula_sum              "Ag4 H24 C32 S2 N8 O12"
_cell_length_a       7.3210613977638745
_cell_length_b       11.33573971789512
_cell_length_c       12.74412388878532
_cell_angle_alpha    70.53121882082081
_cell_angle_beta     73.33882754484647
_cell_angle_gamma    71.179081213537

_space_group_name_H-M_alt    "P 1"
_space_group_IT_number       1

loop_
  _space_group_symop_operation_xyz
  'x, y, z'

loop_
  _atom_site_type_symbol
  _atom_site_label
  _atom_site_symmetry_multiplicity
  _atom_site_fract_x
  _atom_site_fract_y
  _atom_site_fract_z
  _atom_site_occupancy
  Ag  Ag1       1.0  0.35614324769059647  0.4132174002095467  0.6519631045213145  1.0000
  Ag  Ag2       1.0  0.4207616632839907  0.0872295115901522  0.8481323509257732  1.0000
  Ag  Ag3       1.0  0.6438548015634707  0.5867842589516669  0.3480310154409453  1.0000
  Ag  Ag4       1.0  0.5792348215830927  0.9127691602922849  0.15186942283251884  1.0000
  H   H1        1.0  0.8676893648480969  0.39156786696483425  0.023847139150348126  1.0000
  H   H2        1.0  0.2838614703609962  0.10850396842192819  0.47571701801450667  1.0000
  H   H3        1.0  0.13230919225872406  0.6084356521014483  0.9761524524401465  1.0000
  H   H4        1.0  0.7161401174994213  0.89149474977912  0.5242810616223181  1.0000
  H   H5        1.0  0.5845430062604605  0.45464423107105023  0.177494705914647  1.0000
  H   H6        1.0  0.2174932076797873  0.0452932594774396  0.3220216330822936  1.0000
  H   H7        1.0  0.4154583069485651  0.5453563371966936  0.8225096316743502  1.0000
  H   H8        1.0  0.7825106614487186  0.9547025911598013  0.6779745007943133  1.0000
  H   H9        1.0  0.397500989452652  0.8261643306043497  0.9491983572734738  1.0000
  H   H10       1.0  0.17239641730540717  0.6741105015135814  0.5505990345776225  1.0000
  H   H11       1.0  0.6024923319650384  0.1738343371861859  0.05080372781229412  1.0000
  H   H12       1.0  0.8275981280177334  0.3258881281421537  0.4494061219746541  1.0000
  H   H13       1.0  0.675635197258707  0.7644966270256003  0.7945701479508145  1.0000
  H   H14       1.0  0.23401230306381385  0.7359654781897403  0.7053057358819641  1.0000
  H   H15       1.0  0.3243581901962288  0.23550592704452808  0.2054294968739683  1.0000
  H   H16       1.0  0.7659757059179955  0.2640428364311944  0.29469575281892446  1.0000
  H   H17       1.0  0.2586476822532474  0.6001531673747778  0.22524006246470657  1.0000
  H   H18       1.0  0.08418657165137922  0.8999561490871245  0.27438236999773125  1.0000
  H   H19       1.0  0.7413523738246113  0.39984648508864495  0.7747603967388911  1.0000
  H   H20       1.0  0.9158152157704793  0.10004730354793166  0.7256225782018362  1.0000
  H   H21       1.0  0.18867094154983016  0.7589436614931343  0.13070624049549912  1.0000
  H   H22       1.0  0.07824600658303649  0.7411804141517564  0.3688590908662163  1.0000
  H   H23       1.0  0.8113199654897939  0.24105504730542293  0.8692925356255329  1.0000
  H   H24       1.0  0.9217571797184904  0.258818288464461  0.6311402500910077  1.0000
  C   C1        1.0  0.950926457525533  0.5403961352584119  0.814904535943782  1.0000
  C   C2        1.0  0.305527795104389  0.9601274493760951  0.6849722770352287  1.0000
  C   C3        1.0  0.049070809638593005  0.45960353566307066  0.18509442444118207  1.0000
  C   C4        1.0  0.6944749838499578  0.0398682983496812  0.31503212124797386  1.0000
  C   C5        1.0  0.7909275840810321  0.5761690798519297  0.9017353497458842  1.0000
  C   C6        1.0  0.2685670188094134  0.9241492791075601  0.5980497793205045  1.0000
  C   C7        1.0  0.20907019052164338  0.42383442937597954  0.09826502816854797  1.0000
  C   C8        1.0  0.7314447756589859  0.0758465641286605  0.40194699322153576  1.0000
  C   C9        1.0  0.7662969993564062  0.48742447002354067  0.009447561284844128  1.0000
  C   C10       1.0  0.2635811365448078  0.012696993033316097  0.4901801969054985  1.0000
  C   C11       1.0  0.23369767845542125  0.5125799537900164  0.9905567688442358  1.0000
  C   C12       1.0  0.7364319144334602  0.987302733609269  0.509814372873798  1.0000
  C   C13       1.0  0.6096956502496838  0.522997023631916  0.09442856524343314  1.0000
  C   C14       1.0  0.22755598285723255  0.9770480777881403  0.4051903256838256  1.0000
  C   C15       1.0  0.39030287425271154  0.47700257389320205  0.9055763005763139  1.0000
  C   C16       1.0  0.7724476114127797  0.022950612116481795  0.5948100390955702  1.0000
  C   C17       1.0  0.4781594332077858  0.6454122424765527  0.07342642624360712  1.0000
  C   C18       1.0  0.19693549638349603  0.8547476889546815  0.42629227922961377  1.0000
  C   C19       1.0  0.5218343626298323  0.3545883204806088  0.9265782965021144  1.0000
  C   C20       1.0  0.8030676571065103  0.145248081321057  0.5737103089074864  1.0000
  C   C21       1.0  0.5034747166778714  0.7325096330010085  0.9655455212889092  1.0000
  C   C22       1.0  0.20119356786906897  0.7677611288443842  0.5342406708609458  1.0000
  C   C23       1.0  0.49652537241860967  0.2674919626022144  0.03445371778419572  1.0000
  C   C24       1.0  0.7988064877945927  0.23224050202040294  0.4657557342438849  1.0000
  C   C25       1.0  0.6580066854884449  0.698714642547678  0.8792369927756238  1.0000
  C   C26       1.0  0.2354629090693692  0.8016695763880932  0.6206110348661653  1.0000
  C   C27       1.0  0.34198792587194055  0.3012878733876505  0.12076572351566742  1.0000
  C   C28       1.0  0.7645430663529924  0.1983281185693784  0.3793918319590687  1.0000
  C   C29       1.0  0.31077486406888266  0.6835179813020885  0.16533186978446676  1.0000
  C   C30       1.0  0.1595719980740283  0.816558673946446  0.3343677204084229  1.0000
  C   C31       1.0  0.6892208711055829  0.31648361308246115  0.8346674431178868  1.0000
  C   C32       1.0  0.8404288737336925  0.1834419422944649  0.665632759390121  1.0000
  S   S1        1.0  0.3960103138870962  0.7499963667746101  0.24996794046213466  1.0000
  S   S2        1.0  0.6039869532770298  0.2500033041468797  0.7500310199228365  1.0000
  N   N1        1.0  0.08396826155863114  0.5099927684384014  0.7446030247312121  1.0000
  N   N2        1.0  0.33755394521645615  0.990654626373988  0.7553423121889935  1.0000
  N   N3        1.0  0.9160227449510573  0.49000979137818484  0.2553961450971087  1.0000
  N   N4        1.0  0.6624664902303365  0.0093412898227143  0.24464864475799428  1.0000
  N   N5        1.0  0.3121056193571548  0.36823000273896866  0.4470839254236765  1.0000
  N   N6        1.0  0.1272256600617112  0.13193831078037727  0.052945754017592606  1.0000
  N   N7        1.0  0.687896684348871  0.6317678066228962  0.5529097270020387  1.0000
  N   N8        1.0  0.872775211953112  0.8680613162598547  0.9470567528303349  1.0000
  O   O1        1.0  0.34300557686216127  0.47085923186437384  0.4552858676597963  1.0000
  O   O2        1.0  0.26931657432281497  0.029529048134357097  0.04483511837353398  1.0000
  O   O3        1.0  0.6569955698040604  0.5291385451091556  0.5447103812359657  1.0000
  O   O4        1.0  0.7306834817550438  0.9704706043290658  0.9551653408300564  1.0000
  O   O5        1.0  0.271713900142032  0.2826964941878316  0.5378695648239571  1.0000
  O   O6        1.0  0.09197068542731315  0.21735340512569926  0.962095152614502  1.0000
  O   O7        1.0  0.7282907180577927  0.7172994015493401  0.46212294876043103  1.0000
  O   O8        1.0  0.90802467562569  0.7826461883075165  0.03791002453272805  1.0000
  O   O9        1.0  0.3245157102382592  0.35561952459580226  0.35130042184506033  1.0000
  O   O10       1.0  0.031025526102247594  0.14448958011687546  0.14868527560405906  1.0000
  O   O11       1.0  0.6754839372498224  0.6443831081812661  0.6486929323882149  1.0000
  O   O12       1.0  0.9689812652570782  0.8555080894173981  0.851319638865512  1.0000
