data_image0
_chemical_formula_structural       Cu4H112C112S4N32O16
_chemical_formula_sum              "Cu4 H112 C112 S4 N32 O16"
_cell_length_a       14.829820116835345
_cell_length_b       14.829821673774843
_cell_length_c       16.033044610211153
_cell_angle_alpha    79.88845465301206
_cell_angle_beta     79.88841395072545
_cell_angle_gamma    77.20737431043449

_space_group_name_H-M_alt    "P 1"
_space_group_IT_number       1

loop_
  _space_group_symop_operation_xyz
  'x, y, z'

loop_
  _atom_site_type_symbol
  _atom_site_label
  _atom_site_symmetry_multiplicity
  _atom_site_fract_x
  _atom_site_fract_y
  _atom_site_fract_z
  _atom_site_occupancy
  Cu  Cu1       1.0  0.23331417793369266  0.7666799846401486  0.2500058385402895  1.0000
  Cu  Cu2       1.0  0.7666823225915851  0.23332123997602852  0.7500220329573678  1.0000
  Cu  Cu3       1.0  0.9999773979194372  0.49996022965157016  0.5000177230949632  1.0000
  Cu  Cu4       1.0  0.49999554653648204  2.1903603907809444e-06  0.999983875977783  1.0000
  H   H1        1.0  0.274411999086567  0.5551265260938294  0.33085620406545496  1.0000
  H   H2        1.0  0.5551289039942232  0.2743970562865315  0.8308615676753561  1.0000
  H   H3        1.0  0.7256576540005213  0.4448472301031359  0.669176412646827  1.0000
  H   H4        1.0  0.444845433594999  0.7256252109700513  0.16916086441305106  1.0000
  H   H5        1.0  0.35684116904388224  0.4829409028684069  0.079950959774763  1.0000
  H   H6        1.0  0.4829496589420544  0.35684723098845683  0.5799602332408895  1.0000
  H   H7        1.0  0.6430488000025463  0.5170880627886092  0.9200461289028609  1.0000
  H   H8        1.0  0.5170702856163274  0.6430939403448548  0.4200433929713014  1.0000
  H   H9        1.0  0.28662407844669247  0.6755043046172063  0.07129059232671862  1.0000
  H   H10       1.0  0.6755131142352154  0.2866422379851842  0.571304734204098  1.0000
  H   H11       1.0  0.7132465702329469  0.324521306406389  0.9287674074943695  1.0000
  H   H12       1.0  0.32450230125323287  0.7132987800698984  0.428747648397497  1.0000
  H   H13       1.0  0.20859180842018787  0.9714557860683042  0.1552713531511572  1.0000
  H   H14       1.0  0.971455162866654  0.20860239112018059  0.6552830046426621  1.0000
  H   H15       1.0  0.7914319032449058  0.028528967403438778  0.8447448679451668  1.0000
  H   H16       1.0  0.028517973486145796  0.791432551059401  0.34472579171112744  1.0000
  H   H17       1.0  0.09473799003747979  0.06573255701634646  0.3943256942898117  1.0000
  H   H18       1.0  0.0657306592198452  0.0947175100601925  0.8943333290342749  1.0000
  H   H19       1.0  0.9052678863537409  0.9342806415239123  0.6056745304853307  1.0000
  H   H20       1.0  0.9342786688427083  0.9052712229538499  0.10564396715893314  1.0000
  H   H21       1.0  0.1634084940115912  0.8728992183580572  0.42039793738098297  1.0000
  H   H22       1.0  0.8728989266854014  0.16339690318736905  0.9204142545848059  1.0000
  H   H23       1.0  0.8365853651263037  0.12711492539789762  0.5796227218148645  1.0000
  H   H24       1.0  0.1271122220706928  0.836588414696628  0.07959946660760414  1.0000
  H   H25       1.0  0.3615052554954232  0.39306958312926094  0.31806931836060676  1.0000
  H   H26       1.0  0.3930673940666339  0.3614947093455782  0.8180816670102616  1.0000
  H   H27       1.0  0.6385383145167438  0.6069134795246781  0.6819035337126493  1.0000
  H   H28       1.0  0.6069085087163586  0.6385260840855482  0.18191455373029436  1.0000
  H   H29       1.0  0.4292499659980109  0.3699865888367383  0.21821870606181903  1.0000
  H   H30       1.0  0.36997947897024364  0.42924286218317304  0.7182275777351634  1.0000
  H   H31       1.0  0.5707585002369484  0.6300436060345543  0.7817298203996402  1.0000
  H   H32       1.0  0.6300222788419206  0.5707611110337394  0.2817503966786745  1.0000
  H   H33       1.0  0.12121596138674562  0.13539050142998824  0.1514822996563652  1.0000
  H   H34       1.0  0.1353812150701899  0.12120342701837214  0.6514979395174548  1.0000
  H   H35       1.0  0.8788205319812336  0.8645979703466365  0.8485095240303834  1.0000
  H   H36       1.0  0.8645892783879815  0.8788281770548136  0.3484843425211465  1.0000
  H   H37       1.0  0.046139153804944  0.16901510644901654  0.2445632263940638  1.0000
  H   H38       1.0  0.1690110537642795  0.04613224046630648  0.7445740166834938  1.0000
  H   H39       1.0  0.9538856174064919  0.8309854427839126  0.755419185913091  1.0000
  H   H40       1.0  0.8309769756689817  0.9538897491077022  0.2553883209796055  1.0000
  H   H41       1.0  0.40677405357865126  0.2351720255499785  0.17485537418941285  1.0000
  H   H42       1.0  0.23517384167736577  0.40676513459648317  0.6748550750968505  1.0000
  H   H43       1.0  0.5932387803490544  0.764827516896652  0.8251334176692566  1.0000
  H   H44       1.0  0.764829235546742  0.5932398283159016  0.3251356387190896  1.0000
  H   H45       1.0  0.1700781844254635  0.40961672705346064  0.3042260421343528  1.0000
  H   H46       1.0  0.4096119764105667  0.17007198384403208  0.8042349132949483  1.0000
  H   H47       1.0  0.8299382971592382  0.5903951212550709  0.6957552783364562  1.0000
  H   H48       1.0  0.5903729286322985  0.8299306077365786  0.19575213477018844  1.0000
  H   H49       1.0  0.30643628527882066  0.1262688943451522  0.1637612784119113  1.0000
  H   H50       1.0  0.1262732817460801  0.3064222608939956  0.6637532681950162  1.0000
  H   H51       1.0  0.6935833842811192  0.8737249979795009  0.836243546320823  1.0000
  H   H52       1.0  0.8737237491858779  0.6935984591298164  0.33622034164167763  1.0000
  H   H53       1.0  0.07008678869385683  0.2997062943183195  0.2944385697508167  1.0000
  H   H54       1.0  0.2997104309498013  0.07007488462557628  0.7944419596393004  1.0000
  H   H55       1.0  0.9299371600834477  0.7002888560900471  0.705555413831469  1.0000
  H   H56       1.0  0.7002717224385931  0.9299310333190858  0.20554250406965477  1.0000
  H   H57       1.0  0.08100028068543  0.2908995103117744  0.4789260597178214  1.0000
  H   H58       1.0  0.2908860116015645  0.08100107594911779  0.9789246114109603  1.0000
  H   H59       1.0  0.919004129499072  0.7091152610357837  0.521085999562068  1.0000
  H   H60       1.0  0.7091017784510641  0.9190111917424273  0.021061106601813217  1.0000
  H   H61       1.0  0.3552931519388736  0.33805166128387043  0.4735867313665524  1.0000
  H   H62       1.0  0.3380497728209165  0.3552940693628416  0.9736016354503646  1.0000
  H   H63       1.0  0.6447163468147679  0.6619582394084986  0.5263909882436478  1.0000
  H   H64       1.0  0.6619658199705539  0.6447102817981402  0.02639845415097855  1.0000
  H   H65       1.0  0.2233263399239149  0.5007042510311877  0.5011647969480748  1.0000
  H   H66       1.0  0.5007058431529855  0.223305782002285  0.0011553871754869927  1.0000
  H   H67       1.0  0.7767039426759085  0.49930523196918125  0.49884031816906566  1.0000
  H   H68       1.0  0.4993040740691796  0.7766806660270049  0.9988352713587503  1.0000
  H   H69       1.0  0.4348047720561539  0.9156395597452586  0.856360898915355  1.0000
  H   H70       1.0  0.9156646261538057  0.434815738403614  0.35637840822561634  1.0000
  H   H71       1.0  0.5651575392211896  0.0843362310968345  0.1436263472248598  1.0000
  H   H72       1.0  0.0843627353746612  0.5651935149405388  0.6436446617228526  1.0000
  H   H73       1.0  0.6220627007298845  0.09759150384831371  0.8410558476194367  1.0000
  H   H74       1.0  0.09761455877169571  0.6220750605987674  0.3410863208495698  1.0000
  H   H75       1.0  0.3779318368590197  0.9023642264455417  0.15889769540319074  1.0000
  H   H76       1.0  0.9024148218905026  0.3779282667552692  0.6589410992296365  1.0000
  H   H77       1.0  0.629037214930534  0.05176692244874912  0.6781377745445738  1.0000
  H   H78       1.0  0.051819947975495495  0.6290398479304213  0.17815139732478263  1.0000
  H   H79       1.0  0.37096718761598885  0.948136595554473  0.3218441862455066  1.0000
  H   H80       1.0  0.948231813251418  0.3709534915597743  0.8218628678058124  1.0000
  H   H81       1.0  0.20756589007916657  0.16252514689182365  0.4426960269512179  1.0000
  H   H82       1.0  0.1625062708111571  0.2075562675216318  0.9427133524057324  1.0000
  H   H83       1.0  0.7924668534839087  0.8374998489209419  0.5572744816651535  1.0000
  H   H84       1.0  0.8374878089229512  0.7924641927210629  0.05728258782323796  1.0000
  H   H85       1.0  0.3076737192765436  0.20003599232538247  0.3828916231400896  1.0000
  H   H86       1.0  0.20001787212033412  0.30766984413634196  0.8828911205069333  1.0000
  H   H87       1.0  0.6923546625981204  0.7999917268717027  0.6171065849226736  1.0000
  H   H88       1.0  0.799980434486578  0.6923558857830157  0.11710646130659091  1.0000
  H   H89       1.0  0.46782373482041356  0.8738710050737807  0.7082590555756242  1.0000
  H   H90       1.0  0.8738902660261091  0.467869045112728  0.20826404652734706  1.0000
  H   H91       1.0  0.5321040625607836  0.12608986452241303  0.2917477309462768  1.0000
  H   H92       1.0  0.1261393994939866  0.5321548867579935  0.7917464020497178  1.0000
  H   H93       1.0  0.5679830221317913  0.9040648926034861  0.6400159326868079  1.0000
  H   H94       1.0  0.9040954682834011  0.5680195685617234  0.14003739523034406  1.0000
  H   H95       1.0  0.4319698644927784  0.09586975066454069  0.3599710709683848  1.0000
  H   H96       1.0  0.0959327115464248  0.4320065939562313  0.8599885310076373  1.0000
  H   H97       1.0  0.43972136932308814  0.2033720700955115  0.48280885339119095  1.0000
  H   H98       1.0  0.20337906272572331  0.43970751577823114  0.9828285016964885  1.0000
  H   H99       1.0  0.5603002618520989  0.796612452111276  0.5172046085762929  1.0000
  H   H100      1.0  0.796627360486397  0.5602992915060482  0.01718635444765234  1.0000
  H   H101      1.0  0.5368835322002568  0.09589914488802978  0.5799279607498775  1.0000
  H   H102      1.0  0.0959376142605421  0.5368817819877734  0.07994010995566467  1.0000
  H   H103      1.0  0.46310699981837894  0.9040479855842137  0.42008991708519267  1.0000
  H   H104      1.0  0.9040939648960632  0.4631239265969072  0.9200753704353773  1.0000
  H   H105      1.0  0.33141019276786216  0.9201246909598452  0.6437930934192551  1.0000
  H   H106      1.0  0.920111033998218  0.33145288399761347  0.14381726281130366  1.0000
  H   H107      1.0  0.6685335849120975  0.07987833416505906  0.3561765821243768  1.0000
  H   H108      1.0  0.07989479248787032  0.6685751657342253  0.8562081043477221  1.0000
  H   H109      1.0  0.2332796084850912  0.028816323470891803  0.5445572303257222  1.0000
  H   H110      1.0  0.0287789715925939  0.23330723244786364  0.04457651161604301  1.0000
  H   H111      1.0  0.7666875391560738  0.9712249508831902  0.45541471186918153  1.0000
  H   H112      1.0  0.9712143440960049  0.7667187245151651  0.9554355334951907  1.0000
  C   C1        1.0  0.2864477234166288  0.5617557527706154  0.2614235026729119  1.0000
  C   C2        1.0  0.5617556814231082  0.2864433309469873  0.7614344694862113  1.0000
  C   C3        1.0  0.7135711309184813  0.4382408758079063  0.7386016067214528  1.0000
  C   C4        1.0  0.43823244729946964  0.7135589507362707  0.23859204480427817  1.0000
  C   C5        1.0  0.3278907402390346  0.5267770708900912  0.1294529111020779  1.0000
  C   C6        1.0  0.5267826450306856  0.3279064986736273  0.6294536579286144  1.0000
  C   C7        1.0  0.6720248271787597  0.47323820452067616  0.870567274994677  1.0000
  C   C8        1.0  0.4732261778108011  0.6720539589250974  0.3705636681424878  1.0000
  C   C9        1.0  0.2913249613763824  0.6208732327159223  0.12611316742408724  1.0000
  C   C10       1.0  0.6208859512545433  0.29134175723281414  0.6261175804792174  1.0000
  C   C11       1.0  0.7086051139876162  0.3791408967795106  0.8739311374341271  1.0000
  C   C12       1.0  0.3791256417307522  0.7086330028741373  0.3739207922320417  1.0000
  C   C13       1.0  0.18954063077051592  0.9710737482736391  0.22394719877093652  1.0000
  C   C14       1.0  0.9710801295933822  0.18954064846867866  0.7239656341824698  1.0000
  C   C15       1.0  0.8104762131004721  0.028915945837439873  0.7760568472567755  1.0000
  C   C16       1.0  0.028906214606223602  0.8104799856073726  0.276037095889997  1.0000
  C   C17       1.0  0.1320993720703072  0.017880375943349194  0.350101857698192  1.0000
  C   C18       1.0  0.017877849550089295  0.13208962901472177  0.8501148146296132  1.0000
  C   C19       1.0  0.8678987719870079  0.9821269037285703  0.6498973717203212  1.0000
  C   C20       1.0  0.9821189015268885  0.8679064275603211  0.14987015985570906  1.0000
  C   C21       1.0  0.1677380401698443  0.9233052445266877  0.36199737759155687  1.0000
  C   C22       1.0  0.923304039644357  0.16773676886304395  0.8620078475112862  1.0000
  C   C23       1.0  0.8322606633866841  0.076697011211813  0.6380162685466715  1.0000
  C   C24       1.0  0.0766989329526808  0.8322633481705565  0.13799236869900972  1.0000
  C   C25       1.0  0.3579983378327967  0.3934990555729596  0.25009176045477943  1.0000
  C   C26       1.0  0.39350210036936073  0.35798009037000605  0.750100125169233  1.0000
  C   C27       1.0  0.6420250919816867  0.6065031912704695  0.7498843590332028  1.0000
  C   C28       1.0  0.6064924737321249  0.6420136064921846  0.2498936636035864  1.0000
  C   C29       1.0  0.1189110093076877  0.14136356263653477  0.21914468689062971  1.0000
  C   C30       1.0  0.14136189740834476  0.11890420415137025  0.7191476433598396  1.0000
  C   C31       1.0  0.8811073190883504  0.8586306728867327  0.780852184431808  1.0000
  C   C32       1.0  0.8586295804336146  0.8811122816627942  0.2808150139970992  1.0000
  C   C33       1.0  0.2954372611998579  0.32926877409549604  0.24086793476860183  1.0000
  C   C34       1.0  0.32926569192923694  0.29542929139143587  0.7408719120795695  1.0000
  C   C35       1.0  0.7045743370611461  0.6707434088456663  0.7591122219965386  1.0000
  C   C36       1.0  0.6707254357989144  0.704570588588318  0.25912207475491295  1.0000
  C   C37       1.0  0.33292409197833445  0.24922734132595534  0.20166258060724832  1.0000
  C   C38       1.0  0.2492286871241376  0.3329153341654986  0.7016691563949708  1.0000
  C   C39       1.0  0.6670895299532305  0.7507775655167561  0.7983196406173647  1.0000
  C   C40       1.0  0.7507681216423236  0.6670956811900834  0.29832533347085644  1.0000
  C   C41       1.0  0.20024507251027052  0.3476048444439144  0.2733466001719691  1.0000
  C   C42       1.0  0.3476071615848113  0.20023437110811668  0.773358226796212  1.0000
  C   C43       1.0  0.7997685369760249  0.6523973406643575  0.7266341751107959  1.0000
  C   C44       1.0  0.6523896625944658  0.7997746276920948  0.22663158440245465  1.0000
  C   C45       1.0  0.18118168162350665  0.20613108122898885  0.22782301791733767  1.0000
  C   C46       1.0  0.20612967996380147  0.1811705441506319  0.7278259824724246  1.0000
  C   C47       1.0  0.8188374492570176  0.7938719197825392  0.7721692464683869  1.0000
  C   C48       1.0  0.7938595973483729  0.8188428810751702  0.27214809681718327  1.0000
  C   C49       1.0  0.2762724800086644  0.18801518149950167  0.19499654170622446  1.0000
  C   C50       1.0  0.18802392746408006  0.27626486448788506  0.6949986718487864  1.0000
  C   C51       1.0  0.7237451672789917  0.8119778604523018  0.8049962550202778  1.0000
  C   C52       1.0  0.8119730459493937  0.723752411408185  0.30497922509191977  1.0000
  C   C53       1.0  0.14383714598255895  0.2859748811043302  0.26735134504220776  1.0000
  C   C54       1.0  0.2859670547203522  0.14382700430332548  0.7673569795077385  1.0000
  C   C55       1.0  0.8561771502521297  0.7140332444723468  0.732638379285234  1.0000
  C   C56       1.0  0.7140242686514428  0.8561866177589578  0.23262485955179812  1.0000
  C   C57       1.0  0.1386664913375597  0.3243578302683047  0.4815246718009901  1.0000
  C   C58       1.0  0.32434911734334554  0.13866461680159856  0.9815291412418716  1.0000
  C   C59       1.0  0.8613471522839333  0.6756586127449964  0.5184682265074657  1.0000
  C   C60       1.0  0.6756483460716894  0.8613387604750781  0.018462692398443958  1.0000
  C   C61       1.0  0.2800597425141547  0.3525469794153366  0.4771460187418839  1.0000
  C   C62       1.0  0.3525324067022737  0.28005777136983306  0.9771608150311409  1.0000
  C   C63       1.0  0.7199504001830661  0.6474674642979608  0.5228452401232246  1.0000
  C   C64       1.0  0.6474719612055537  0.7199400246418151  0.022837050201083325  1.0000
  C   C65       1.0  0.2145745129133871  0.4323396079094763  0.4907262357990518  1.0000
  C   C66       1.0  0.43233025989303536  0.2145693067600405  0.9907288147305238  1.0000
  C   C67       1.0  0.7854348605644006  0.5676728768034635  0.509272932317316  1.0000
  C   C68       1.0  0.5676720216518234  0.7854248655015964  0.009263077515228712  1.0000
  C   C69       1.0  0.48513004235588403  0.9603654677643049  0.8295799308588129  1.0000
  C   C70       1.0  0.9603847385033291  0.4851511865789889  0.3295930182913408  1.0000
  C   C71       1.0  0.5148218797873554  0.03961933990458987  0.17040378629012307  1.0000
  C   C72       1.0  0.039641264879129806  0.5148570383376664  0.6704229379762411  1.0000
  C   C73       1.0  0.5833981999319632  0.05430202058337128  0.8185119352625776  1.0000
  C   C74       1.0  0.05432817790757839  0.5834072917799205  0.3185393173538102  1.0000
  C   C75       1.0  0.4165948255068698  0.9456471087073338  0.18145035459951234  1.0000
  C   C76       1.0  0.9456984379557483  0.4166007034393855  0.6814890542007461  1.0000
  C   C77       1.0  0.5867519936535005  0.03226343782091583  0.7380913686022197  1.0000
  C   C78       1.0  0.032305014449967494  0.5867605975431828  0.2381145669250486  1.0000
  C   C79       1.0  0.4132503872578326  0.9676480356384757  0.2618890454838834  1.0000
  C   C80       1.0  0.9677306783448145  0.41324552623226657  0.7619133076051838  1.0000
  C   C81       1.0  0.2680472341439284  0.19141720139338494  0.4477420000007585  1.0000
  C   C82       1.0  0.1914027737351063  0.2680496203711868  0.947763639155326  1.0000
  C   C83       1.0  0.7319658626566579  0.8086056328759028  0.5522362669386993  1.0000
  C   C84       1.0  0.8085982691134673  0.7319747997394829  0.05224120568154686  1.0000
  C   C85       1.0  0.5018759039374174  0.9324186540791786  0.6779803381559617  1.0000
  C   C86       1.0  0.9324422202146466  0.501907249821457  0.1779880694368359  1.0000
  C   C87       1.0  0.498071483153872  0.06753822410897206  0.3220196559646098  1.0000
  C   C88       1.0  0.067589464672217  0.4981094016472554  0.8220250686798424  1.0000
  C   C89       1.0  0.327463999389856  0.1258633931046234  0.508885716362883  1.0000
  C   C90       1.0  0.1258523663945041  0.3274677755538988  0.00889962125619801  1.0000
  C   C91       1.0  0.6725356251217605  0.8741470692640475  0.4911053028393582  1.0000
  C   C92       1.0  0.8741507193751302  0.6725500650302793  0.9911053054751022  1.0000
  C   C93       1.0  0.4138420844865535  0.1427382289552881  0.519507211168829  1.0000
  C   C94       1.0  0.1427383255549017  0.41383794539790125  0.0195212679775025  1.0000
  C   C95       1.0  0.5861621550068676  0.8572553747139509  0.4805044246940612  1.0000
  C   C96       1.0  0.8572646922863641  0.5861744086817994  0.9804870176714502  1.0000
  C   C97       1.0  0.46954600475668684  0.08126703038161757  0.5743478928570979  1.0000
  C   C98       1.0  0.08128193019476983  0.4695509282974725  0.0743670156807781  1.0000
  C   C99       1.0  0.5304426969666238  0.9187017933257663  0.42565691557917523  1.0000
  C   C100      1.0  0.9187350580784964  0.5304626164943471  0.9256445254269964  1.0000
  C   C101      1.0  0.440267427162425  0.0008522118113418682  0.6202666967246699  1.0000
  C   C102      1.0  0.0008651571737984987  0.44029410078150727  0.12028088924582651  1.0000
  C   C103      1.0  0.5596948374724278  0.9991194684559517  0.37972244352364726  1.0000
  C   C104      1.0  0.9991512251287703  0.5597318720217288  0.8797319317348453  1.0000
  C   C105      1.0  0.3548868764958186  0.9829779970234397  0.6090929972021897  1.0000
  C   C106      1.0  0.982970616482497  0.3549197723045621  0.1091108374003156  1.0000
  C   C107      1.0  0.6450693189296856  0.017017545308803565  0.3908921280143147  1.0000
  C   C108      1.0  0.017034537735831592  0.6451057380510363  0.8909075444113697  1.0000
  C   C109      1.0  0.2991568906101563  0.0446607980791285  0.5534991493297171  1.0000
  C   C110      1.0  0.044644088471201805  0.2991732810059204  0.053522600385058204  1.0000
  C   C111      1.0  0.7008260786401691  0.9553511894407052  0.4464755110198624  1.0000
  C   C112      1.0  0.9553609650197925  0.7008372275335472  0.9464925168474779  1.0000
  S   S1        1.0  0.1355901804601629  0.6878687620038874  0.48805346145748985  1.0000
  S   S2        1.0  0.6878507253738703  0.13557248283132847  0.9880417392859401  1.0000
  S   S3        1.0  0.8644254416966319  0.31215255158233646  0.511962697431926  1.0000
  S   S4        1.0  0.3121354052208859  0.8644012024014599  0.011935892019614895  1.0000
  N   N1        1.0  0.26583478394844917  0.6409754482728474  0.20892643966617183  1.0000
  N   N2        1.0  0.6409765634279125  0.26583910550429113  0.7089352037568517  1.0000
  N   N3        1.0  0.7341594897582482  0.35902539875738165  0.7911199254272248  1.0000
  N   N4        1.0  0.35901842017741364  0.7341582226289487  0.291105360842657  1.0000
  N   N5        1.0  0.3250746038015322  0.4906258794753525  0.21534727719132718  1.0000
  N   N6        1.0  0.4906331830213447  0.3250764255896783  0.7153586681754405  1.0000
  N   N7        1.0  0.6749052242473186  0.5093768530777538  0.7846667357742092  1.0000
  N   N8        1.0  0.5093660664859385  0.6749119874756886  0.2846607886206485  1.0000
  N   N9        1.0  0.20335232766755237  0.895864494519202  0.2826878802385835  1.0000
  N   N10       1.0  0.8958657007304608  0.20335819777416472  0.7826993839465929  1.0000
  N   N11       1.0  0.7966505244235123  0.10413550201476338  0.7173298382154983  1.0000
  N   N12       1.0  0.10412543711250069  0.7966579480588721  0.21731265474100067  1.0000
  N   N13       1.0  0.14602844486091024  0.04665013201176288  0.2626085093698478  1.0000
  N   N14       1.0  0.0466532031066365  0.14602069388983804  0.762625893665998  1.0000
  N   N15       1.0  0.8539821966784872  0.9533490672773796  0.7373937754434792  1.0000
  N   N16       1.0  0.9533436058928756  0.8539889670538584  0.23736693560870484  1.0000
  N   N17       1.0  0.1272921528410862  0.41306191054746216  0.4929249353455916  1.0000
  N   N18       1.0  0.4130491045040756  0.1272878143060439  0.9929260193910707  1.0000
  N   N19       1.0  0.8727116806290667  0.5869578675192882  0.5070752075351237  1.0000
  N   N20       1.0  0.5869462125280548  0.8727105245589328  0.007066931793552618  1.0000
  N   N21       1.0  0.23100109726851062  0.2847695622539703  0.47177344130304266  1.0000
  N   N22       1.0  0.2847608190577517  0.23099566693667126  0.9717866287367302  1.0000
  N   N23       1.0  0.769017479286731  0.7152459184116822  0.5282126019939639  1.0000
  N   N24       1.0  0.7152443427269971  0.7690108859561133  0.028207879719055074  1.0000
  N   N25       1.0  0.5202368740559322  0.008812312195850262  0.873928502292074  1.0000
  N   N26       1.0  0.0088256826278723  0.5202471590651571  0.37395456209587513  1.0000
  N   N27       1.0  0.47973540655075203  0.9911731718891448  0.1260438343865218  1.0000
  N   N28       1.0  0.9911966914159152  0.4797548742090925  0.6260735253590397  1.0000
  N   N29       1.0  0.5243919541538347  0.9730925745232426  0.7461616607147121  1.0000
  N   N30       1.0  0.9731232535321511  0.5244018076736835  0.2461753639698756  1.0000
  N   N31       1.0  0.47559109038054  0.026851591207268675  0.25382291337827917  1.0000
  N   N32       1.0  0.026913827364119  0.475593860001382  0.7538414461957786  1.0000
  O   O1        1.0  0.055345709158231705  0.6375095158821082  0.5023351416724395  1.0000
  O   O2        1.0  0.637456116215816  0.05535212750499595  0.0023418214799519714  1.0000
  O   O3        1.0  0.9446747041404536  0.3625093389271467  0.497693129258856  1.0000
  O   O4        1.0  0.3624615500102095  0.9446694933902222  0.9976857835451157  1.0000
  O   O5        1.0  0.10020447631375622  0.7834160975899704  0.5112450806236809  1.0000
  O   O6        1.0  0.783396038711267  0.10014156968679797  0.011223635970282024  1.0000
  O   O7        1.0  0.8998332933042408  0.2165990589759018  0.4887966594177868  1.0000
  O   O8        1.0  0.21658676092653203  0.8997623891349559  0.9887485178723665  1.0000
  O   O9        1.0  0.1753477960901009  0.6932714262038784  0.3941999288306733  1.0000
  O   O10       1.0  0.693250940691243  0.17532752642033242  0.8941833873862635  1.0000
  O   O11       1.0  0.8246414799327653  0.3067745092106975  0.6058133795658378  1.0000
  O   O12       1.0  0.3067398613626438  0.8246137781708426  0.10578795028030193  1.0000
  O   O13       1.0  0.20886543130686877  0.6334168253999906  0.5403067481208836  1.0000
  O   O14       1.0  0.6334394202461554  0.20886120817477397  0.0402933444506672  1.0000
  O   O15       1.0  0.7911711797705436  0.3665880198188844  0.45968750041560474  1.0000
  O   O16       1.0  0.366616410346623  0.791157727990743  0.959667654514476  1.0000
