data_image0
_chemical_formula_structural       Zn6H22C40Br4N6O36
_chemical_formula_sum              "Zn6 H22 C40 Br4 N6 O36"
_cell_length_a       18.760908977461632
_cell_length_b       18.79939641035871
_cell_length_c       18.81648086133361
_cell_angle_alpha    109.60944352277927
_cell_angle_beta     109.15039105254485
_cell_angle_gamma    108.68097396714464

_space_group_name_H-M_alt    "P 1"
_space_group_IT_number       1

loop_
  _space_group_symop_operation_xyz
  'x, y, z'

loop_
  _atom_site_type_symbol
  _atom_site_label
  _atom_site_symmetry_multiplicity
  _atom_site_fract_x
  _atom_site_fract_y
  _atom_site_fract_z
  _atom_site_occupancy
  Zn  Zn1       1.0  0.5798238957798034  0.07833932714822109  0.9988194983574916  1.0000
  Zn  Zn2       1.0  0.4547494597013681  0.9508989028862229  0.9970350455111472  1.0000
  Zn  Zn3       1.0  0.5557185342379256  0.4925610035572348  0.5628347896914719  1.0000
  Zn  Zn4       1.0  0.4318014535781742  0.47998214932317035  0.42526435893011444  1.0000
  Zn  Zn5       1.0  0.9899501818759902  0.059398756124345066  0.5651074155368789  1.0000
  Zn  Zn6       1.0  0.9854360086201412  0.93345651326603  0.43645325034321303  1.0000
  H   H1        1.0  0.4800769039885111  0.24962883309422065  0.12343819597546707  1.0000
  H   H2        1.0  0.5830154089598948  0.2696457369364254  0.19049731641564457  1.0000
  H   H3        1.0  0.5923681643049363  0.36829604747492084  0.3152431032522075  1.0000
  H   H4        1.0  0.5042600468726945  0.368250182897384  0.24218755165521338  1.0000
  H   H5        1.0  0.35274881603844926  0.13378994983818868  0.08785503496761041  1.0000
  H   H6        1.0  0.3566305949574229  0.2505708772292792  0.1833244297773291  1.0000
  H   H7        1.0  0.6007865005962428  0.22261765202545555  0.2919790879437515  1.0000
  H   H8        1.0  0.5672054267197595  0.28636713477582276  0.39918391466559916  1.0000
  H   H9        1.0  0.4646413436019543  0.19561732823252959  0.3468646849214921  1.0000
  H   H10       1.0  0.8865550387707228  0.16923284179341644  0.39634821912374474  1.0000
  H   H11       1.0  0.7537206322616682  0.9750913458436513  0.3013273219734528  1.0000
  H   H12       1.0  0.47744017793257865  0.624376349163825  0.7210961138085282  1.0000
  H   H13       1.0  0.43393206649629684  0.7081660881472658  0.8169478109172632  1.0000
  H   H14       1.0  0.5104015070740289  0.8409681744718113  0.7650597925826832  1.0000
  H   H15       1.0  0.19671837633465103  0.9386263749437089  0.6199206737218502  1.0000
  H   H16       1.0  0.20610506814519877  0.0786056019891106  0.7730173772971939  1.0000
  H   H17       1.0  0.7547143869700932  0.6931809731905857  0.360841911846947  1.0000
  H   H18       1.0  0.8091434518075076  0.8185925385953398  0.5477284935345355  1.0000
  H   H19       1.0  0.6241723357173825  0.6127364325707133  0.37284451786892  1.0000
  H   H20       1.0  0.7661162274603937  0.6810414012985644  0.5570810736632623  1.0000
  H   H21       1.0  0.15821381631474196  0.2466680830015235  0.540019104194272  1.0000
  H   H22       1.0  0.2040271044518676  0.12055747818648403  0.43440533171811785  1.0000
  C   C1        1.0  0.6570628800143581  0.042000254498631824  0.11514813457925754  1.0000
  C   C2        1.0  0.4871135093118538  0.10056198255551858  0.11321528453725452  1.0000
  C   C3        1.0  0.4332009489439983  0.052775037899031936  0.8897184567435874  1.0000
  C   C4        1.0  0.48845445238541146  0.8785806424367805  0.8747003213375777  1.0000
  C   C5        1.0  0.5195795929792126  0.2555147322584688  0.18521810687374807  1.0000
  C   C6        1.0  0.5256984123656564  0.32663971495900057  0.2617087433419272  1.0000
  C   C7        1.0  0.3835979124496162  0.14323666165310564  0.15315998197818467  1.0000
  C   C8        1.0  0.5330298394425554  0.18633566048936243  0.27469800165767566  1.0000
  C   C9        1.0  0.47930667475052496  0.16687106681465735  0.18088107763424696  1.0000
  C   C10       1.0  0.46972707735259406  0.2844656423516553  0.2962405967711561  1.0000
  C   C11       1.0  0.3804319129146377  0.21907595969454255  0.21762190035457962  1.0000
  C   C12       1.0  0.5099418895232902  0.23857651067252314  0.33609204230187834  1.0000
  C   C13       1.0  0.8287449888633417  0.1083809264007769  0.3450945496247755  1.0000
  C   C14       1.0  0.8119783123006099  0.03608864721250169  0.3509779846653629  1.0000
  C   C15       1.0  0.7720827852954456  0.10992666513367773  0.27180621598016336  1.0000
  C   C16       1.0  0.7264713684728434  0.047279415099659175  0.18854122899094256  1.0000
  C   C17       1.0  0.45830713511189464  0.6698981540787871  0.7082057079815061  1.0000
  C   C18       1.0  0.44010441325197996  0.6600406136748163  0.6286495100595958  1.0000
  C   C19       1.0  0.4546982335436167  0.7306157069861212  0.7769669320446441  1.0000
  C   C20       1.0  0.48323858579242074  0.814517468585656  0.799190108541872  1.0000
  C   C21       1.0  0.22365691540284166  0.9856956514729162  0.6875490262337821  1.0000
  C   C22       1.0  0.1849546423105153  0.03281713137327097  0.7069554391160225  1.0000
  C   C23       1.0  0.2957207736238558  0.988391722843211  0.7508033784544353  1.0000
  C   C24       1.0  0.36619767415491816  0.05728709801643809  0.8239271164109426  1.0000
  C   C25       1.0  0.6315900825293141  0.5899772118071027  0.5070456152128672  1.0000
  C   C26       1.0  0.46776346132607927  0.35707798549017156  0.36190373891626854  1.0000
  C   C27       1.0  0.4102833002794668  0.3768801631384946  0.5313132234800194  1.0000
  C   C28       1.0  0.4529856519135222  0.5956170069885403  0.5692798352668049  1.0000
  C   C29       1.0  0.8766387529180547  0.8593743959421117  0.4827722804495451  1.0000
  C   C30       1.0  0.8752847370078597  0.03023099782131313  0.4178084558929173  1.0000
  C   C31       1.0  0.1017489326554255  0.08058603193640582  0.46916257163553615  1.0000
  C   C32       1.0  0.11092578695983958  0.025014654618225197  0.6385261636581989  1.0000
  C   C33       1.0  0.7549034913420484  0.7132626611462525  0.4226413853687064  1.0000
  C   C34       1.0  0.8123143685576152  0.794299936510505  0.48806911957850474  1.0000
  C   C35       1.0  0.688687575670876  0.6540032510526643  0.42940778361536763  1.0000
  C   C36       1.0  0.7019500191617779  0.6468653174032112  0.5010984723891668  1.0000
  C   C37       1.0  0.196136560965904  0.22869036226245498  0.5113057258831262  1.0000
  C   C38       1.0  0.1735556775731766  0.14464457064418923  0.4698202283650447  1.0000
  C   C39       1.0  0.2653262676320337  0.2973688457587895  0.517436121963101  1.0000
  C   C40       1.0  0.3454326881357802  0.31009085529078834  0.5359019131882193  1.0000
  Br  Br1       1.0  0.7626511376167572  0.21304800685307868  0.3030273192241282  1.0000
  Br  Br2       1.0  0.3939484863822429  0.7206392776705854  0.5830576171257819  1.0000
  Br  Br3       1.0  0.2847755032100422  0.875587766774153  0.7176743708748675  1.0000
  Br  Br4       1.0  0.3894581838854306  0.17251408955085157  0.8532332612512405  1.0000
  N   N1        1.0  0.3294925143759714  0.05658083987447072  0.1431639719189378  1.0000
  N   N2        1.0  0.3107661590952091  0.18653340042394717  0.24182422335660195  1.0000
  N   N3        1.0  0.7399525551500759  0.9705661941725124  0.16169857058691414  1.0000
  N   N4        1.0  0.24215972330154048  0.36291524772393297  0.5040683342958375  1.0000
  N   N5        1.0  0.3748613353144846  0.25471566723908967  0.5632249571423175  1.0000
  N   N6        1.0  0.53459174104308  0.10978170317586926  0.2867740821175175  1.0000
  O   O1        1.0  0.6822110558267696  0.09509398674122585  0.08879715933572643  1.0000
  O   O2        1.0  0.5810682807512036  0.9853837690158327  0.08530037264560505  1.0000
  O   O3        1.0  0.5448923606686334  0.12913219762753414  0.09455459599441703  1.0000
  O   O4        1.0  0.4321254504550183  0.020908766839895076  0.07887400514524501  1.0000
  O   O5        1.0  0.512832497257385  0.1043878496663595  0.9182226312382015  1.0000
  O   O6        1.0  0.40642095159658703  1.193499774370933e-05  0.9143768882336262  1.0000
  O   O7        1.0  0.5421238653177908  0.9570838368814946  0.9048580169532272  1.0000
  O   O8        1.0  0.4392949805639363  0.8524447920744153  0.9053822469353465  1.0000
  O   O9        1.0  0.6550861087816173  0.5731412027956536  0.5695974613088097  1.0000
  O   O10       1.0  0.5537760988337297  0.5614385475989038  0.45237028813431124  1.0000
  O   O11       1.0  0.5213697188363184  0.3918181978330678  0.4406790328321081  1.0000
  O   O12       1.0  0.414662969311884  0.3822066746054062  0.33025135506263587  1.0000
  O   O13       1.0  0.4898583097944069  0.4073976537449581  0.5851379726697274  1.0000
  O   O14       1.0  0.38134116604060597  0.3969495395092153  0.4749847643548081  1.0000
  O   O15       1.0  0.5087765939959041  0.5762606962850896  0.6043132435182416  1.0000
  O   O16       1.0  0.40759477314436043  0.5647855706063679  0.4874626989356586  1.0000
  O   O17       1.0  0.9047698975691958  0.9377503857423048  0.536347744689401  1.0000
  O   O18       1.0  0.8996472613216324  0.8336400960463023  0.4255916239290727  1.0000
  O   O19       1.0  0.9079845659034547  0.08448461618374373  0.49814661607361194  1.0000
  O   O20       1.0  0.8924695795876827  0.9702924051484557  0.38864309567121336  1.0000
  O   O21       1.0  0.07445698652281856  0.10846853672505569  0.5199430008201561  1.0000
  O   O22       1.0  0.07222444512504476  0.00029506390637836443  0.41659754121831594  1.0000
  O   O23       1.0  0.08281447933027405  0.07760524384140409  0.6649438777135616  1.0000
  O   O24       1.0  0.08016886418889871  0.9698170475617115  0.5602264765200147  1.0000
  O   O25       1.0  0.26765212305051717  0.0014136623953930978  0.07133529680938011  1.0000
  O   O26       1.0  0.3520013396829995  0.049280300992869244  0.2087930221573018  1.0000
  O   O27       1.0  0.23657902032181252  0.13969700179035982  0.18060579197915425  1.0000
  O   O28       1.0  0.3323653852582567  0.21063688323259555  0.3186796804406669  1.0000
  O   O29       1.0  0.6798766433037784  0.9005381401425225  0.1379827617400339  1.0000
  O   O30       1.0  0.8088794580070482  0.9829474877177374  0.16229519982336868  1.0000
  O   O31       1.0  0.1781716102462951  0.3347828327186733  0.434956973539201  1.0000
  O   O32       1.0  0.2855552767478925  0.4378976125107667  0.5644978467732642  1.0000
  O   O33       1.0  0.38205598044910255  0.20128924108711735  0.5102505496793341  1.0000
  O   O34       1.0  0.3916025580004713  0.2682429469324674  0.6371014842139076  1.0000
  O   O35       1.0  0.5234072799452958  0.10219771645446936  0.3452255686842279  1.0000
  O   O36       1.0  0.5546646544253591  0.06533183543730557  0.24035888761216034  1.0000
