data_image0
_chemical_formula_structural       Li4B4H16C16N8F16
_chemical_formula_sum              "Li4 B4 H16 C16 N8 F16"
_cell_length_a       4.9583164760019525
_cell_length_b       9.088081232000253
_cell_length_c       15.651348958006265
_cell_angle_alpha    90.00002049452634
_cell_angle_beta     90.00010031440041
_cell_angle_gamma    89.999982494485

_space_group_name_H-M_alt    "P 1"
_space_group_IT_number       1

loop_
  _space_group_symop_operation_xyz
  'x, y, z'

loop_
  _atom_site_type_symbol
  _atom_site_label
  _atom_site_symmetry_multiplicity
  _atom_site_fract_x
  _atom_site_fract_y
  _atom_site_fract_z
  _atom_site_occupancy
  Li  Li1       1.0  0.47195390920779795  0.5855241679916573  0.5581111904608207  1.0000
  Li  Li2       1.0  0.971953850644475  0.9144758158779492  0.4418887931441802  1.0000
  Li  Li3       1.0  0.5280467308427673  0.08552434905134017  0.9418889366937647  1.0000
  Li  Li4       1.0  0.028045854180739096  0.4144758442342109  0.058111335909295285  1.0000
  B   B1        1.0  0.029375923347998895  0.5659512772635225  0.430838969046384  1.0000
  B   B2        1.0  0.5293765582465894  0.9340487802384272  0.5691607694511304  1.0000
  B   B3        1.0  0.9706259938402366  0.0659500552507453  0.0691610874583688  1.0000
  B   B4        1.0  0.47062186944096135  0.43405006440246297  0.9308394302521774  1.0000
  H   H1        1.0  0.6611839988523515  0.654785258885539  0.7598005746423695  1.0000
  H   H2        1.0  0.16118416889711537  0.8452136763448619  0.24019859793003204  1.0000
  H   H3        1.0  0.3388166023353563  0.1547864478012215  0.740198928007203  1.0000
  H   H4        1.0  0.8388155747874182  0.34521479412314443  0.2598008777833271  1.0000
  H   H5        1.0  0.766937541618539  0.8389803419304511  0.7444754264871493  1.0000
  H   H6        1.0  0.26693991665005967  0.6610196760478498  0.2555244435767605  1.0000
  H   H7        1.0  0.23306093941004494  0.33898045751826783  0.7555247534265133  1.0000
  H   H8        1.0  0.7330619471953739  0.1610197016583896  0.2444749937950732  1.0000
  H   H9        1.0  0.7677346301348321  0.7655666528272389  0.8986078204640079  1.0000
  H   H10       1.0  0.2677340940479525  0.7344333650186952  0.1013920500405447  1.0000
  H   H11       1.0  0.23226389208451073  0.2655666738099994  0.6013923441677989  1.0000
  H   H12       1.0  0.7322636949813274  0.23443348549955792  0.3986080415346009  1.0000
  H   H13       1.0  0.9927565565084604  0.6181086588985634  0.878194291520181  1.0000
  H   H14       1.0  0.4927540338586382  0.8818924218523633  0.1218050646825759  1.0000
  H   H15       1.0  0.007242048444688001  0.11810762952332247  0.6218052034939703  1.0000
  H   H16       1.0  0.5072436724329918  0.38189256722312587  0.3781944186652026  1.0000
  C   C1        1.0  0.039710802474367285  0.6785944998526785  0.7047156962083676  1.0000
  C   C2        1.0  0.5397099846824246  0.8214055559299566  0.29528404801239105  1.0000
  C   C3        1.0  0.9602938189858606  0.17859341854627786  0.7952850892433644  1.0000
  C   C4        1.0  0.46028977236059626  0.32140560248362954  0.20471542274494675  1.0000
  C   C5        1.0  0.8355839108046439  0.7290913597190424  0.7641881119133203  1.0000
  C   C6        1.0  0.3355840982578541  0.7709086468386415  0.23581179616758866  1.0000
  C   C7        1.0  0.1644186655072701  0.22909147461090376  0.7358120451268846  1.0000
  C   C8        1.0  0.6644156871195861  0.2709086959864066  0.2641883030008287  1.0000
  C   C9        1.0  0.934545177939235  0.7290121555375605  0.8575570881396217  1.0000
  C   C10       1.0  0.43454484855587344  0.7709889348980923  0.14244287474779327  1.0000
  C   C11       1.0  0.0654533647902866  0.2290111291624867  0.6424430688828551  1.0000
  C   C12       1.0  0.5654549367764972  0.27098905789945593  0.3575572244373503  1.0000
  C   C13       1.0  0.15971969877731598  0.8271748593174875  0.8719275301006917  1.0000
  C   C14       1.0  0.6597200556580133  0.6728251764991808  0.1280729195060459  1.0000
  C   C15       1.0  0.8402808056886784  0.32717479554265333  0.6280726473560704  1.0000
  C   C16       1.0  0.3402797847517646  0.17282534579583597  0.3719271592452529  1.0000
  N   N1        1.0  0.20464166549242438  0.6368562884754777  0.6578891028490403  1.0000
  N   N2        1.0  0.7046451170938327  0.8631437398671976  0.34211137163715216  1.0000
  N   N3        1.0  0.7953589457586644  0.13685636373353557  0.8421116739134362  1.0000
  N   N4        1.0  0.29535663334589657  0.36314488542124923  0.1578887467316719  1.0000
  N   N5        1.0  0.33813107168758444  0.9076065675484059  0.8837105977936444  1.0000
  N   N6        1.0  0.838133425290188  0.5923934385853185  0.11628931169852308  1.0000
  N   N7        1.0  0.6618673708364469  0.4076065262138825  0.616289596405295  1.0000
  N   N8        1.0  0.16186847705979093  0.09239364480735188  0.38371011138804073  1.0000
  F   F1        1.0  0.19157632322506396  0.4829282561656499  0.4891132155780724  1.0000
  F   F2        1.0  0.6915788863530851  0.017069709228579193  0.5108877865139121  1.0000
  F   F3        1.0  0.8084253600067299  0.9829279901002576  0.0108869277250463  1.0000
  F   F4        1.0  0.3084197752918314  0.5170709206338414  0.9891123263906891  1.0000
  F   F5        1.0  0.7559613209641114  0.5595736405823427  0.45556930632725556  1.0000
  F   F6        1.0  0.25596312149155415  0.9404285799066936  0.5444305576578968  1.0000
  F   F7        1.0  0.24403656617528208  0.059572524252658396  0.0444307488488178  1.0000
  F   F8        1.0  0.7440353026185207  0.44042873344082517  0.9555702822958806  1.0000
  F   F9        1.0  0.12376074776011592  0.7138801856435604  0.433443258948131  1.0000
  F   F10       1.0  0.623759434430262  0.7861198561556008  0.566556531820865  1.0000
  F   F11       1.0  0.8762410864286138  0.21387897773303874  0.0665568283496256  1.0000
  F   F12       1.0  0.3762410930724442  0.28612005728071194  0.9334442760124445  1.0000
  F   F13       1.0  0.06080573324765479  0.5080193286365926  0.34802885717472515  1.0000
  F   F14       1.0  0.5608088108068897  0.9919796232940428  0.6519715376523152  1.0000
  F   F15       1.0  0.9391921828191485  0.008019263094986698  0.15197182619243674  1.0000
  F   F16       1.0  0.43919361800477924  0.49197866110289806  0.8480286741108143  1.0000
