data_image0
_chemical_formula_structural       K4H20C56N16O4
_chemical_formula_sum              "K4 H20 C56 N16 O4"
_cell_length_a       7.025749269567312
_cell_length_b       11.411041386566515
_cell_length_c       16.241562269413752
_cell_angle_alpha    90.00049385613706
_cell_angle_beta     90.00058332111068
_cell_angle_gamma    98.75488222492541

_space_group_name_H-M_alt    "P 1"
_space_group_IT_number       1

loop_
  _space_group_symop_operation_xyz
  'x, y, z'

loop_
  _atom_site_type_symbol
  _atom_site_label
  _atom_site_symmetry_multiplicity
  _atom_site_fract_x
  _atom_site_fract_y
  _atom_site_fract_z
  _atom_site_occupancy
  K   K1        1.0  0.07640600226386601  0.49623529996057425  0.27019118485326726  1.0000
  K   K2        1.0  0.42364023460851286  0.5037513365798746  0.7701839229532865  1.0000
  K   K3        1.0  0.9236328993364253  0.5037515267265819  0.7298194849205684  1.0000
  K   K4        1.0  0.5764101052151175  0.496241739993387  0.22980950714440235  1.0000
  H   H1        1.0  0.8244272837438943  0.16750649339652315  0.2884296791563869  1.0000
  H   H2        1.0  0.6755640436274958  0.8325033572499336  0.7884281833437823  1.0000
  H   H3        1.0  0.1755650563775859  0.832488102093251  0.7115692921528094  1.0000
  H   H4        1.0  0.32443449391711715  0.1675054371537215  0.21157694506518954  1.0000
  H   H5        1.0  0.8616384237166271  0.9654729164729973  0.33462413792838663  1.0000
  H   H6        1.0  0.6383573536072333  0.034533207035522706  0.8346195415967229  1.0000
  H   H7        1.0  0.1383740733648366  0.0345226525723916  0.6653779119511469  1.0000
  H   H8        1.0  0.3616342291553991  0.9654702425875782  0.16538066114589606  1.0000
  H   H9        1.0  0.8934544611025217  0.808032740929207  0.23098654117395503  1.0000
  H   H10       1.0  0.6065720141556311  0.19198084315799951  0.7309833587265897  1.0000
  H   H11       1.0  0.10657353966498558  0.19196821007109577  0.7690124302353638  1.0000
  H   H12       1.0  0.3934407716899814  0.808028013274708  0.2690180754890718  1.0000
  H   H13       1.0  0.8907042455306637  0.8546770159194068  0.08104789654262128  1.0000
  H   H14       1.0  0.6093386306772147  0.145336196742619  0.5810450630275878  1.0000
  H   H15       1.0  0.109330251731464  0.1453213061531073  0.9189516905779128  1.0000
  H   H16       1.0  0.39069921428108506  0.8546763118003968  0.4189563712559873  1.0000
  H   H17       1.0  0.8588959055786276  0.056136246208296804  0.0346262534439461  1.0000
  H   H18       1.0  0.6411286449573621  0.943876201064086  0.5346228050446411  1.0000
  H   H19       1.0  0.14111680068347  0.9438602094631464  0.9653721022128179  1.0000
  H   H20       1.0  0.35889495165923085  0.05613624542696271  0.4653792449106645  1.0000
  C   C1        1.0  0.831603269597693  0.27639630616685923  0.041343569255104684  1.0000
  C   C2        1.0  0.6683831177481065  0.7236045594593462  0.5413420044167407  1.0000
  C   C3        1.0  0.16837339736336784  0.7235982210744607  0.9586572491311995  1.0000
  C   C4        1.0  0.33160481816546644  0.27640153148909974  0.4586557355082234  1.0000
  C   C5        1.0  0.8167305683549843  0.24449596991502193  0.1326616256625215  1.0000
  C   C6        1.0  0.6832594495277179  0.7555053743851161  0.6326584723875044  1.0000
  C   C7        1.0  0.18325322277286915  0.7554985883499938  0.8673385770357597  1.0000
  C   C8        1.0  0.31673431540431807  0.244489227296569  0.3673386518119982  1.0000
  C   C9        1.0  0.8406003405166587  0.1253473261717915  0.15874378946467255  1.0000
  C   C10       1.0  0.6594018055976888  0.8746606563506846  0.6587424725748788  1.0000
  C   C11       1.0  0.15939036553220384  0.8746463764542017  0.84125456613382  1.0000
  C   C12       1.0  0.34060850927366465  0.1253437606132124  0.3412595773261841  1.0000
  C   C13       1.0  0.8408489284480397  0.09868642131091582  0.24359392209743894  1.0000
  C   C14       1.0  0.6591566771624926  0.9013219436238844  0.743591532328743  1.0000
  C   C15       1.0  0.15915439188620442  0.9013064505124151  0.756404433527251  1.0000
  C   C16       1.0  0.3408485660410888  0.09868510846887095  0.2564092861600429  1.0000
  C   C17       1.0  0.8607934673741299  0.9851782889833773  0.26899565617890175  1.0000
  C   C18       1.0  0.639211803632179  0.014832221125587398  0.768994024246325  1.0000
  C   C19       1.0  0.1392161800129372  0.014817267636964004  0.731004546581161  1.0000
  C   C20       1.0  0.3607918055313561  0.9851739381217117  0.23100864134902102  1.0000
  C   C21       1.0  0.8789836609159564  0.8972470720031682  0.21055770615482314  1.0000
  C   C22       1.0  0.6210392151693469  0.1027653089536642  0.7105528238649014  1.0000
  C   C23       1.0  0.1210276205192997  0.10274937746720521  0.7894412652029954  1.0000
  C   C24       1.0  0.3789837537506457  0.8972444775721654  0.2894486103767022  1.0000
  C   C25       1.0  0.8785042102250317  0.9232010407624857  0.12651783776129827  1.0000
  C   C26       1.0  0.6215327442952157  0.07681281763033351  0.6265158807919204  1.0000
  C   C27       1.0  0.12152152878141462  0.07679635741339301  0.8734805179279233  1.0000
  C   C28       1.0  0.37849755804547397  0.9231978865864789  0.373486784877734  1.0000
  C   C29       1.0  0.8608072097389937  0.03696873519024991  0.10029845423519387  1.0000
  C   C30       1.0  0.6392078483194583  0.9630393261598159  0.6002957275921685  1.0000
  C   C31       1.0  0.13920101279680347  0.9630268152152655  0.8997005171129826  1.0000
  C   C32       1.0  0.36080900279348777  0.0369686622317218  0.3997050909258206  1.0000
  C   C33       1.0  0.665527373191736  0.2473194352993531  0.9933432720085659  1.0000
  C   C34       1.0  0.8344527835751022  0.7526774495651342  0.49334154486418674  1.0000
  C   C35       1.0  0.33443671932048596  0.7526821231504641  0.006662472004734398  1.0000
  C   C36       1.0  0.16553594946871902  0.2473259876191635  0.5066549636460138  1.0000
  C   C37       1.0  0.011785261754184302  0.33810030460107754  0.016287033991161996  1.0000
  C   C38       1.0  0.4881982233756261  0.661904452476307  0.5162834756593213  1.0000
  C   C39       1.0  0.988187509413912  0.6618897769749522  0.9837156314859212  1.0000
  C   C40       1.0  0.5117921437326629  0.33809987756719556  0.4837130328572669  1.0000
  C   C41       1.0  0.16074230300445447  0.36758660547145205  0.0744555106236717  1.0000
  C   C42       1.0  0.33924674593747284  0.6324119489589394  0.574452945377601  1.0000
  C   C43       1.0  0.8392394356406638  0.6324052866501759  0.9255477705835415  1.0000
  C   C44       1.0  0.6607492807312098  0.36758620553342064  0.4255429474290508  1.0000
  C   C45       1.0  0.05980183125198828  0.3718424449845941  0.9345258811683121  1.0000
  C   C46       1.0  0.4401787651752969  0.6281516470794486  0.4345195792512442  1.0000
  C   C47       1.0  0.9401793592230661  0.628159187900998  0.06547555295386329  1.0000
  C   C48       1.0  0.5598123194797183  0.3718376284386408  0.5654726192916825  1.0000
  C   C49       1.0  0.5000438272482414  0.17519717890729686  0.02545549380870679  1.0000
  C   C50       1.0  0.9999494733372672  0.8248043679323092  0.5254541957970743  1.0000
  C   C51       1.0  0.4999259646202034  0.8248044043742979  0.9745514816262568  1.0000
  C   C52       1.0  4.3574015478495174e-05  0.175205288256457  0.4745447755588258  1.0000
  C   C53       1.0  0.6452138141580833  0.2901888675017901  0.9126700803634546  1.0000
  C   C54       1.0  0.8547693603329023  0.7098165822474132  0.4126663418124536  1.0000
  C   C55       1.0  0.35474176910749117  0.7098188540786979  0.08733504794462728  1.0000
  C   C56       1.0  0.14522389623304122  0.2901939605857322  0.587331398137948  1.0000
  N   N1        1.0  0.10702606652269961  0.3986376081330009  0.8670676567254245  1.0000
  N   N2        1.0  0.3929720659664965  0.6013529068496197  0.3670634424255325  1.0000
  N   N3        1.0  0.8929671105981286  0.6013605340167844  0.13293747163945818  1.0000
  N   N4        1.0  0.6070326791864532  0.3986399711702049  0.6329336817937798  1.0000
  N   N5        1.0  0.28349247071868433  0.3935698443018298  0.12287485502207568  1.0000
  N   N6        1.0  0.21650925739228202  0.6064294804322544  0.6228734230637797  1.0000
  N   N7        1.0  0.7164958040866195  0.6064256192016161  0.8771210377588969  1.0000
  N   N8        1.0  0.7834933056075498  0.3935722455381522  0.3771280111072811  1.0000
  N   N9        1.0  0.3614369874871386  0.11550315496889142  0.050097333758849096  1.0000
  N   N10       1.0  0.1385556520237188  0.8844888551738636  0.5500947495757484  1.0000
  N   N11       1.0  0.6385377964167063  0.8844833923950973  0.9499041003035982  1.0000
  N   N12       1.0  0.8614385711061274  0.11551372016575807  0.4498999118314088  1.0000
  N   N13       1.0  0.6213343225664117  0.3277479121318764  0.8469824920752983  1.0000
  N   N14       1.0  0.8786434282097632  0.6722530009379426  0.3469798685983108  1.0000
  N   N15       1.0  0.3786376912591293  0.6722510235866395  0.15302263624383977  1.0000
  N   N16       1.0  0.1213497885522088  0.32775134150770674  0.653015408516161  1.0000
  O   O1        1.0  0.7890165812309603  0.3248878215158443  0.18059931003791965  1.0000
  O   O2        1.0  0.71097839093067  0.6751177952654717  0.6805927229036683  1.0000
  O   O3        1.0  0.21097043831141343  0.6751023221304706  0.8194052025847041  1.0000
  O   O4        1.0  0.28901826339389197  0.32488301916920653  0.319400707095113  1.0000
