data_image0
_chemical_formula_structural       Zr6H46C88N4O32F10
_chemical_formula_sum              "Zr6 H46 C88 N4 O32 F10"
_cell_length_a       19.22042507348071
_cell_length_b       19.194865007074423
_cell_length_c       19.192214387125865
_cell_angle_alpha    59.337400907759694
_cell_angle_beta     59.961440821668724
_cell_angle_gamma    59.94911980288256

_space_group_name_H-M_alt    "P 1"
_space_group_IT_number       1

loop_
  _space_group_symop_operation_xyz
  'x, y, z'

loop_
  _atom_site_type_symbol
  _atom_site_label
  _atom_site_symmetry_multiplicity
  _atom_site_fract_x
  _atom_site_fract_y
  _atom_site_fract_z
  _atom_site_occupancy
  Zr  Zr1       1.0  0.9080758897557782  0.40665202650944837  0.5933288921175051  1.0000
  Zr  Zr2       1.0  0.09190024911485041  0.5928149130179321  0.4071993033428854  1.0000
  Zr  Zr3       1.0  0.091900017841489  0.4066417198050373  0.593423602494589  1.0000
  Zr  Zr4       1.0  0.9080158893555891  0.5928956129722562  0.4071834269556263  1.0000
  Zr  Zr5       1.0  0.9083314346099346  0.5913751139155248  0.5919461387232802  1.0000
  Zr  Zr6       1.0  0.09166349420897296  0.40809386299671485  0.40859434473092904  1.0000
  H   H1        1.0  0.9279089780922261  0.42523114106917576  0.7189852113752836  1.0000
  H   H2        1.0  0.9278721298557856  0.7184262912471906  0.42577955363091774  1.0000
  H   H3        1.0  0.21715414947391332  0.42760158860985326  0.42810242026567386  1.0000
  H   H4        1.0  0.9271218734037492  0.42765888073135  0.4280388407436463  1.0000
  H   H5        1.0  0.3204231130206664  0.6139401745770738  0.1765724267384741  1.0000
  H   H6        1.0  0.6773905542426208  0.3880098411977355  0.8211475821581047  1.0000
  H   H7        1.0  0.6771550004775619  0.6139918910553562  0.8172972741993123  1.0000
  H   H8        1.0  0.5504614017833164  0.6131509967817123  0.9451164035562343  1.0000
  H   H9        1.0  0.31702365905560004  0.3911513170915626  0.1775526949524747  1.0000
  H   H10       1.0  0.4452094374699271  0.3902853776303843  0.05123209096891669  1.0000
  H   H11       1.0  0.11317839184868451  0.8207101493389074  0.38852233347990517  1.0000
  H   H12       1.0  0.8888948094603182  0.17631750592375522  0.6142399544059673  1.0000
  H   H13       1.0  0.114127845900974  0.17708142864726983  0.39147343783355376  1.0000
  H   H14       1.0  0.11289291467894462  0.050915224627530606  0.3905828883016369  1.0000
  H   H15       1.0  0.8911880963471291  0.8169554948115945  0.6144015821453765  1.0000
  H   H16       1.0  0.8907633866792396  0.9449415284581089  0.6134119323460469  1.0000
  H   H17       1.0  0.3179055502807131  0.17869568845339498  0.39045088409422857  1.0000
  H   H18       1.0  0.6794562658922063  0.8180220541608989  0.612874417730211  1.0000
  H   H19       1.0  0.6759422047751185  0.8204877852980699  0.3893609898527687  1.0000
  H   H20       1.0  0.5495334983303196  0.9484357142915696  0.38941514916886905  1.0000
  H   H21       1.0  0.3197859369673566  0.174860191031925  0.6154957392291609  1.0000
  H   H22       1.0  0.44835883247978353  0.04886762451377539  0.6133845820816434  1.0000
  H   H23       1.0  0.8900163999223737  0.612577750311928  0.8182915879002196  1.0000
  H   H24       1.0  0.1131709781852733  0.3901358209788625  0.17906815214316651  1.0000
  H   H25       1.0  0.8901854677660811  0.6152118919147112  0.1751748512832379  1.0000
  H   H26       1.0  0.8897757171998322  0.6132116272112852  0.04907224857822008  1.0000
  H   H27       1.0  0.11439194422104751  0.38890955540505695  0.8209343767099783  1.0000
  H   H28       1.0  0.11296858162369006  0.38916252775783977  0.9487054355027453  1.0000
  H   H29       1.0  0.11344746719525017  0.8163666490498968  0.17784840422735476  1.0000
  H   H30       1.0  0.8906203313332882  0.8181660660609537  0.17985001926274463  1.0000
  H   H31       1.0  0.8925045839848947  0.17716486000294646  0.8166654384176372  1.0000
  H   H32       1.0  0.11121950864357896  0.1795124685991994  0.8187437468862838  1.0000
  H   H33       1.0  0.31969130546655583  0.38769940943974035  0.6149348966966884  1.0000
  H   H34       1.0  0.6776322254277362  0.6141498762003009  0.3884482312617266  1.0000
  H   H35       1.0  0.6764343028710229  0.38865595343891346  0.6158149712684492  1.0000
  H   H36       1.0  0.5500892195903476  0.38856495390508866  0.6146810900620993  1.0000
  H   H37       1.0  0.3189379373538587  0.6151574185397165  0.38955879970824014  1.0000
  H   H38       1.0  0.4465066166170216  0.6140152447745917  0.38945051306925643  1.0000
  H   H39       1.0  0.19830063836943168  0.11579349607750793  0.869016832831754  1.0000
  H   H40       1.0  0.2514278885353462  0.026048676949862543  0.9314855286553011  1.0000
  H   H41       1.0  0.18297393523719307  0.8838367044050771  0.13124937750788498  1.0000
  H   H42       1.0  0.20772299301320638  0.9741577989565396  0.06922948033497532  1.0000
  H   H43       1.0  0.8016515447153766  0.1310145125825314  0.884638041140576  1.0000
  H   H44       1.0  0.7490211982912173  0.0683741480312961  0.9746360306589779  1.0000
  H   H45       1.0  0.8166836195046656  0.868773763372587  0.11656189057190892  1.0000
  H   H46       1.0  0.7912947139418025  0.9306072090974948  0.026552794402178594  1.0000
  C   C1        1.0  0.7640171637062565  0.5011781502815535  0.7322412463391503  1.0000
  C   C2        1.0  0.0023990693751871645  0.731721307898347  0.5017437093415823  1.0000
  C   C3        1.0  0.2311371876692547  0.5032801057372254  0.263320381400348  1.0000
  C   C4        1.0  0.002251238175645612  0.26285804961400316  0.5036400008209014  1.0000
  C   C5        1.0  0.0022318452934441606  0.2610442270588962  0.7342852414812882  1.0000
  C   C6        1.0  0.7636834051810412  0.5018014952220753  0.5027301398995477  1.0000
  C   C7        1.0  0.00235377222208653  0.7338466399282308  0.26160738775680414  1.0000
  C   C8        1.0  0.23175593433568753  0.5020544430048588  0.5024869629098065  1.0000
  C   C9        1.0  0.0028125318355592096  0.5007260429385593  0.7323892860928751  1.0000
  C   C10       1.0  0.23114001204397278  0.26284654874062596  0.5041407503522636  1.0000
  C   C11       1.0  0.001997614772093924  0.5037163524958856  0.2632905336169459  1.0000
  C   C12       1.0  0.7641880236463056  0.7319078885852406  0.5012325327402609  1.0000
  C   C13       1.0  0.3091027980349779  0.502597360480074  0.18604304080978565  1.0000
  C   C14       1.0  0.6863749279952458  0.5014417802065053  0.8098031852768699  1.0000
  C   C15       1.0  0.347411333676462  0.5643573890285366  0.14946218541258838  1.0000
  C   C16       1.0  0.42037318135839297  0.5626399960730948  0.07829605252041466  1.0000
  C   C17       1.0  0.6498975348116998  0.4378550394669602  0.8480731314952836  1.0000
  C   C18       1.0  0.5784644300792436  0.4378743504435503  0.9208267919343954  1.0000
  C   C19       1.0  0.6490833140795756  0.5642112826989488  0.8464393757235913  1.0000
  C   C20       1.0  0.5772544343262211  0.5631234570575145  0.9191568773478735  1.0000
  C   C21       1.0  0.34611948665357783  0.43992344899984903  0.14931280329305718  1.0000
  C   C22       1.0  0.419010416406124  0.43979280015280137  0.07769704355703075  1.0000
  C   C23       1.0  0.4603273940333282  0.5012057876427461  0.0378359936007585  1.0000
  C   C24       1.0  0.537649631379921  0.4999790114694773  0.9606351042732653  1.0000
  C   C25       1.0  0.002068347564282576  0.8094186662014164  0.5018968335497932  1.0000
  C   C26       1.0  0.0021106028782042307  0.1856687976731521  0.5029066121385951  1.0000
  C   C27       1.0  0.0638127838198982  0.8477422879002888  0.43827360833661544  1.0000
  C   C28       1.0  0.062385772260697366  0.9205827527931374  0.4381969978833383  1.0000
  C   C29       1.0  0.9385116192569993  0.1492125301002217  0.5646301136552269  1.0000
  C   C30       1.0  0.9382892068211818  0.07811169195384349  0.5629073532973906  1.0000
  C   C31       1.0  0.06445202777244674  0.14890108760820198  0.4402523034417456  1.0000
  C   C32       1.0  0.06316057144268686  0.0773634836136239  0.4401134830832376  1.0000
  C   C33       1.0  0.9398814255390063  0.8461170365191604  0.5646209213728995  1.0000
  C   C34       1.0  0.9399915069271504  0.9189276345155045  0.5634305531855833  1.0000
  C   C35       1.0  0.0012712821782371435  0.9604107317155978  0.5002835258562612  1.0000
  C   C36       1.0  0.0001969838742538062  0.0376010845984566  0.5015117768025377  1.0000
  C   C37       1.0  0.3092145268255067  0.18568736662762564  0.5037427102109931  1.0000
  C   C38       1.0  0.6867404231091642  0.8097024673468808  0.5009748367528462  1.0000
  C   C39       1.0  0.34601289478259645  0.15055087117207214  0.4400018546042688  1.0000
  C   C40       1.0  0.41898943405304573  0.07939765120764267  0.4394293532581274  1.0000
  C   C41       1.0  0.6513045708707708  0.8462066998786922  0.5633489022581772  1.0000
  C   C42       1.0  0.5798083871367015  0.9188878584207315  0.5624007995214415  1.0000
  C   C43       1.0  0.6485463129583879  0.8482146616793284  0.43856280283448973  1.0000
  C   C44       1.0  0.5768142612966046  0.9210174059909163  0.4390235962935592  1.0000
  C   C45       1.0  0.34780316851433224  0.14762536080212393  0.5657597638671847  1.0000
  C   C46       1.0  0.42083313225093383  0.07616481207789151  0.5639796051005348  1.0000
  C   C47       1.0  0.4606179065680108  0.03767196193530256  0.5008588804679235  1.0000
  C   C48       1.0  0.5380502525289258  0.9605461032145043  0.5010950302435903  1.0000
  C   C49       1.0  0.002848855657141851  0.5006110676189761  0.810051378578386  1.0000
  C   C50       1.0  0.0016280517916910495  0.5034417289482036  0.1860034302398789  1.0000
  C   C51       1.0  0.9395187998257769  0.5630765184180576  0.8464672120473015  1.0000
  C   C52       1.0  0.9393469440426827  0.5622525853370774  0.9190525505842333  1.0000
  C   C53       1.0  0.06370824548235282  0.43971148075520006  0.15086756536149443  1.0000
  C   C54       1.0  0.06252049410537096  0.43918834935407597  0.07964707262849659  1.0000
  C   C55       1.0  0.9391444676856296  0.565511878215517  0.14789090306494063  1.0000
  C   C56       1.0  0.9393939592617002  0.5637882429396084  0.07637981008328168  1.0000
  C   C57       1.0  0.06491149828864443  0.438168845238053  0.848610310664732  1.0000
  C   C58       1.0  0.06348380982204549  0.43875191905431177  0.9212983694009296  1.0000
  C   C59       1.0  0.0007269469621389907  0.5009302485136686  0.9607251166811822  1.0000
  C   C60       1.0  0.0012623004374460781  0.5006916399461828  0.03785124571207632  1.0000
  C   C61       1.0  0.06517285066105694  0.8489461000297849  0.147231172331864  1.0000
  C   C62       1.0  0.06587689148864208  0.9235270812640478  0.07412174978160387  1.0000
  C   C63       1.0  0.12912212952869603  0.9631625379211639  0.03657831203087632  1.0000
  C   C64       1.0  0.9384800353180579  0.8492267676667635  0.147567683605388  1.0000
  C   C65       1.0  0.9367702548751493  0.9232610425381365  0.07391439085984809  1.0000
  C   C66       1.0  0.8723547039024522  0.9619154419235656  0.03543730503887598  1.0000
  C   C67       1.0  0.9387365760549072  0.14665576150142093  0.8493206026559151  1.0000
  C   C68       1.0  0.9365332516304292  0.07360298173849604  0.9239521507688551  1.0000
  C   C69       1.0  0.8711838950783033  0.03609064565244301  0.9635739722706875  1.0000
  C   C70       1.0  0.06466497116675639  0.14714929812605243  0.8497590343462634  1.0000
  C   C71       1.0  0.06598842452937956  0.07349453529627668  0.9237780930531445  1.0000
  C   C72       1.0  0.1302312919788662  0.035043249111311014  0.9624236594636244  1.0000
  C   C73       1.0  0.002177467298764593  0.812317864870721  0.1834850447599408  1.0000
  C   C74       1.0  0.0012873334300279643  0.9612738852405726  0.03618907580793975  1.0000
  C   C75       1.0  0.0020464559918877637  0.18295540194880275  0.8127617718275602  1.0000
  C   C76       1.0  0.0012587718052472126  0.035700817548885745  0.9617497100643746  1.0000
  C   C77       1.0  0.3095113850239387  0.5020725348898195  0.5021963055085338  1.0000
  C   C78       1.0  0.6862452977900162  0.5013658758374007  0.5027912124514559  1.0000
  C   C79       1.0  0.34693594974924474  0.4380345491034418  0.5649331067414709  1.0000
  C   C80       1.0  0.41954834695651033  0.4380237861755915  0.5637588620872835  1.0000
  C   C81       1.0  0.6501009060170516  0.5641109943375824  0.4387613571477973  1.0000
  C   C82       1.0  0.5786314661701581  0.5629726627261387  0.43880504948792537  1.0000
  C   C83       1.0  0.648701417838879  0.4382771118349566  0.5657098380276366  1.0000
  C   C84       1.0  0.5769169671124461  0.43862949824883646  0.5645262841314748  1.0000
  C   C85       1.0  0.3471828778210409  0.5650314897863635  0.4391617095216631  1.0000
  C   C86       1.0  0.4198053497743005  0.5638311076982631  0.43950380609553  1.0000
  C   C87       1.0  0.46024431456502435  0.5003676137665279  0.5018890359694055  1.0000
  C   C88       1.0  0.5374482637485303  0.5011138460048911  0.5011517117485768  1.0000
  N   N1        1.0  0.1934127056098448  0.07086778974168342  0.9286669302451216  1.0000
  N   N2        1.0  0.1931939456754462  0.9285802646875182  0.07151180325214311  1.0000
  N   N3        1.0  0.8067352228657256  0.07109304622741752  0.9290274385507189  1.0000
  N   N4        1.0  0.807018138475023  0.9282427192001134  0.07132713334569735  1.0000
  O   O1        1.0  0.7945031545942027  0.44133206825690513  0.7029557494633141  1.0000
  O   O2        1.0  0.061165786731649546  0.7023242300821548  0.4420035241603771  1.0000
  O   O3        1.0  0.2014832286446123  0.5623089434016321  0.29340495202617234  1.0000
  O   O4        1.0  0.9427940522413395  0.2929187115928186  0.5626953285048729  1.0000
  O   O5        1.0  0.06098841756220003  0.2925614025869335  0.7033824109511214  1.0000
  O   O6        1.0  0.794193617311784  0.5614072372983258  0.4424423589278705  1.0000
  O   O7        1.0  0.9429949661615568  0.7029273261746097  0.29310811465794745  1.0000
  O   O8        1.0  0.20192097232990144  0.44174869824585267  0.5620241820261144  1.0000
  O   O9        1.0  0.943155284146016  0.559781619570522  0.7020003843954117  1.0000
  O   O10       1.0  0.20074746869953933  0.2938955068710172  0.4444629130821341  1.0000
  O   O11       1.0  0.06096121568408818  0.44399935536223717  0.2943929302556966  1.0000
  O   O12       1.0  0.7951149622058791  0.7015114910813479  0.5603317684044883  1.0000
  O   O13       1.0  0.20134519709264975  0.2929181591801608  0.5632023424995296  1.0000
  O   O14       1.0  0.9425596023269731  0.5626940007577801  0.29344469504713566  1.0000
  O   O15       1.0  0.7945302319013832  0.7022662054394503  0.4416932073764529  1.0000
  O   O16       1.0  0.06157846524151722  0.44112956243769463  0.7028189444406793  1.0000
  O   O17       1.0  0.9428496628181547  0.2925654933070375  0.7033419661088872  1.0000
  O   O18       1.0  0.20167344055739286  0.5616308323807571  0.4423522801501393  1.0000
  O   O19       1.0  0.06113166263913442  0.70292220479228  0.29314973671066014  1.0000
  O   O20       1.0  0.7943746378009706  0.44167093053819423  0.5622734618190893  1.0000
  O   O21       1.0  0.06122376354919375  0.2939934883972625  0.4440757652386154  1.0000
  O   O22       1.0  0.7949597866405824  0.5602592730143173  0.7017602986636434  1.0000
  O   O23       1.0  0.9428817721496542  0.7012152852541148  0.5608312070570635  1.0000
  O   O24       1.0  0.20069186547818424  0.4436293674787635  0.2944859278223505  1.0000
  O   O25       1.0  0.9479379895259827  0.4481014989867017  0.44850313268940317  1.0000
  O   O26       1.0  0.15543110345138436  0.4480306811010166  0.44860156446767263  1.0000
  O   O27       1.0  0.9481890082422101  0.6562185544425956  0.44741180606006753  1.0000
  O   O28       1.0  0.9481920704103076  0.4468497755384319  0.6567710375594091  1.0000
  O   O29       1.0  0.03843215128981122  0.5378608228104368  0.5384024578954439  1.0000
  O   O30       1.0  0.8852789023410066  0.537879112146342  0.5383866364643526  1.0000
  O   O31       1.0  0.038010059681397444  0.538925414965071  0.3850252166131654  1.0000
  O   O32       1.0  0.038000004128200315  0.38459314981559334  0.53937407002104  1.0000
  F   F1        1.0  0.45217499141074313  0.6261386807389683  0.04902008638895703  1.0000
  F   F2        1.0  0.5492762601073267  0.3716767394107591  0.9526005510094394  1.0000
  F   F3        1.0  0.12591185310436248  0.952430973376778  0.37190709977029013  1.0000
  F   F4        1.0  0.872178227803005  0.04893684749416847  0.6263545944285911  1.0000
  F   F5        1.0  0.44901772739624585  0.05139082661918339  0.37341279703665015  1.0000
  F   F6        1.0  0.5514261485747269  0.9486403791200997  0.6267228501348544  1.0000
  F   F7        1.0  0.8737521748177812  0.6267134701619098  0.9486593496248477  1.0000
  F   F8        1.0  0.12648645338160242  0.37315510406691726  0.051670194951093276  1.0000
  F   F9        1.0  0.45021455101827706  0.37155476229253265  0.6284593415940806  1.0000
  F   F10       1.0  0.5496856429038459  0.6277206934911206  0.37236992967427085  1.0000
