data_image0
_chemical_formula_structural       Ag4H28C32O12
_chemical_formula_sum              "Ag4 H28 C32 O12"
_cell_length_a       4.727069004168498
_cell_length_b       10.177203407752337
_cell_length_c       16.338428187396577
_cell_angle_alpha    96.56316817547963
_cell_angle_beta     89.99935667043772
_cell_angle_gamma    90.0007896112996

_space_group_name_H-M_alt    "P 1"
_space_group_IT_number       1

loop_
  _space_group_symop_operation_xyz
  'x, y, z'

loop_
  _atom_site_type_symbol
  _atom_site_label
  _atom_site_symmetry_multiplicity
  _atom_site_fract_x
  _atom_site_fract_y
  _atom_site_fract_z
  _atom_site_occupancy
  Ag  Ag1       1.0  0.012085300794204598  0.38237642864169885  0.5342862566874231  1.0000
  Ag  Ag2       1.0  0.5120838584036136  0.11762566279328009  0.46571210056017526  1.0000
  Ag  Ag3       1.0  0.9879104397463861  0.6176268687419154  0.4657136330864589  1.0000
  Ag  Ag4       1.0  0.4878991892635724  0.8823736482708354  0.5342856942787293  1.0000
  H   H1        1.0  0.07146748589960338  0.20695060382378463  0.35908301468777654  1.0000
  H   H2        1.0  0.5714581372548508  0.29304887948826763  0.640915593793338  1.0000
  H   H3        1.0  0.9285303701518259  0.7930526633593259  0.6409150368656924  1.0000
  H   H4        1.0  0.42853760328397766  0.7069534188075649  0.3590836190575075  1.0000
  H   H5        1.0  0.16953331232078028  0.5090803262286341  0.21966649488147993  1.0000
  H   H6        1.0  0.6694948359978099  0.9909272313824994  0.7803349288220716  1.0000
  H   H7        1.0  0.8305026222918241  0.4909279465741393  0.7803355539721651  1.0000
  H   H8        1.0  0.3304945581037444  0.009076076051371696  0.2196655736999702  1.0000
  H   H9        1.0  0.30007562578462904  0.49513278060122445  0.0717748772443372  1.0000
  H   H10       1.0  0.8000508543712639  0.004864119937621998  0.9282246622624442  1.0000
  H   H11       1.0  0.6999391539339825  0.5048646028628879  0.9282258528772829  1.0000
  H   H12       1.0  0.19994065520607046  0.9951391875024667  0.07177584025659198  1.0000
  H   H13       1.0  0.6496693007371448  0.3247353244228322  0.012833254920323597  1.0000
  H   H14       1.0  0.14967037071130557  0.17525571720890545  0.9871645533765658  1.0000
  H   H15       1.0  0.3503243241780538  0.6752560946591756  0.9871652519105397  1.0000
  H   H16       1.0  0.8503253697790287  0.8247456222747757  0.012836433507771989  1.0000
  H   H17       1.0  0.8506502279616865  0.16584845503064827  0.1019880959959494  1.0000
  H   H18       1.0  0.350648881482563  0.33414675461120413  0.8980105584663676  1.0000
  H   H19       1.0  0.14934339693831328  0.8341409759447129  0.898009669727955  1.0000
  H   H20       1.0  0.649348974470108  0.6658535958598151  0.1019903642310567  1.0000
  H   H21       1.0  0.7086970108288284  0.1758441012158869  0.248255867972027  1.0000
  H   H22       1.0  0.20868620940232313  0.3241581966006777  0.7517443166256186  1.0000
  H   H23       1.0  0.2913050760280668  0.8241492858598175  0.7517421544754797  1.0000
  H   H24       1.0  0.7913116465637909  0.6758431428892208  0.24825667025570652  1.0000
  H   H25       1.0  0.1612960470713958  0.41377336761501476  0.3449004997508355  1.0000
  H   H26       1.0  0.6612800104574531  0.08622567456586688  0.6550990144373614  1.0000
  H   H27       1.0  0.8387123863437438  0.5862279114925144  0.6550968106806323  1.0000
  H   H28       1.0  0.33871149908307535  0.9137766639931612  0.3449026493760385  1.0000
  C   C1        1.0  0.43095455269909166  0.3437121278982857  0.24326001427257182  1.0000
  C   C2        1.0  0.9309345544543673  0.1562934738960422  0.75674089177609  1.0000
  C   C3        1.0  0.5690623425373857  0.6562892217164416  0.7567415853208033  1.0000
  C   C4        1.0  0.0690633015620037  0.8437098234937893  0.2432589979947863  1.0000
  C   C5        1.0  0.3187075910928029  0.43396226145794964  0.1935954356799101  1.0000
  C   C6        1.0  0.8186787640392408  0.06603773573176137  0.8064054688475366  1.0000
  C   C7        1.0  0.6813135350952421  0.5660390881692122  0.8064061639074467  1.0000
  C   C8        1.0  0.18131697644757586  0.9339616055763568  0.19359416419071349  1.0000
  C   C9        1.0  0.3952596930524591  0.4267504477346122  0.1106328283549374  1.0000
  C   C10       1.0  0.8952469146759012  0.0732490203186629  0.889368406884735  1.0000
  C   C11       1.0  0.6047487402674463  0.5732499128363883  0.8893687070665665  1.0000
  C   C12       1.0  0.10475305679112519  0.9267532981274157  0.11063203143835659  1.0000
  C   C13       1.0  0.5875175806718145  0.33083422628503456  0.077427761280731  1.0000
  C   C14       1.0  0.0875082719525082  0.16916039616295106  0.9225698678729586  1.0000
  C   C15       1.0  0.412486621660861  0.6691591607968873  0.9225702611637632  1.0000
  C   C16       1.0  0.9124874685360708  0.8308399442329487  0.0774304420883354  1.0000
  C   C17       1.0  0.7009872930753146  0.24116445455481988  0.1272383405470308  1.0000
  C   C18       1.0  0.2009762240957116  0.2588318638508298  0.8727614808846627  1.0000
  C   C19       1.0  0.29901690922054763  0.7588279636460413  0.872760843191827  1.0000
  C   C20       1.0  0.7990216319072231  0.7411704445201294  0.12723834470230597  1.0000
  C   C21       1.0  0.6230135824135559  0.24726432622016142  0.2098111164900658  1.0000
  C   C22       1.0  0.12299494467614377  0.2527354599132678  0.7901873453358023  1.0000
  C   C23       1.0  0.3769969663599113  0.7527300498992772  0.7901869701293053  1.0000
  C   C24       1.0  0.8770007958007466  0.7472648905515413  0.2098135773646277  1.0000
  C   C25       1.0  0.34345891165000336  0.34702304578537013  0.33269263389550474  1.0000
  C   C26       1.0  0.8434465006131758  0.15297708680503763  0.667307587442423  1.0000
  C   C27       1.0  0.6565474062157363  0.6529762955538273  0.6673069991276961  1.0000
  C   C28       1.0  0.1565471244399461  0.8470262206412683  0.3326929150736078  1.0000
  C   C29       1.0  0.5850333362447202  0.40532959075842706  0.3887347902149685  1.0000
  C   C30       1.0  0.0850211484365602  0.09467489720525178  0.6112628751113932  1.0000
  C   C31       1.0  0.4149687506227124  0.5946697908439589  0.6112672937707941  1.0000
  C   C32       1.0  0.914968245700045  0.9053283800219062  0.3887357891932481  1.0000
  O   O1        1.0  0.726979826256617  0.3260097343369138  0.4279589050452444  1.0000
  O   O2        1.0  0.22696093108257281  0.17399457842826388  0.5720370667361436  1.0000
  O   O3        1.0  0.2730243761198921  0.6739886179771941  0.5720406637970541  1.0000
  O   O4        1.0  0.7730221166482989  0.8260076795546636  0.427959695176213  1.0000
  O   O5        1.0  0.6295976314829231  0.5280161333194753  0.3899392249904352  1.0000
  O   O6        1.0  0.12959034531873204  0.9719881924859307  0.6100602815319789  1.0000
  O   O7        1.0  0.37039599343463436  0.4719832885336784  0.6100653099639075  1.0000
  O   O8        1.0  0.8704032797460711  0.02801510489146609  0.3899396082449087  1.0000
  O   O9        1.0  0.2753742565491207  0.2166495000849835  0.35147404917074004  1.0000
  O   O10       1.0  0.7753622105638343  0.2833512114388411  0.6485258173384594  1.0000
  O   O11       1.0  0.7246257149360035  0.7833498009599394  0.6485231329049483  1.0000
  O   O12       1.0  0.22463352991832858  0.7166521362892978  0.351477136131102  1.0000
