data_image0
_chemical_formula_structural       Cu6H16C8N52
_chemical_formula_sum              "Cu6 H16 C8 N52"
_cell_length_a       8.376837856150976
_cell_length_b       10.041111439910036
_cell_length_c       11.100608744596233
_cell_angle_alpha    89.97963347276449
_cell_angle_beta     89.99966603790735
_cell_angle_gamma    99.4226547298788

_space_group_name_H-M_alt    "P 1"
_space_group_IT_number       1

loop_
  _space_group_symop_operation_xyz
  'x, y, z'

loop_
  _atom_site_type_symbol
  _atom_site_label
  _atom_site_symmetry_multiplicity
  _atom_site_fract_x
  _atom_site_fract_y
  _atom_site_fract_z
  _atom_site_occupancy
  Cu  Cu1       1.0  0.3894281292706338  0.05444296640502699  0.8810474700938897  1.0000
  Cu  Cu2       1.0  0.38969982788309926  0.5543938008345393  0.6190115176541795  1.0000
  Cu  Cu3       1.0  0.61050891406925  0.9455338893791635  0.1196063838577501  1.0000
  Cu  Cu4       1.0  0.6114439001918869  0.4454978573492738  0.3808586062891237  1.0000
  Cu  Cu5       1.0  0.9998820522863099  0.00015044687886959818  7.05967326908e-05  1.0000
  Cu  Cu6       1.0  0.9997074800963973  0.49912791995432554  0.4989669566385401  1.0000
  H   H1        1.0  0.1758902390569048  0.5459897410414384  0.10833775967533647  1.0000
  H   H2        1.0  0.17603743317143028  0.046000233227040596  0.3932364278296064  1.0000
  H   H3        1.0  0.8234015707923489  0.4530823292749985  0.8952755378647836  1.0000
  H   H4        1.0  0.8237951390445843  0.9532905227480055  0.6065698349414816  1.0000
  H   H5        1.0  0.3542521862238246  0.531199406234819  0.17102726289458298  1.0000
  H   H6        1.0  0.3534082478098383  0.0309275189512164  0.3291059045210645  1.0000
  H   H7        1.0  0.647600276107063  0.4688640506017235  0.8290671439052417  1.0000
  H   H8        1.0  0.6469217899723461  0.9689668141627478  0.6710606010521047  1.0000
  H   H9        1.0  0.008249671467680702  0.3111829356721145  0.1126764116353343  1.0000
  H   H10       1.0  0.008241452952262323  0.8098786143124388  0.38719142437359005  1.0000
  H   H11       1.0  0.9917389556843261  0.6889112174958428  0.888152188608771  1.0000
  H   H12       1.0  0.9921557096346663  0.18800743607907577  0.612030409337585  1.0000
  H   H13       1.0  0.4935725285796693  0.36118783635935603  0.9868968134680002  1.0000
  H   H14       1.0  0.49357677420005774  0.8609708009861944  0.5135499512180317  1.0000
  H   H15       1.0  0.5062134717777268  0.6391850273496187  0.013649776106653598  1.0000
  H   H16       1.0  0.5067198018424648  0.1391359176348175  0.4868507418232184  1.0000
  C   C1        1.0  0.1195148152372525  0.2896934698152548  0.0729520392032015  1.0000
  C   C2        1.0  0.1196474167879273  0.789016191726411  0.4271445648440846  1.0000
  C   C3        1.0  0.8803371254829954  0.7104168097357543  0.927608105029641  1.0000
  C   C4        1.0  0.8809882481848561  0.2099441741564121  0.5724833803380278  1.0000
  C   C5        1.0  0.3689377737571178  0.3164468923175362  0.0068462896645727  1.0000
  C   C6        1.0  0.3689927288512393  0.8161342328486115  0.4936125697795076  1.0000
  C   C7        1.0  0.6308337935406669  0.6838674166478639  0.9935859011767931  1.0000
  C   C8        1.0  0.6313744610681978  0.18385106303208687  0.5067953493480886  1.0000
  N   N1        1.0  0.1439473609603681  0.17471867501677704  0.0235064347899865  1.0000
  N   N2        1.0  0.1443319152826987  0.6741543155132632  0.4766998203036366  1.0000
  N   N3        1.0  0.8558784222387458  0.8254630259111906  0.976781640913117  1.0000
  N   N4        1.0  0.856941917328619  0.32532498822848044  0.5235487269878688  1.0000
  N   N5        1.0  0.299615116452557  0.19090903441518486  0.9837310124147152  1.0000
  N   N6        1.0  0.2997327513415938  0.6906018903014794  0.5166802155379315  1.0000
  N   N7        1.0  0.7001773774084153  0.8093893518737332  0.0164903816731083  1.0000
  N   N8        1.0  0.7003318187506976  0.309541295538004  0.4838727161150942  1.0000
  N   N9        1.0  0.258789947409916  0.3805590610751678  0.06308635304186788  1.0000
  N   N10       1.0  0.2587785663210624  0.8800459748418062  0.4371669515494645  1.0000
  N   N11       1.0  0.7410066810201028  0.6196263770847991  0.9375359380420747  1.0000
  N   N12       1.0  0.7415448274563731  0.11942601498456179  0.5626464878650664  1.0000
  N   N13       1.0  0.2863133052314382  0.5174195824155063  0.0924843853535435  1.0000
  N   N14       1.0  0.28634068862397294  0.017003589634526892  0.40800306494132593  1.0000
  N   N15       1.0  0.7131838934130315  0.48262533834382976  0.9085604282895969  1.0000
  N   N16       1.0  0.7136016801000122  0.9825510811521881  0.5919770196601845  1.0000
  N   N17       1.0  0.15913766359476253  0.9566475337063802  0.8672007133837951  1.0000
  N   N18       1.0  0.15976103493569127  0.4571432831139857  0.631865662586975  1.0000
  N   N19       1.0  0.8404817292869851  0.04334811943969189  0.132946859754945  1.0000
  N   N20       1.0  0.8423714695400902  0.5465760637336315  0.36517156906010234  1.0000
  N   N21       1.0  0.10453286374050212  0.9414258496039241  0.7658070359370797  1.0000
  N   N22       1.0  0.105101879736246  0.44152518239044986  0.7333708346369079  1.0000
  N   N23       1.0  0.8952244491709251  0.05838640733872319  0.23434777305205048  1.0000
  N   N24       1.0  0.8970599977676486  0.5584878223301144  0.26394625430428675  1.0000
  N   N25       1.0  0.051008161867933687  0.9255391990188641  0.6694636359892456  1.0000
  N   N26       1.0  0.05146718298271217  0.4253345053311647  0.829570981401517  1.0000
  N   N27       1.0  0.9489224522826729  0.0740808798408352  0.3306254412007519  1.0000
  N   N28       1.0  0.9500937691798155  0.5723121428177436  0.1671050815343946  1.0000
  N   N29       1.0  0.47874953946593013  0.9156862140342384  0.790350374115789  1.0000
  N   N30       1.0  0.4785484714507788  0.41586094128837914  0.709505104887775  1.0000
  N   N31       1.0  0.5208263661733739  0.08466095676534739  0.2095259865413084  1.0000
  N   N32       1.0  0.5199264330470824  0.5846649921261073  0.2911378543707741  1.0000
  N   N33       1.0  0.4140676479509152  0.7996081481609352  0.7954165814214136  1.0000
  N   N34       1.0  0.41361541165718296  0.29981224269867107  0.7042673684946266  1.0000
  N   N35       1.0  0.5854946957933649  0.20075603080525886  0.2045714821318967  1.0000
  N   N36       1.0  0.5843987468464036  0.7007011554858735  0.2957576097160839  1.0000
  N   N37       1.0  0.3560176371938653  0.1855568529496097  0.7022318548847366  1.0000
  N   N38       1.0  0.35635334668412355  0.685348972462144  0.7976312861218701  1.0000
  N   N39       1.0  0.6423902934438315  0.8149555373124354  0.2980030209647424  1.0000
  N   N40       1.0  0.6430382645629676  0.31506021276940993  0.2025207256018433  1.0000
  N   N41       1.0  0.6074144374862909  0.15677747565227654  0.9185906770735528  1.0000
  N   N42       1.0  0.6073143915748033  0.6562145500558924  0.5810238136433483  1.0000
  N   N43       1.0  0.39260150810030575  0.8449584108827678  0.0800044493641607  1.0000
  N   N44       1.0  0.3922200114360592  0.344250102842757  0.4195119516083494  1.0000
  N   N45       1.0  0.7298990511239579  0.12775780385225485  0.8785098458479581  1.0000
  N   N46       1.0  0.7296410357850931  0.6269505466086756  0.6212557358468516  1.0000
  N   N47       1.0  0.270169892695435  0.8731497090364186  0.12101419099818142  1.0000
  N   N48       1.0  0.2695898187705055  0.3726105889792919  0.37916846918567154  1.0000
  N   N49       1.0  0.8534804037707673  0.10222746063125498  0.843048019946778  1.0000
  N   N50       1.0  0.8529740568974731  0.601119594024304  0.6568233977727047  1.0000
  N   N51       1.0  0.14664052598791244  0.8980523314683994  0.15709229971069757  1.0000
  N   N52       1.0  0.14585371533851088  0.3977932712165141  0.3435711838962447  1.0000
