data_image0
_chemical_formula_structural       Al6H68C99N3O28F3
_chemical_formula_sum              "Al6 H68 C99 N3 O28 F3"
_cell_length_a       12.78713367052538
_cell_length_b       13.062646846380323
_cell_length_c       27.65596712801294
_cell_angle_alpha    90.26637686025886
_cell_angle_beta     90.04971723228188
_cell_angle_gamma    59.196878480800244

_space_group_name_H-M_alt    "P 1"
_space_group_IT_number       1

loop_
  _space_group_symop_operation_xyz
  'x, y, z'

loop_
  _atom_site_type_symbol
  _atom_site_label
  _atom_site_symmetry_multiplicity
  _atom_site_fract_x
  _atom_site_fract_y
  _atom_site_fract_z
  _atom_site_occupancy
  Al  Al1       1.0  0.8542987740587834  0.5618638993293105  0.4965039910252571  1.0000
  Al  Al2       1.0  0.5922844596877894  0.5849611047399179  0.4964206845006274  1.0000
  Al  Al3       1.0  0.6008444493335007  0.8101267717086034  0.49795226105219836  1.0000
  Al  Al4       1.0  0.8255308499090078  0.07905536709893113  0.9855736314108938  1.0000
  Al  Al5       1.0  0.08193980227635929  0.06987051236327353  0.9811202357400505  1.0000
  Al  Al6       1.0  0.08693608718571959  0.838165045617231  0.9829661034770683  1.0000
  H   H1        1.0  0.39570633254348303  0.9620877700261589  0.19562780781409123  1.0000
  H   H2        1.0  0.3028377645993957  0.0082549713510076  0.8624084917678874  1.0000
  H   H3        1.0  0.05084061307552175  0.6748379860625707  0.8600547984070276  1.0000
  H   H4        1.0  0.7064439279777233  0.25181862780507913  0.8585917024414301  1.0000
  H   H5        1.0  0.43765311295994275  0.9427369999693062  0.6228644123446472  1.0000
  H   H6        1.0  0.9619775785796995  0.610981937310676  0.6222686879925307  1.0000
  H   H7        1.0  0.6120108722413065  0.411025374961639  0.622194954157891  1.0000
  H   H8        1.0  0.37122571982556  0.0684241686969216  0.7888518060684078  1.0000
  H   H9        1.0  0.1129238354158416  0.5498597189433881  0.7850641888486578  1.0000
  H   H10       1.0  0.5731176909381832  0.31275618140661277  0.7855914846852201  1.0000
  H   H11       1.0  0.41500849352416236  0.04766808084944782  0.7010901427118627  1.0000
  H   H12       1.0  0.9796464237094116  0.6386479219326873  0.2017044591475425  1.0000
  H   H13       1.0  0.08295613628520465  0.5282672763566226  0.6978587198968358  1.0000
  H   H14       1.0  0.5398929993168621  0.36763695503436394  0.6989637516493376  1.0000
  H   H15       1.0  0.2410534701113675  0.7146702880774857  0.8554998249886483  1.0000
  H   H16       1.0  0.7292924747464299  0.0224517184619799  0.860682686870618  1.0000
  H   H17       1.0  0.06335712780280287  0.20535520184833447  0.8500162353183358  1.0000
  H   H18       1.0  0.26525390368832547  0.6087082596133586  0.7774127466468956  1.0000
  H   H19       1.0  0.6095625814459423  0.10590211314795545  0.7848522121965686  1.0000
  H   H20       1.0  0.1425192898840919  0.23072267445493114  0.7713187865689053  1.0000
  H   H21       1.0  0.3112016834350372  0.5865099814765105  0.6898564857965681  1.0000
  H   H22       1.0  0.5810619638537204  0.0855117729890225  0.6974919949036933  1.0000
  H   H23       1.0  0.6676727065312633  0.3550101656378929  0.18966286070941862  1.0000
  H   H24       1.0  0.10909068579571365  0.286439114048875  0.6847453748212118  1.0000
  H   H25       1.0  0.44823743838023217  0.9261710384649008  0.278207926760075  1.0000
  H   H26       1.0  0.9439801671868437  0.6374068604348226  0.28508177079951486  1.0000
  H   H27       1.0  0.6357057848113357  0.3988451175800663  0.273121116651204  1.0000
  H   H28       1.0  0.3780973931440954  0.6477112589471475  0.6161662896894313  1.0000
  H   H29       1.0  0.6424320109618904  0.9601157173650847  0.6226226848424263  1.0000
  H   H30       1.0  0.9693529772765289  0.3635455249757983  0.6135800000825852  1.0000
  H   H31       1.0  0.1647979244406487  0.9087310842271492  0.2935559360304723  1.0000
  H   H32       1.0  0.9295141558034458  0.9295892144354599  0.2989435237066189  1.0000
  H   H33       1.0  0.9567729985786715  0.14875786513841402  0.29419568407367086  1.0000
  H   H34       1.0  0.5453086786808399  0.7727820830281191  0.2649005326151014  1.0000
  H   H35       1.0  0.2203243525119944  0.0067572803687597025  0.2892722430936061  1.0000
  H   H36       1.0  0.025782143546983594  0.7742064835550835  0.2999898366636273  1.0000
  H   H37       1.0  0.8050365139882774  0.18481941240099792  0.2870644896896621  1.0000
  H   H38       1.0  0.1825061804970076  0.021055781678576614  0.20565850502816835  1.0000
  H   H39       1.0  0.058375072001055545  0.7743304356790476  0.21604434663952085  1.0000
  H   H40       1.0  0.8376392531606598  0.15143367094141522  0.20325368362090757  1.0000
  H   H41       1.0  0.13851903576826166  0.9135866058272981  0.20914330924837546  1.0000
  H   H42       1.0  0.9594265116619097  0.9302379887233913  0.2150570838900947  1.0000
  H   H43       1.0  0.9874078683863133  0.12191894501002312  0.2099194710426531  1.0000
  H   H44       1.0  0.4717812567545392  0.6322110077460794  0.2745556292683418  1.0000
  H   H45       1.0  0.7878283357242707  0.6976574795912928  0.2719413362509613  1.0000
  H   H46       1.0  0.6461876685499346  0.9161541596235595  0.2739226510592871  1.0000
  H   H47       1.0  0.8846356788812532  0.46450627303597974  0.2788313030834502  1.0000
  H   H48       1.0  0.45561882112301066  0.650085227003139  0.1907956870972853  1.0000
  H   H49       1.0  0.6753744709832362  0.9212981800489932  0.19096028045391486  1.0000
  H   H50       1.0  0.9036155228678808  0.4427602370403037  0.1950533203438809  1.0000
  H   H51       1.0  0.2106507811540794  0.7242338803370105  0.2757553503764072  1.0000
  H   H52       1.0  0.26681145886423957  0.531151912257876  0.3015984307605636  1.0000
  H   H53       1.0  0.4214472766484221  0.49188128251082486  0.3020459857608628  1.0000
  H   H54       1.0  0.3445435718535422  0.513706968617541  0.2456042118382129  1.0000
  H   H55       1.0  0.7472049717206204  0.07092034680050571  0.28516643369968625  1.0000
  H   H56       1.0  0.6744368449328347  0.5098302739636084  0.2648659714228785  1.0000
  H   H57       1.0  0.5453975943910194  0.22265967013709093  0.3010440030854299  1.0000
  H   H58       1.0  0.4969401637894607  0.11841306111913504  0.2940195680054814  1.0000
  H   H59       1.0  0.5447127405511766  0.16524515074209495  0.24217949720974025  1.0000
  H   H60       1.0  0.08360021813758316  0.21751899023117016  0.2824034274403786  1.0000
  H   H61       1.0  0.19472767339946268  0.2984850324100848  0.3159897814060813  1.0000
  H   H62       1.0  0.06175214898615175  0.44159969130679144  0.3159520771767249  1.0000
  H   H63       1.0  0.1350874065169876  0.3738229550367437  0.2598533383494086  1.0000
  H   H64       1.0  0.30163369336590046  0.6895384132284693  0.19597790055468073  1.0000
  H   H65       1.0  0.7320104208837535  0.01777399001222341  0.20079441007966642  1.0000
  H   H66       1.0  0.029307670280751028  0.29700242417929  0.20288251149096231  1.0000
  H   H67       1.0  0.05330081505915976  0.4460876424115768  0.4668699556076703  1.0000
  H   H68       1.0  0.6228715180563142  0.22227053917690404  0.9677576216161655  1.0000
  C   C1        1.0  0.7757613731139869  0.7740760461446997  0.430375998544001  1.0000
  C   C2        1.0  0.3042610503118511  0.8527329024016127  0.1400148962745718  1.0000
  C   C3        1.0  0.890975368894779  0.8357622040487489  0.1460905381617366  1.0000
  C   C4        1.0  0.8769931638459811  0.2821494900981848  0.1409681465234911  1.0000
  C   C5        1.0  0.38411505446730815  0.8095714799005269  0.3377144800953218  1.0000
  C   C6        1.0  0.8167451413794281  0.8228171446265056  0.34221737249745143  1.0000
  C   C7        1.0  0.8051508513997092  0.36187918935497987  0.337677281772514  1.0000
  C   C8        1.0  0.4087619692226737  0.7980576762531517  0.38055579363575737  1.0000
  C   C9        1.0  0.8004189876588227  0.8069197515207449  0.3840689850197805  1.0000
  C   C10       1.0  0.7851719976865825  0.3910179589133166  0.3799501250814573  1.0000
  C   C11       1.0  0.9057331607574642  0.19221104472957515  0.9107362305092722  1.0000
  C   C12       1.0  0.7642831379794401  0.4439422603958577  0.42733014222289983  1.0000
  C   C13       1.0  0.22595549840613666  0.884575151824514  0.9145982431669711  1.0000
  C   C14       1.0  0.9143872707542328  0.8716354184734243  0.915481279603192  1.0000
  C   C15       1.0  0.9138354077532399  0.2081262155969626  0.0501748933064619  1.0000
  C   C16       1.0  0.22668889100680165  0.8867293869874334  0.049510947840516906  1.0000
  C   C17       1.0  0.9184621556521652  0.8750016551320742  0.05441413434501641  1.0000
  C   C18       1.0  0.4111926878477161  0.8856866452361346  0.6411292695601389  1.0000
  C   C19       1.0  0.9012134379544466  0.6924341584154023  0.6422123242541956  1.0000
  C   C20       1.0  0.6987094822546711  0.3841258857717734  0.6396739655620465  1.0000
  C   C21       1.0  0.3840618918076401  0.9004022864743961  0.6906690753956681  1.0000
  C   C22       1.0  0.9213222466926896  0.7039533036292056  0.6911902071447217  1.0000
  C   C23       1.0  0.4578019335009457  0.7716083162960815  0.4287060771047068  1.0000
  C   C24       1.0  0.7178124783397737  0.34746527943851657  0.6880570241306004  1.0000
  C   C25       1.0  0.33168369886678295  0.9252604094268693  0.7918448174242486  1.0000
  C   C26       1.0  0.9563806387303655  0.7292661607422207  0.7914202436919311  1.0000
  C   C27       1.0  0.7562471856806071  0.28362668002147745  0.7877362258839399  1.0000
  C   C28       1.0  0.7758364433279042  0.7622605950271936  0.5677856245712576  1.0000
  C   C29       1.0  0.7633216617783772  0.44378535157029125  0.5645510240789237  1.0000
  C   C30       1.0  0.45358452641345787  0.7721292236611393  0.563916481457106  1.0000
  C   C31       1.0  0.3651063562503438  0.0011581276211174037  0.7675334801519754  1.0000
  C   C32       1.0  0.037509011523368815  0.6222360758161047  0.765346317974931  1.0000
  C   C33       1.0  0.6442432559733862  0.3136242189851187  0.7641423809865843  1.0000
  C   C34       1.0  0.36894262543169287  0.7122757835034721  0.20854937739390075  1.0000
  C   C35       1.0  0.3894769635100417  0.9896142147540988  0.7191363497454972  1.0000
  C   C36       1.0  0.02103924844787723  0.6101986277800011  0.7173571042021294  1.0000
  C   C37       1.0  0.6258888304169973  0.3439592712350788  0.7164415812595806  1.0000
  C   C38       1.0  0.30231661178394365  0.9379789158847842  0.8411912839429618  1.0000
  C   C39       1.0  0.9731992667285283  0.7446586534911789  0.8404359403301954  1.0000
  C   C40       1.0  0.7760853189784598  0.2544950705664633  0.8368718256482951  1.0000
  C   C41       1.0  0.2701232135406074  0.8621214858694088  0.8637442980432227  1.0000
  C   C42       1.0  0.8915348486276715  0.850014869780907  0.8647351241080659  1.0000
  C   C43       1.0  0.8856082303125418  0.22801648853869957  0.8589957427103061  1.0000
  C   C44       1.0  0.3777133834661229  0.7185306095731363  0.6373112151691629  1.0000
  C   C45       1.0  0.7419023154635984  0.9324175264708784  0.21184001756587637  1.0000
  C   C46       1.0  0.720064988700372  0.8902830457729963  0.6422430499610884  1.0000
  C   C47       1.0  0.9013563941150693  0.3570586213023574  0.6349552761220211  1.0000
  C   C48       1.0  0.3484485470870171  0.7311929171887357  0.6866790124274615  1.0000
  C   C49       1.0  0.7374334591791932  0.9059753036793341  0.6911527287905133  1.0000
  C   C50       1.0  0.9245432643021092  0.3191133845315833  0.6830843618258344  1.0000
  C   C51       1.0  0.3526863761095737  0.8222981738818267  0.7140260556918109  1.0000
  C   C52       1.0  0.8382855696094466  0.8113848851538777  0.7163015701007042  1.0000
  C   C53       1.0  0.831250796408774  0.31606962593204463  0.7104388365881534  1.0000
  C   C54       1.0  0.31603720817533804  0.6546300256673734  0.7110596660385228  1.0000
  C   C55       1.0  0.6562211256980675  0.0129181597550883  0.7172188784603011  1.0000
  C   C56       1.0  0.9333341168021152  0.3572289599910548  0.21284410741757406  1.0000
  C   C57       1.0  0.0377935616172564  0.28614313833846694  0.7063103583160242  1.0000
  C   C58       1.0  0.29074914448447936  0.6667917093116104  0.7593845893739514  1.0000
  C   C59       1.0  0.6721145060127257  0.024400489445149304  0.7652939248346585  1.0000
  C   C60       1.0  0.05608436184761695  0.2556603621277348  0.7539997485124702  1.0000
  C   C61       1.0  0.29520166165634276  0.7566530880728523  0.787749695117185  1.0000
  C   C62       1.0  0.7718347037073129  0.9307563734659823  0.7914718312181606  1.0000
  C   C63       1.0  0.9628856475058286  0.2553101419693605  0.7826926780900579  1.0000
  C   C64       1.0  0.4521604629659208  0.8487337725761182  0.2606276809535402  1.0000
  C   C65       1.0  0.8651997468664729  0.7110512120379157  0.2668885265467296  1.0000
  C   C66       1.0  0.7056868881713925  0.41529820566205444  0.2586567396524373  1.0000
  C   C67       1.0  0.37915770608973526  0.7024802125231419  0.2646711084671125  1.0000
  C   C68       1.0  0.3266763778013056  0.834688628739592  0.7644089678820479  1.0000
  C   C69       1.0  0.855508961838652  0.8237710161567978  0.7662626182782617  1.0000
  C   C70       1.0  0.8503009000875325  0.2845088785512431  0.760104271401467  1.0000
  C   C71       1.0  0.2678485402009514  0.7715311851974107  0.8372841280059478  1.0000
  C   C72       1.0  0.7910042177080923  0.9416148291277371  0.8406042826754218  1.0000
  C   C73       1.0  0.9782861929673174  0.2280230339428614  0.8320942359100132  1.0000
  C   C74       1.0  0.4092276978461271  0.7948471350828827  0.6147210718723956  1.0000
  C   C75       1.0  0.8006260543136111  0.7841372542708953  0.618163644324234  1.0000
  C   C76       1.0  0.788901760379943  0.39070745117118844  0.6136992550622297  1.0000
  C   C77       1.0  0.23097821182515343  0.9237047083412337  0.2744369844353827  1.0000
  C   C78       1.0  0.7203366809632142  0.9338801825873307  0.2672980544512669  1.0000
  C   C79       1.0  0.9459281455293082  0.8467016099249282  0.28171595135402333  1.0000
  C   C80       1.0  0.8728830609276133  0.20593297718522763  0.2739227401625328  1.0000
  C   C81       1.0  0.21062113742791416  0.9315690105811785  0.21911466141149563  1.0000
  C   C82       1.0  0.9669062854858835  0.846481381590735  0.226620535720734  1.0000
  C   C83       1.0  0.8922283653337291  0.1866835785230734  0.21871673494081287  1.0000
  C   C84       1.0  0.27795523691579394  0.8633323583715157  0.09734553285215243  1.0000
  C   C85       1.0  0.903277182954142  0.8467062225840892  0.1032421712810461  1.0000
  C   C86       1.0  0.8948193574034493  0.25749424262874504  0.0982314837212783  1.0000
  C   C87       1.0  0.36133291160279424  0.8210518479975025  0.2859831433286715  1.0000
  C   C88       1.0  0.8363237307271801  0.8300474818367435  0.2910486324396899  1.0000
  C   C89       1.0  0.9214584259556206  0.37052787274478055  0.2688198477235559  1.0000
  C   C90       1.0  0.8263311671707355  0.3377567256726764  0.2863189369400772  1.0000
  C   C91       1.0  0.4260231444900385  0.8698175266951724  0.2061558771627574  1.0000
  C   C92       1.0  0.8882225392903894  0.7106611949915732  0.2124503890853404  1.0000
  C   C93       1.0  0.7221858487390805  0.3916029274636658  0.20401258045836812  1.0000
  C   C94       1.0  0.3282259889158181  0.8400062352516362  0.1917064883711959  1.0000
  C   C95       1.0  0.871324873662658  0.831631413486399  0.19754868138372933  1.0000
  C   C96       1.0  0.8576057439387769  0.30516580247385866  0.192495891229143  1.0000
  C   C97       1.0  0.333952161822893  0.5464249911386007  0.2834331494703477  1.0000
  C   C98       1.0  0.5629239580329681  0.14246548227362874  0.2810806711177278  1.0000
  C   C99       1.0  0.11033758014320934  0.35647800692304815  0.29613219294797943  1.0000
  N   N1        1.0  0.2972235067281797  0.6716186238656267  0.28827631841382845  1.0000
  N   N2        1.0  0.6853769790040902  0.045532677560757406  0.29200881770967874  1.0000
  N   N3        1.0  0.03491679469347988  0.3025446632235003  0.2954896721094826  1.0000
  O   O1        1.0  0.8426247274783308  0.4676693333560423  0.4426224599724051  1.0000
  O   O2        1.0  0.8420276920726197  0.46220340246505737  0.545727713775868  1.0000
  O   O3        1.0  0.47118356012775536  0.6765823405580849  0.5432741390243265  1.0000
  O   O4        1.0  0.676476268242176  0.8439004268395752  0.5478905599079057  1.0000
  O   O5        1.0  0.850632066531908  0.663608577239515  0.5484642314395529  1.0000
  O   O6        1.0  0.659722246527153  0.4723427689387024  0.5452499666854251  1.0000
  O   O7        1.0  0.4786501803550607  0.8459059783479007  0.5444717452858115  1.0000
  O   O8        1.0  0.6802951938778605  0.6533971646486023  0.4965195810978216  1.0000
  O   O9        1.0  0.8357089529290177  0.9672445690257593  0.9356084568884384  1.0000
  O   O10       1.0  0.005162518271923485  0.17491856880906914  0.9303126603795705  1.0000
  O   O11       1.0  0.20430299236675586  0.8090761429397024  0.9345290255960637  1.0000
  O   O12       1.0  0.4776447869097492  0.6736081559905929  0.44717195239449137  1.0000
  O   O13       1.0  0.8269659263141805  0.1770728820714141  0.9318472804872331  1.0000
  O   O14       1.0  0.20508792826350225  0.981833652007069  0.934803787261508  1.0000
  O   O15       1.0  0.016532572613485116  0.7932746078623086  0.9349298855551923  1.0000
  O   O16       1.0  0.00021068272257436025  0.9949643336264844  0.9833897926027717  1.0000
  O   O17       1.0  0.8373181719955199  0.1815857160720428  0.0355711518415447  1.0000
  O   O18       1.0  0.19945854004473754  0.9863960879700928  0.030609452436635806  1.0000
  O   O19       1.0  0.01516673503554935  0.7970656791264905  0.0317662459971757  1.0000
  O   O20       1.0  0.6772756838302529  0.8525104500658786  0.4520275159168961  1.0000
  O   O21       1.0  0.8381642132368725  0.9755481201855646  0.03879534906437241  1.0000
  O   O22       1.0  0.009712967620607962  0.1903053224918097  0.0271392458767323  1.0000
  O   O23       1.0  0.2063813325533771  0.8088667544117246  0.0306889579584322  1.0000
  O   O24       1.0  0.8494107267592098  0.6699618261654053  0.44495935142342097  1.0000
  O   O25       1.0  0.665375250914693  0.4670317702117616  0.4491866701524501  1.0000
  O   O26       1.0  0.48351157589871707  0.8448067598717872  0.4483869771436418  1.0000
  O   O27       1.0  0.014124995424800998  0.47828495428795764  0.4976474295860741  1.0000
  O   O28       1.0  0.6661656816729503  0.15418383508598055  0.9887018622206727  1.0000
  F   F1        1.0  0.5342801355436322  0.796992565146063  0.18017067585034854  1.0000
  F   F2        1.0  0.8054872149272255  0.6893874902857962  0.18688301573510566  1.0000
  F   F3        1.0  0.6808800461917315  0.5008073163713007  0.1797703043119867  1.0000
