data_image0
_chemical_formula_structural       Zr4Hg4H24C24O60
_chemical_formula_sum              "Zr4 Hg4 H24 C24 O60"
_cell_length_a       8.875873634
_cell_length_b       10.164906764393436
_cell_length_c       16.7923
_cell_angle_alpha    90.0
_cell_angle_beta     90.0
_cell_angle_gamma    105.47172225100968

_space_group_name_H-M_alt    "P 1"
_space_group_IT_number       1

loop_
  _space_group_symop_operation_xyz
  'x, y, z'

loop_
  _atom_site_type_symbol
  _atom_site_label
  _atom_site_symmetry_multiplicity
  _atom_site_fract_x
  _atom_site_fract_y
  _atom_site_fract_z
  _atom_site_occupancy
  Zr  Zr1       1.0  0.19643900513725035  0.892573114662177  0.4083335814629336  1.0000
  Zr  Zr2       1.0  0.8035678457028865  0.6074330308156064  0.9083335814629336  1.0000
  Zr  Zr3       1.0  0.8035598158187868  0.1074286005329199  0.5916664185370664  1.0000
  Zr  Zr4       1.0  0.19643341965550581  0.3925656220779459  0.0916652275149943  1.0000
  Hg  Hg1       1.0  0.4386580564663661  0.524252754690572  0.6314721628365376  1.0000
  Hg  Hg2       1.0  0.561337165639685  0.9757411415810252  0.1314691852813468  1.0000
  Hg  Hg3       1.0  0.5613390141422698  0.4757469189701595  0.3685290281855345  1.0000
  Hg  Hg4       1.0  0.43866266122017816  0.024256490545347696  0.8685314102296857  1.0000
  H   H1        1.0  0.4195074181537493  0.5010752150565807  0.8057508500920036  1.0000
  H   H2        1.0  0.580495429039665  0.9989288888868372  0.3057484680478524  1.0000
  H   H3        1.0  0.5804959094009235  0.49892650013851636  0.1942503409300684  1.0000
  H   H4        1.0  0.4195078985150076  0.0010728263082598  0.694250936441108  1.0000
  H   H5        1.0  0.3253935299071529  0.6077004718172815  0.7895761747943979  1.0000
  H   H6        1.0  0.6746123853863679  0.8923026113589501  0.2895761747943979  1.0000
  H   H7        1.0  0.6746106124483049  0.392300222610629  0.2104250162276742  1.0000
  H   H8        1.0  0.3253900066216886  0.10769604153459508  0.710425611738714  1.0000
  H   H9        1.0  0.23222727199609491  0.9995321622913876  0.2490468845840041  1.0000
  H   H10       1.0  0.767773513001039  0.5004688793504855  0.7490480756060833  1.0000
  H   H11       1.0  0.7677738022592564  0.00046955290370929997  0.7509531154159959  1.0000
  H   H12       1.0  0.23222518720916707  0.4995287527758805  0.2509513288828842  1.0000
  H   H13       1.0  0.06594506443025952  0.0069626529482747  0.2827522138122802  1.0000
  H   H14       1.0  0.9340575464788116  0.4930438188687774  0.782754000345399  1.0000
  H   H15       1.0  0.934056321673971  0.9930400830140087  0.717245999654601  1.0000
  H   H16       1.0  0.0659420892780105  0.5069568755591404  0.2172454041435685  1.0000
  H   H17       1.0  0.13102536510115212  0.9825772193987277  0.5676429077612966  1.0000
  H   H18       1.0  0.868977049497552  0.51742178070878  0.067642312250257  1.0000
  H   H19       1.0  0.8689824690521561  0.0174244957963623  0.4323588787718151  1.0000
  H   H20       1.0  0.1310222744103982  0.4825778929519586  0.932357687749743  1.0000
  H   H21       1.0  0.22033280636323838  0.8613549919357409  0.575669205528726  1.0000
  H   H22       1.0  0.7796689845377216  0.638641966637401  0.0756686100176864  1.0000
  H   H23       1.0  0.7796704004455961  0.1386426401906249  0.4243301989602345  1.0000
  H   H24       1.0  0.2203314660198856  0.3613577070233305  0.9243301989602344  1.0000
  C   C1        1.0  0.3955638631002501  0.6959662100429256  0.4331646052059597  1.0000
  C   C2        1.0  0.6044431788429279  0.8040368731333061  0.9331663917390713  1.0000
  C   C3        1.0  0.6044374022581493  0.3040324428506267  0.5668359903050799  1.0000
  C   C4        1.0  0.3955592131651215  0.19596177976023907  0.0668347992830078  1.0000
  C   C5        1.0  0.3489428162010171  0.6809078525743856  0.344114862168972  1.0000
  C   C6        1.0  0.6510574658442039  0.819095230601853  0.8441166487020837  1.0000
  C   C7        1.0  0.6510507537128022  0.3190877380176218  0.6558851378310282  1.0000
  C   C8        1.0  0.3489441113630605  0.18090444305888548  0.1558833512979163  1.0000
  C   C9        1.0  0.6906509510037893  0.7967383877821631  0.5986779654960941  1.0000
  C   C10       1.0  0.3093398852494573  0.7032595915581581  0.09867736998505452  1.0000
  C   C11       1.0  0.30934091895125704  0.2032663897144786  0.4013238210370247  1.0000
  C   C12       1.0  0.6906566824072655  0.296742123636939  0.901322034503913  1.0000
  C   C13       1.0  0.5447683437397403  0.8440254274873027  0.6232350541617322  1.0000
  C   C14       1.0  0.4552204303172261  0.6559694895514809  0.1232380317169159  1.0000
  C   C15       1.0  0.45521921071971155  0.1559762877077944  0.3767619682830841  1.0000
  C   C16       1.0  0.5447769521402819  0.3440312048764369  0.8767613727720445  1.0000
  C   C17       1.0  0.15866785959801183  0.2274014089651644  0.614955068692197  1.0000
  C   C18       1.0  0.8413199337310219  0.2725897513441566  0.1149544731811574  1.0000
  C   C19       1.0  0.8413247044119813  0.7725982646955671  0.3850425492636518  1.0000
  C   C20       1.0  0.1586840878785978  0.7274068600150301  0.8850461223298751  1.0000
  C   C21       1.0  0.0961314717179746  0.3506580254218363  0.5913901014155272  1.0000
  C   C22       1.0  0.903863705206767  0.1493351764218431  0.0913883148824155  1.0000
  C   C23       1.0  0.9038687877365987  0.64934471054044  0.4086116851175845  1.0000
  C   C24       1.0  0.0961382542065792  0.8506583726357917  0.9086122806286241  1.0000
  O   O1        1.0  0.46627079507817376  0.6195158519486766  0.4649779958671516  1.0000
  O   O2        1.0  0.5337348083664678  0.8804862104603757  0.9649821644444216  1.0000
  O   O3        1.0  0.5337272110770783  0.3804868840135995  0.5350202175997367  1.0000
  O   O4        1.0  0.46626839844236667  0.1195114216659903  0.0350196220886971  1.0000
  O   O5        1.0  0.351742533264165  0.7920112149624288  0.4683414422086329  1.0000
  O   O6        1.0  0.6482734515190742  0.7079990135840859  0.9683420377196725  1.0000
  O   O7        1.0  0.6482686104809118  0.20799764560294418  0.5316573667692952  1.0000
  O   O8        1.0  0.35172862864010307  0.2919986185422871  0.0316561757472158  1.0000
  O   O9        1.0  0.27877500607047523  0.7671881986310822  0.31877586751070214  1.0000
  O   O10       1.0  0.7212227108265594  0.7328138637779702  0.8187764630217416  1.0000
  O   O11       1.0  0.7212128098492202  0.2328033088921941  0.6812247280003305  1.0000
  O   O12       1.0  0.27877917822957693  0.2671868306499405  0.1812223459561793  1.0000
  O   O13       1.0  0.3764807457284576  0.586931942732754  0.3026672939382919  1.0000
  O   O14       1.0  0.6235217896160848  0.9130711404434777  0.8026726535376341  1.0000
  O   O15       1.0  0.6235133271372748  0.4130616063248809  0.6973321105506685  1.0000
  O   O16       1.0  0.3764855415853106  0.0869326162859778  0.19732972850651725  1.0000
  O   O17       1.0  0.8070868438681842  0.8952516077476885  0.5757168464117512  1.0000
  O   O18       1.0  0.1929056219866325  0.6047443300582742  0.0757180374338233  1.0000
  O   O19       1.0  0.1929079734411303  0.10474806591304289  0.4242837490992884  1.0000
  O   O20       1.0  0.8070911367731243  0.39525432283527806  0.9242807715440977  1.0000
  O   O21       1.0  0.6915251515780625  0.6750027144266397  0.6030394883369186  1.0000
  O   O22       1.0  0.3084664994759764  0.8249942441465024  0.1030388928258787  1.0000
  O   O23       1.0  0.30846690948002486  0.3249990007684502  0.3969628937072329  1.0000
  O   O24       1.0  0.6915316977823167  0.1750054295142291  0.8969611071741215  1.0000
  O   O25       1.0  0.5695429164067605  0.9756390648628255  0.623270784823994  1.0000
  O   O26       1.0  0.4304503642488413  0.524355852175951  0.1232719758460732  1.0000
  O   O27       1.0  0.4304534601469213  0.0243657126338164  0.3767256421097756  1.0000
  O   O28       1.0  0.5695460826620433  0.47564177995041484  0.8767280241539268  1.0000
  O   O29       1.0  0.4188894320025298  0.7621609202598377  0.6417977287209027  1.0000
  O   O30       1.0  0.5811019072026298  0.7378350175461178  0.1418007062760935  1.0000
  O   O31       1.0  0.5811019350006034  0.2378458987711625  0.3581975071907948  1.0000
  O   O32       1.0  0.4188945397082549  0.2621626145802479  0.8581981027018344  1.0000
  O   O33       1.0  0.3404322730826125  0.5205871797400903  0.76950387975441  1.0000
  O   O34       1.0  0.6595696385641858  0.9794138619017829  0.2695014977102588  1.0000
  O   O35       1.0  0.6595721811217246  0.4794145354550068  0.23049671575662967  1.0000
  O   O36       1.0  0.34043244159499153  0.0205837702245901  0.7304985022897412  1.0000
  O   O37       1.0  0.058382257408489104  0.110326558562555  0.6001971141535094  1.0000
  O   O38       1.0  0.9416140461659025  0.3896666432811315  0.1001971141535094  1.0000
  O   O39       1.0  0.9416199434965193  0.889675156632542  0.3998016948244115  1.0000
  O   O40       1.0  0.05838772214440269  0.6103299680780552  0.899802290335451  1.0000
  O   O41       1.0  0.2882622355423763  0.24341520451604026  0.6465350190265795  1.0000
  O   O42       1.0  0.7117327502793245  0.2565810596291911  0.146530254938277  1.0000
  O   O43       1.0  0.7117428423597049  0.7565885522134224  0.3534685540396509  1.0000
  O   O44       1.0  0.2882741483273605  0.7434175932643612  0.8534721271058745  1.0000
  O   O45       1.0  0.18101976779162504  0.4703348113713091  0.5899168071080185  1.0000
  O   O46       1.0  0.8189765357827739  0.029658390472370396  0.0899156160859462  1.0000
  O   O47       1.0  0.8189769909681316  0.5296638415222432  0.410085574936133  1.0000
  O   O48       1.0  0.18102717397798074  0.9703372001196299  0.9100861704471725  1.0000
  O   O49       1.0  0.9494512208091807  0.3168583824921782  0.5759359944736602  1.0000
  O   O50       1.0  0.0505434531636482  0.1831368608858668  0.0759342079405414  1.0000
  O   O51       1.0  0.0505448438956293  0.6831453742372844  0.4240687696146423  1.0000
  O   O52       1.0  0.9494605684459785  0.8168597504733199  0.924065196548419  1.0000
  O   O53       1.0  0.1406596501873167  0.9520613844934971  0.2836639412111523  1.0000
  O   O54       1.0  0.8593412555556554  0.5479437402171001  0.7836639412111523  1.0000
  O   O55       1.0  0.8593402974183775  0.0479403307016  0.7163354632778152  1.0000
  O   O56       1.0  0.1406566298537655  0.45205491267644493  0.2163348677667756  1.0000
  O   O57       1.0  0.17608213202456818  0.9154985248022242  0.5387713416268198  1.0000
  O   O58       1.0  0.8239265395201798  0.5845025168396489  0.0387707461157802  1.0000
  O   O59       1.0  0.8239253902798609  0.08450216962569358  0.4612298493952594  1.0000
  O   O60       1.0  0.1760750376870917  0.4154971568210826  0.9612286583731802  1.0000
