data_image0
_chemical_formula_structural       Cu2H28C28N2O14
_chemical_formula_sum              "Cu2 H28 C28 N2 O14"
_cell_length_a       7.721274218583843
_cell_length_b       10.235334030037636
_cell_length_c       10.303873930073058
_cell_angle_alpha    104.92172490653036
_cell_angle_beta     105.45146637841088
_cell_angle_gamma    99.6630090420971

_space_group_name_H-M_alt    "P 1"
_space_group_IT_number       1

loop_
  _space_group_symop_operation_xyz
  'x, y, z'

loop_
  _atom_site_type_symbol
  _atom_site_label
  _atom_site_symmetry_multiplicity
  _atom_site_fract_x
  _atom_site_fract_y
  _atom_site_fract_z
  _atom_site_occupancy
  Cu  Cu1       1.0  0.24194341026294816  0.055528379783552906  0.170166538539263  1.0000
  Cu  Cu2       1.0  0.7580512141617605  0.9444764295442669  0.8298327019644773  1.0000
  H   H1        1.0  0.16564809515898557  0.8196651418498391  0.009124551642209185  1.0000
  H   H2        1.0  0.8343437040664697  0.18033548266176072  0.9908711457404705  1.0000
  H   H3        1.0  0.14723962658084136  0.9107712489580424  0.89543897333332  1.0000
  H   H4        1.0  0.8527606755171677  0.089234578537905  0.10455965046232762  1.0000
  H   H5        1.0  0.6953434055083605  0.07440342418480841  0.2865285973179397  1.0000
  H   H6        1.0  0.30465483732186266  0.9256003173778993  0.713469106086549  1.0000
  H   H7        1.0  0.5540775309748369  0.996499359137701  0.3444016539791335  1.0000
  H   H8        1.0  0.4459275183513824  0.0035043751479620004  0.6556012053210977  1.0000
  H   H9        1.0  0.2999475878585188  0.547477112297024  0.1378977659168186  1.0000
  H   H10       1.0  0.7000616971676056  0.45253498404524367  0.8621090006823167  1.0000
  H   H11       1.0  0.22495987036044343  0.6088554365971391  0.7320732282884705  1.0000
  H   H12       1.0  0.7750352655925782  0.3911389174637919  0.2679263404209564  1.0000
  H   H13       1.0  0.9251780242695633  0.09936060690159824  0.5467584888649171  1.0000
  H   H14       1.0  0.07482616623332206  0.900636842416091  0.45324065744519965  1.0000
  H   H15       1.0  0.06566691539686795  0.4971606832479625  0.8697697344349464  1.0000
  H   H16       1.0  0.9343215554969364  0.5028378723852356  0.13022772115173353  1.0000
  H   H17       1.0  0.44814193238396177  0.09795819471254669  0.9804314929982495  1.0000
  H   H18       1.0  0.5518553230603447  0.90205076659057  0.019563480575399896  1.0000
  H   H19       1.0  0.18529674522405065  0.3466401994405786  0.2077395959669346  1.0000
  H   H20       1.0  0.8147091386530505  0.6533698157079402  0.7922660000670234  1.0000
  H   H21       1.0  0.5842679062836994  0.28947799741116154  0.9093731390192444  1.0000
  H   H22       1.0  0.4157280315518292  0.7105309727365707  0.09062256063676705  1.0000
  H   H23       1.0  0.4078661201667729  0.6328743644622464  0.4502541491977893  1.0000
  H   H24       1.0  0.5921465087872095  0.3671199361953867  0.549750624286844  1.0000
  H   H25       1.0  0.46387355696505506  0.6384372811279138  0.6306987912621125  1.0000
  H   H26       1.0  0.5361343975780813  0.3615591250553579  0.36930467548712187  1.0000
  H   H27       1.0  0.25401215504935243  0.6803370522033418  0.5470544833513813  1.0000
  H   H28       1.0  0.745997112904611  0.3196635147998493  0.45294544255011704  1.0000
  C   C1        1.0  0.3413947394538966  0.4515027785498518  0.10242265581666739  1.0000
  C   C2        1.0  0.6586059941547547  0.5485041065978182  0.8975792318567172  1.0000
  C   C3        1.0  0.17140115784616236  0.4160666876880371  0.5620977702021861  1.0000
  C   C4        1.0  0.8285981451873498  0.583931846449616  0.437905591802334  1.0000
  C   C5        1.0  0.9880995752086223  0.29003153873905774  0.7184499492279315  1.0000
  C   C6        1.0  0.01189354582356824  0.7099649072633837  0.28154783683775253  1.0000
  C   C7        1.0  0.45852760235171536  0.4399186124667338  0.018845603224662017  1.0000
  C   C8        1.0  0.5414657730836296  0.560090387685577  0.9811544773652514  1.0000
  C   C9        1.0  0.16223060147015647  0.4967814930227733  0.6917930030028215  1.0000
  C   C10       1.0  0.8377638857157309  0.5032149523452887  0.30820600949328986  1.0000
  C   C11       1.0  0.0769431134004819  0.18333933828669302  0.3656834766033654  1.0000
  C   C12       1.0  0.9230574101519766  0.8166591705858793  0.6343152542932131  1.0000
  C   C13       1.0  0.9935460815792114  0.2106282643023435  0.5873176970859006  1.0000
  C   C14       1.0  0.006452048284643324  0.7893671174057248  0.41268075456735437  1.0000
  C   C15       1.0  0.07147124079255462  0.43407456652465737  0.7687738884749251  1.0000
  C   C16       1.0  0.9285212557449543  0.5659239748900405  0.23122431763385257  1.0000
  C   C17       1.0  0.8969882843798803  0.22030699532226813  0.8019722389620653  1.0000
  C   C18       1.0  0.10300452230599429  0.7796925832185694  0.19802434974248231  1.0000
  C   C19       1.0  0.41857093563043435  0.19909246380044016  0.013765847792690484  1.0000
  C   C20       1.0  0.5814273272742838  0.8009154515319212  0.9862300171028195  1.0000
  C   C21       1.0  0.08299345292764575  0.2711468307613957  0.5085878359507774  1.0000
  C   C22       1.0  0.917009468511374  0.7288506356111456  0.4914139889544913  1.0000
  C   C23       1.0  0.27155257876336253  0.33767669728635513  0.13959848868925215  1.0000
  C   C24       1.0  0.7284498554198039  0.6623312284581929  0.8604039842667318  1.0000
  C   C25       1.0  0.49381623435436955  0.30859332198736683  0.973177996517613  1.0000
  C   C26       1.0  0.506179417605253  0.6914146151393369  0.0268202967990234  1.0000
  C   C27       1.0  0.34964514078770753  0.6143649620185344  0.5316407574414157  1.0000
  C   C28       1.0  0.6503609444693409  0.38563356073695604  0.46836678420245187  1.0000
  N   N1        1.0  0.3105990748682075  0.2130699796661659  0.09741671532557206  1.0000
  N   N2        1.0  0.6893998610761118  0.7869358484641751  0.902580682039641  1.0000
  O   O1        1.0  0.2327810998290901  0.18751406312836852  0.34376760913902876  1.0000
  O   O2        1.0  0.7672228734173033  0.8124865351481746  0.656234244835524  1.0000
  O   O3        1.0  0.2177947156502853  0.9105342672331318  0.9923899771458338  1.0000
  O   O4        1.0  0.7821959074031783  0.08947056041830594  0.007609489092203596  1.0000
  O   O5        1.0  0.8216680874925046  0.08807807245264601  0.7425304661535179  1.0000
  O   O6        1.0  0.17832035912883995  0.9119204790754412  0.25746601317676016  1.0000
  O   O7        1.0  0.8983571527375248  0.2911765998571455  0.9235446551178939  1.0000
  O   O8        1.0  0.10163836198326952  0.7088229733098005  0.07645341019111383  1.0000
  O   O9        1.0  0.2546193410023179  0.46852245314801894  0.479829537347598  1.0000
  O   O10       1.0  0.745387989046144  0.531476048447502  0.5201743494447228  1.0000
  O   O11       1.0  0.9201099773029429  0.11161025813220958  0.276262798105769  1.0000
  O   O12       1.0  0.07989375441450618  0.8883934849980761  0.7237407872768246  1.0000
  O   O13       1.0  0.5616552344798578  0.04573681392064801  0.2763653965187984  1.0000
  O   O14       1.0  0.4383419565429918  0.9542637957380578  0.7236322778164065  1.0000
