data_image0
_chemical_formula_structural       Zn2H6C32Br6N2O14
_chemical_formula_sum              "Zn2 H6 C32 Br6 N2 O14"
_cell_length_a       10.216777277658595
_cell_length_b       10.897211875167857
_cell_length_c       11.621442972370248
_cell_angle_alpha    86.48267259348106
_cell_angle_beta     85.22326396359915
_cell_angle_gamma    76.82526391641488

_space_group_name_H-M_alt    "P 1"
_space_group_IT_number       1

loop_
  _space_group_symop_operation_xyz
  'x, y, z'

loop_
  _atom_site_type_symbol
  _atom_site_label
  _atom_site_symmetry_multiplicity
  _atom_site_fract_x
  _atom_site_fract_y
  _atom_site_fract_z
  _atom_site_occupancy
  Zn  Zn1       1.0  0.6406558831379526  0.47154234978320647  0.4793621677556958  1.0000
  Zn  Zn2       1.0  0.3400597632862273  0.5331120205428235  0.49026411737376224  1.0000
  H   H1        1.0  0.30246969505105886  0.1875805208451169  0.6263133806000029  1.0000
  H   H2        1.0  0.8272102000741414  0.23402805748107622  0.9727768611179146  1.0000
  H   H3        1.0  0.7087682728522325  0.2783042946708036  0.6339376239572873  1.0000
  H   H4        1.0  0.7814822628264293  0.47558791664869915  0.31116996508468736  1.0000
  H   H5        1.0  0.34205219711741813  0.8107932501245545  0.59017407050451  1.0000
  H   H6        1.0  0.30682135336671473  0.37559706709325263  0.6517234206078159  1.0000
  C   C1        1.0  0.5362025294573626  0.25888961193495424  0.4606189338092579  1.0000
  C   C2        1.0  0.5157463401800301  0.8736042812649245  0.41030388806782275  1.0000
  C   C3        1.0  0.10987662894447685  0.4012739785849321  0.7430557795753217  1.0000
  C   C4        1.0  0.4608345273595944  0.5491350330538154  0.6981772851225259  1.0000
  C   C5        1.0  0.028380030085720886  0.3783850672321521  0.8408253415825161  1.0000
  C   C6        1.0  0.8971475932390904  0.36069860687702265  0.8307887085869154  1.0000
  C   C7        1.0  0.8465891712049329  0.3660714660664723  0.7227930590651184  1.0000
  C   C8        1.0  0.9139972297680998  0.4168680887414027  0.6246555551032104  1.0000
  C   C9        1.0  0.0458776937383689  0.43901677748657164  0.6371894769132853  1.0000
  C   C10       1.0  0.033952028914654916  0.5511837060458475  0.46303283783974086  1.0000
  C   C11       1.0  0.9225995033939116  0.502110818892838  0.4367772840069009  1.0000
  C   C12       1.0  0.826963902675338  0.003270810980389234  0.21259924584099826  1.0000
  C   C13       1.0  0.5194516739902965  0.7334368955241004  0.42917721285514443  1.0000
  C   C14       1.0  0.43404822901800333  0.5023082850389289  0.27105512710178914  1.0000
  C   C15       1.0  0.4547480549665722  0.5604208603532683  0.8205607636328767  1.0000
  C   C16       1.0  0.4473634630748151  0.5502779218329649  0.9261755011471564  1.0000
  C   C17       1.0  0.43951872313702023  0.5345205354696957  0.0421188850724548  1.0000
  C   C18       1.0  0.4336957178026425  0.5168459461567922  0.14721604235818828  1.0000
  C   C19       1.0  0.7253094485726735  0.09196971871528349  0.2695335393922207  1.0000
  C   C20       1.0  0.29504557278054483  0.17234258300631922  0.5337727989149103  1.0000
  C   C21       1.0  0.813300916368341  0.3332164161350589  0.9391806458091668  1.0000
  C   C22       1.0  0.7339318659205889  0.3017320758288308  0.7192490451090238  1.0000
  C   C23       1.0  0.80480675703334  0.883138787521858  0.19227541965486242  1.0000
  C   C24       1.0  0.8805940085111317  0.5006624328577516  0.31719065487634884  1.0000
  C   C25       1.0  0.3267358454270449  0.9128456934187312  0.5686203782745098  1.0000
  C   C26       1.0  0.2586600530572199  0.3750855527051372  0.7401328535898771  1.0000
  C   C27       1.0  0.6892329113565197  0.8500058254013895  0.2434626440477388  1.0000
  C   C28       1.0  0.6092154493717956  0.9229202777436144  0.33309944376326683  1.0000
  C   C29       1.0  0.6217808884918128  0.05250598143125269  0.3430771726376278  1.0000
  C   C30       1.0  0.5248234328722107  0.13248992897868564  0.4202551526187221  1.0000
  C   C31       1.0  0.41703088860434423  0.08704073503414382  0.4739011328659332  1.0000
  C   C32       1.0  0.41946909609243477  0.955913702504141  0.4781380832871066  1.0000
  Br  Br1       1.0  0.7132956444103088  0.26067664524383366  0.2158186173982273  1.0000
  Br  Br2       1.0  0.9859336131624803  0.049020524437835875  0.1480780969290478  1.0000
  Br  Br3       1.0  0.919162685665235  0.780337097272998  0.08344475895362537  1.0000
  Br  Br4       1.0  0.6257381597510374  0.72214049991711  0.17864384746566495  1.0000
  Br  Br5       1.0  0.0683994346261585  0.6958339690709111  0.3805728646927451  1.0000
  Br  Br6       1.0  0.08926460569501415  0.3633061037502331  0.9908633473127467  1.0000
  N   N1        1.0  0.10269814569448944  0.509227713009686  0.5537446587258474  1.0000
  N   N2        1.0  0.8592423193613213  0.4433871817165881  0.5204057078388831  1.0000
  O   O1        1.0  0.6524212968294592  0.28355378067875847  0.4640616810034361  1.0000
  O   O2        1.0  0.7471851970024445  0.42254071267565513  0.992901155363221  1.0000
  O   O3        1.0  0.6809461210200781  0.2636083373554641  0.8091710448288156  1.0000
  O   O4        1.0  0.9529393467775195  0.5155328323383442  0.23130670192455943  1.0000
  O   O5        1.0  0.23787135840820647  0.9881002476716462  0.622360627918269  1.0000
  O   O6        1.0  0.3270846365538916  0.3440609487517249  0.8231915481335579  1.0000
  O   O7        1.0  0.4275626345062804  0.3327530268042764  0.49798222764351163  1.0000
  O   O8        1.0  0.5752867845861971  0.5036449466918854  0.647311543789563  1.0000
  O   O9        1.0  0.34886293453241984  0.5822059514636565  0.6496345177695277  1.0000
  O   O10       1.0  0.6330116687522463  0.6604255540850446  0.4497957622508296  1.0000
  O   O11       1.0  0.40716748473713676  0.7022365404058066  0.4316674898490406  1.0000
  O   O12       1.0  0.5458641542670578  0.49122662670873757  0.314877754979257  1.0000
  O   O13       1.0  0.3201829365686564  0.5045056704810661  0.3272617324992808  1.0000
  O   O14       1.0  0.196319040273572  0.2218932927198978  0.48084754613726943  1.0000
