data_image0
_chemical_formula_structural       Zr6H52C108N18O32
_chemical_formula_sum              "Zr6 H52 C108 N18 O32"
_cell_length_a       19.01604535797836
_cell_length_b       19.021738197704906
_cell_length_c       19.161658839833677
_cell_angle_alpha    91.02883724371543
_cell_angle_beta     91.44358471207697
_cell_angle_gamma    91.41415807896708

_space_group_name_H-M_alt    "P 1"
_space_group_IT_number       1

loop_
  _space_group_symop_operation_xyz
  'x, y, z'

loop_
  _atom_site_type_symbol
  _atom_site_label
  _atom_site_symmetry_multiplicity
  _atom_site_fract_x
  _atom_site_fract_y
  _atom_site_fract_z
  _atom_site_occupancy
  Zr  Zr1       1.0  0.8149617211963686  0.940349270511831  0.8559183893785517  1.0000
  Zr  Zr2       1.0  0.7641982196107052  0.8428616667713204  0.0024429564742690034  1.0000
  Zr  Zr3       1.0  0.9851322664583579  0.9662121593148001  0.9310416959110411  1.0000
  Zr  Zr4       1.0  0.9130094539679305  0.7940298732445684  0.907651684968201  1.0000
  Zr  Zr5       1.0  0.8364813879104036  0.013955241633773603  0.026360660446606208  1.0000
  Zr  Zr6       1.0  0.9354608809897229  0.8677366599362557  0.0770324580378983  1.0000
  H   H1        1.0  0.7705725322124694  0.7974463574310635  0.8606726843012071  1.0000
  H   H2        1.0  0.8840293296981159  0.0697114871331905  0.9016188267114131  1.0000
  H   H3        1.0  0.040930473938907114  0.8406964838190377  0.9779006836949407  1.0000
  H   H4        1.0  0.8084720664319036  0.9134269529841963  0.13027784670017442  1.0000
  H   H5        1.0  0.25626574761624005  0.7505261321192905  0.7415891184756731  1.0000
  H   H6        1.0  0.1928125474709148  0.9478853733706603  0.6569600777014202  1.0000
  H   H7        1.0  0.09309802547322478  0.9505614770454186  0.7402004131058393  1.0000
  H   H8        1.0  0.1478674844164942  0.7459066822319471  0.8132844571286739  1.0000
  H   H9        1.0  0.5527207162589393  0.8847759412729062  0.6409807867413946  1.0000
  H   H10       1.0  0.42031915245075174  0.8236507179557435  0.8091205185389896  1.0000
  H   H11       1.0  0.5242771513837639  0.8308875048793498  0.8926272414515424  1.0000
  H   H12       1.0  0.655818695224923  0.8946877842798103  0.7246128602697584  1.0000
  H   H13       1.0  0.19379459738726723  0.9385039439854098  0.29459736709502243  1.0000
  H   H14       1.0  0.325711567655425  0.9942831906519493  0.12422223269106071  1.0000
  H   H15       1.0  0.2210718971546726  0.9866174733890887  0.04158231495182461  1.0000
  H   H16       1.0  0.08987736463442533  0.9281056415121398  0.21161682454289382  1.0000
  H   H17       1.0  0.5555358859969459  0.8689365557429131  0.2756982911022519  1.0000
  H   H18       1.0  0.4877456661254129  0.061281255328395914  0.18354036652527134  1.0000
  H   H19       1.0  0.5943065076709219  0.06382728326715183  0.1093372679524265  1.0000
  H   H20       1.0  0.6535009981137634  0.8636190341785691  0.19064274824892644  1.0000
  H   H21       1.0  0.6621097496399813  0.2948805836281068  0.8188503133184497  1.0000
  H   H22       1.0  0.5506625958730212  0.21209505863456712  0.9930758726510903  1.0000
  H   H23       1.0  0.6309476474982105  0.10920940704492216  0.9953261836019537  1.0000
  H   H24       1.0  0.7326800234025583  0.18553261078977107  0.8123449650345479  1.0000
  H   H25       1.0  0.5492986343380225  0.5825831340916849  0.942160732521117  1.0000
  H   H26       1.0  0.7204055858931468  0.44829329046592653  0.8931149300888636  1.0000
  H   H27       1.0  0.8047439294848431  0.552129475404449  0.9006785152839357  1.0000
  H   H28       1.0  0.6336180528102419  0.6856203839093882  0.9521391423393126  1.0000
  H   H29       1.0  0.11894892104825057  0.11931311386354082  0.9920999157842019  1.0000
  H   H30       1.0  0.9479536907116995  0.2504712417117076  0.049385483068853396  1.0000
  H   H31       1.0  0.031623632899744805  0.35469225172176533  0.058301078863110006  1.0000
  H   H32       1.0  0.20287093548361668  0.22288524090416933  0.0034488637105525004  1.0000
  H   H33       1.0  0.0850207625105668  0.5114959843084963  0.12177116568388162  1.0000
  H   H34       1.0  0.19319852342789554  0.5904381176063395  0.9438209214702695  1.0000
  H   H35       1.0  0.11056255161228991  0.6909858978584538  0.9383874448564882  1.0000
  H   H36       1.0  0.0120078151727796  0.6193015995093277  0.12496897072205831  1.0000
  H   H37       1.0  0.7393091411926563  0.7006080697986761  0.36452716193401363  1.0000
  H   H38       1.0  0.9008165717683385  0.577139486975476  0.2732302333166956  1.0000
  H   H39       1.0  0.900130543933287  0.655490915903485  0.16933056117512282  1.0000
  H   H40       1.0  0.7298680429642276  0.7708742666016234  0.2558787324185303  1.0000
  H   H41       1.0  0.8058052698828604  0.750258531627246  0.5138443561673044  1.0000
  H   H42       1.0  0.8636940792899779  0.5793404189687339  0.6454636536128717  1.0000
  H   H43       1.0  0.8710163039389442  0.6621621979578196  0.7485206567538755  1.0000
  H   H44       1.0  0.81047606143661  0.8328668110845568  0.6176482134477013  1.0000
  H   H45       1.0  0.8902647808983702  0.14911602893575804  0.18121700445595934  1.0000
  H   H46       1.0  0.9580824688806686  0.9785922381522525  0.30863126401879987  1.0000
  H   H47       1.0  0.9658895379846798  0.06058855488762302  0.41277272123719655  1.0000
  H   H48       1.0  0.9012184812417916  0.2317420334954222  0.2846028332984503  1.0000
  H   H49       1.0  0.8788864325640093  0.23871722318759228  0.6626635825480066  1.0000
  H   H50       1.0  0.0037986828929277  0.08694692689238083  0.5566407938894288  1.0000
  H   H51       1.0  0.0059061215073867995  0.0125334710789033  0.6624930471596573  1.0000
  H   H52       1.0  0.8742413462296668  0.16098841881893125  0.7663222245335106  1.0000
  C   C1        1.0  0.9342781033153785  0.20495822708033978  0.536926369770832  1.0000
  C   C2        1.0  0.9317089998024031  0.19680136941967424  0.41797887174861614  1.0000
  C   C3        1.0  0.9077366877870717  0.30004970134972103  0.4726954181414982  1.0000
  C   C4        1.0  0.8310280994415109  0.6001893790005894  0.3929313641089323  1.0000
  C   C5        1.0  0.8361919382428554  0.6126077346410453  0.5114663897193666  1.0000
  C   C6        1.0  0.8622457209038359  0.5083715045623124  0.45959254796692056  1.0000
  C   C7        1.0  0.17926252082737187  0.4772592413781426  0.026232174939345005  1.0000
  C   C8        1.0  0.271233322368218  0.41096596409863656  0.9963110211509516  1.0000
  C   C9        1.0  0.16883382488194343  0.3578467260650342  0.027672422096550502  1.0000
  C   C10       1.0  0.5682793371135446  0.3279922160890081  0.9152098417176759  1.0000
  C   C11       1.0  0.4776829199941518  0.3955203210234686  0.9465664951849746  1.0000
  C   C12       1.0  0.581881462212081  0.4472425003327702  0.9186754038584513  1.0000
  C   C13       1.0  0.44829703690201944  0.9599057314699171  0.2706844569592946  1.0000
  C   C14       1.0  0.3818434155920869  0.9316458155392767  0.3627546315465153  1.0000
  C   C15       1.0  0.3289318721704007  0.9630066323813582  0.2606958392685286  1.0000
  C   C16       1.0  0.2987732998149469  0.8559682603043441  0.6599935788810996  1.0000
  C   C17       1.0  0.3664574523410736  0.8853669161087014  0.5691793933606776  1.0000
  C   C18       1.0  0.41805386493098234  0.8558140846013913  0.6725158636305296  1.0000
  C   C19       1.0  0.9304706619873144  0.031992065319919  0.779350800401609  1.0000
  C   C20       1.0  0.6593046356581738  0.8751066601850397  0.8613016484966921  1.0000
  C   C21       1.0  0.8509540325018321  0.7997503899114805  0.7522489491025155  1.0000
  C   C22       1.0  0.7398580413748235  0.08592849935269704  0.911989999852665  1.0000
  C   C23       1.0  0.8217303106794702  0.7699874184443303  0.14950317508794342  1.0000
  C   C24       1.0  0.08752322647409021  0.9407694928409641  0.07389735016052162  1.0000
  C   C25       1.0  0.7721187141741482  0.687624512506531  0.9396020906054829  1.0000
  C   C26       1.0  0.6852633547565716  0.956364245526231  0.09217736324003312  1.0000
  C   C27       1.0  0.9799868511535976  0.11773994769461642  0.002632098765708699  1.0000
  C   C28       1.0  0.05961659959055511  0.854120933979573  0.8350908111930837  1.0000
  C   C29       1.0  0.003811147992074393  0.7172216473299142  0.0229086331123156  1.0000
  C   C30       1.0  0.9076711517013792  0.010784316556915  0.17783336420210827  1.0000
  C   C31       1.0  0.21826120979247327  0.7924161735190796  0.7391108338857535  1.0000
  C   C32       1.0  0.23076481765221502  0.8494173632025691  0.6952768084566686  1.0000
  C   C33       1.0  0.18301582545280584  0.904341884685131  0.6919606055901752  1.0000
  C   C34       1.0  0.12701380240245902  0.9052602821674399  0.7372843130068674  1.0000
  C   C35       1.0  0.11499456337646312  0.8485326093947662  0.7816182510259823  1.0000
  C   C36       1.0  0.15881437743635024  0.7904873683758  0.7799235453519984  1.0000
  C   C37       1.0  0.5470733931897556  0.8728856948113806  0.6959965236534985  1.0000
  C   C38       1.0  0.48032242882447906  0.853893452718694  0.7201479418057632  1.0000
  C   C39       1.0  0.472535282367275  0.8379309867609096  0.791091277130633  1.0000
  C   C40       1.0  0.5301672510344702  0.8423013653048201  0.8374777250082985  1.0000
  C   C41       1.0  0.596190455016263  0.8639462495070663  0.8136700258840719  1.0000
  C   C42       1.0  0.6041646642399598  0.8783242151950151  0.7424595273511727  1.0000
  C   C43       1.0  0.1991487477335809  0.9491792555363933  0.2392814249320523  1.0000
  C   C44       1.0  0.2660174196198568  0.966339163098674  0.21412939491192876  1.0000
  C   C45       1.0  0.2734626823173087  0.9812166823394011  0.14292388229748101  1.0000
  C   C46       1.0  0.21548266250169956  0.9766294458310514  0.09706009056051812  1.0000
  C   C47       1.0  0.14959217764528893  0.9557456004079513  0.12173030186654901  1.0000
  C   C48       1.0  0.14166922087518694  0.9434513785705577  0.19329686753349054  1.0000
  C   C49       1.0  0.5639335877680907  0.9108417853811162  0.23848801053597415  1.0000
  C   C50       1.0  0.5154789854931181  0.9650317436719719  0.23375490497227963  1.0000
  C   C51       1.0  0.5263293418169185  0.0200093908698946  0.18704939460859293  1.0000
  C   C52       1.0  0.5847113594038478  0.0206814149089638  0.14482304714429972  1.0000
  C   C53       1.0  0.6292610254697238  0.9632011157503798  0.14486523138391053  1.0000
  C   C54       1.0  0.6189217755173076  0.9085023004162525  0.19200328893838767  1.0000
  C   C55       1.0  0.37685078683778533  0.914847376971878  0.43509618510131537  1.0000
  C   C56       1.0  0.3722801928717061  0.9019088160063475  0.4968317397708617  1.0000
  C   C57       1.0  0.6535268800368145  0.25231855010000714  0.855203701233471  1.0000
  C   C58       1.0  0.6027344743218563  0.2598555276312241  0.9064977673533933  1.0000
  C   C59       1.0  0.5911945052011944  0.2060574182589933  0.954315259500973  1.0000
  C   C60       1.0  0.6350452778019645  0.14861761280306504  0.9549072946992467  1.0000
  C   C61       1.0  0.6867220510948259  0.14194822235280216  0.9044322506670144  1.0000
  C   C62       1.0  0.6935461305105619  0.1921953117666035  0.8524091926476558  1.0000
  C   C63       1.0  0.6051483846520896  0.5765047473482527  0.9329923630265925  1.0000
  C   C64       1.0  0.6300167976461993  0.5093206814957583  0.9174205726937571  1.0000
  C   C65       1.0  0.7019854428587423  0.5008673549824324  0.9048118514164544  1.0000
  C   C66       1.0  0.7487576625223795  0.5583593002185979  0.9092826445925369  1.0000
  C   C67       1.0  0.7241871534352385  0.6248163122297542  0.927638105422176  1.0000
  C   C68       1.0  0.6519678999507191  0.6335196310684952  0.9384651537852593  1.0000
  C   C69       1.0  0.1006539831896944  0.17098999281805766  0.007460855516022502  1.0000
  C   C70       1.0  0.028514446507479405  0.1791453311739204  0.0189492711000412  1.0000
  C   C71       1.0  0.003860834673318398  0.24481341569978096  0.0399459740714718  1.0000
  C   C72       1.0  0.050266839745759705  0.30252393782542714  0.045216623189318704  1.0000
  C   C73       1.0  0.121944938957391  0.2949797619388406  0.030780175094591303  1.0000
  C   C74       1.0  0.14716585344744  0.22823595597903787  0.0137802764116088  1.0000
  C   C75       1.0  0.09231354196934662  0.5528763779131439  0.0838623671255405  1.0000
  C   C76       1.0  0.1429567671054599  0.54465904237982  0.032523003623907705  1.0000
  C   C77       1.0  0.15279202451304036  0.5968231954806598  0.9826451621924194  1.0000
  C   C78       1.0  0.10758338311979541  0.6531478024159868  0.9803832254594909  1.0000
  C   C79       1.0  0.0562240160584366  0.6606521777447086  0.031122107600161503  1.0000
  C   C80       1.0  0.050940106045366904  0.6121001297813464  0.08484434715583691  1.0000
  C   C81       1.0  0.3435509678325488  0.405969101223164  0.9782409738945788  1.0000
  C   C82       1.0  0.40531278075724947  0.40135696551702443  0.9641571200118905  1.0000
  C   C83       1.0  0.7721888371440216  0.6892330145598535  0.32018679664587785  1.0000
  C   C84       1.0  0.8208302394441916  0.6351230149448313  0.32537548185208465  1.0000
  C   C85       1.0  0.864066691316026  0.6200569285705273  0.2690605975457814  1.0000
  C   C86       1.0  0.8629314152245158  0.6630027314598905  0.2110329500520578  1.0000
  C   C87       1.0  0.8152058254049737  0.7178740272835712  0.2066304169409747  1.0000
  C   C88       1.0  0.7676555297281382  0.728863412075974  0.2600718943696378  1.0000
  C   C89       1.0  0.8189574739245631  0.7314450209621484  0.5657980277567491  1.0000
  C   C90       1.0  0.8346256744856576  0.6599537421109292  0.5734586139930258  1.0000
  C   C91       1.0  0.852082630727317  0.6347967618478307  0.6399272507492811  1.0000
  C   C92       1.0  0.8560495392167838  0.6807945612632551  0.6969995271109256  1.0000
  C   C93       1.0  0.8416808208423419  0.7525014224771597  0.6891830622308889  1.0000
  C   C94       1.0  0.8218451648802514  0.7773193006874309  0.6233326327877577  1.0000
  C   C95       1.0  0.9075891781140941  0.1305850639747632  0.23209935591736305  1.0000
  C   C96       1.0  0.9223844042349896  0.058932487806885106  0.2391727335360798  1.0000
  C   C97       1.0  0.9459791763215648  0.034061299816841  0.30379726591626627  1.0000
  C   C98       1.0  0.95066703524801  0.07961576801817931  0.3614544977698985  1.0000
  C   C99       1.0  0.933451479263887  0.15084726363753026  0.3549888270947719  1.0000
  C   C100      1.0  0.9136319497437526  0.1763809243179679  0.28929328002426763  1.0000
  C   C101      1.0  0.9064459089412296  0.18913763391927324  0.663202211105002  1.0000
  C   C102      1.0  0.9410308373150119  0.16697403866569968  0.6031619746688861  1.0000
  C   C103      1.0  0.9775517723009133  0.10364526170884863  0.6037413359980094  1.0000
  C   C104      1.0  0.9782198529157852  0.0620701361708313  0.6625670520091447  1.0000
  C   C105      1.0  0.9397710929714979  0.0819994689108015  0.7206417495577995  1.0000
  C   C106      1.0  0.904511551431739  0.14589792575490182  0.7210432877724742  1.0000
  C   C107      1.0  0.8790463062330504  0.4355027174251092  0.4649854609705529  1.0000
  C   C108      1.0  0.8919928965646023  0.37329102863616015  0.46885642372882336  1.0000
  N   N1        1.0  0.9456003817637892  0.16634082522058688  0.4791338476974332  1.0000
  N   N2        1.0  0.9135404362790067  0.26461605638737506  0.41157280373500543  1.0000
  N   N3        1.0  0.9147590667791332  0.27265517389415816  0.5369938477777225  1.0000
  N   N4        1.0  0.8192271873970186  0.6404223601794216  0.44960764950371873  1.0000
  N   N5        1.0  0.8565294026630427  0.5456338340358827  0.5195891456469398  1.0000
  N   N6        1.0  0.8536285428720946  0.5336309480681083  0.3945425199286063  1.0000
  N   N7        1.0  0.2448628862378257  0.47610138702161464  0.0013957097376930984  1.0000
  N   N8        1.0  0.2352956249777947  0.35020308215210605  0.006178758329340903  1.0000
  N   N9        1.0  0.1407301577633007  0.4201642212889425  0.04297931113377731  1.0000
  N   N10       1.0  0.5023168237885117  0.32988910099451374  0.9390296736170286  1.0000
  N   N11       1.0  0.5153001879669573  0.45577398581396267  0.9395059553180264  1.0000
  N   N12       1.0  0.6087093619881472  0.38479383886370044  0.9016034775400854  1.0000
  N   N13       1.0  0.446957843829118  0.9351499031477459  0.3360486369461029  1.0000
  N   N14       1.0  0.3211904276724624  0.9420575337914486  0.3270565694402237  1.0000
  N   N15       1.0  0.3914659099434914  0.9777194639026092  0.2325245667191851  1.0000
  N   N16       1.0  0.3008602081874656  0.8804687648141967  0.5945755742060754  1.0000
  N   N17       1.0  0.42663336629694026  0.8765928732085653  0.606196750130188  1.0000
  N   N18       1.0  0.3552399231516929  0.8396762847754645  0.6994853420552332  1.0000
  O   O1        1.0  0.9806092697811979  0.022162385561458102  0.8223970622663472  1.0000
  O   O2        1.0  0.6630063688331306  0.8493921425750064  0.921841241357548  1.0000
  O   O3        1.0  0.8246772191047002  0.8603203854283098  0.7556438331665234  1.0000
  O   O4        1.0  0.7527149888813938  0.0450362539838736  0.8613213797849255  1.0000
  O   O5        1.0  0.7701412642878651  0.08633712537620401  0.9728433731797567  1.0000
  O   O6        1.0  0.887175859513363  0.7716053506153812  0.8017276250258263  1.0000
  O   O7        1.0  0.7085304927398823  0.9122201893807116  0.8334967557379969  1.0000
  O   O8        1.0  0.8687430016307192  0.0030315004161068  0.780115776793771  1.0000
  O   O9        1.0  0.7876752469235697  0.9393496524155794  0.9602326952164121  1.0000
  O   O10       1.0  0.9116940685891564  0.8993580776121989  0.8806952656132767  1.0000
  O   O11       1.0  0.8001158258331955  0.8277047592318993  0.8909732216858404  1.0000
  O   O12       1.0  0.8811639130359625  0.02203839802107411  0.9185728188138499  1.0000
  O   O13       1.0  0.7704456054175354  0.7813305283396375  0.10827732653849151  1.0000
  O   O14       1.0  0.08325787525802039  0.9659769814480086  0.013109681605257604  1.0000
  O   O15       1.0  0.8332240471073222  0.6917990223251139  0.9148436704364613  1.0000
  O   O16       1.0  0.7264159164903675  0.007933993214742002  0.08031441261589121  1.0000
  O   O17       1.0  0.9184455876892414  0.11324256206869877  0.026498635037427207  1.0000
  O   O18       1.0  0.0193653337444601  0.8019877446008579  0.8474097741222196  1.0000
  O   O19       1.0  0.9915843285799397  0.7587827878995129  0.0732421596045043  1.0000
  O   O20       1.0  0.9333206968157909  0.9498957295990851  0.1739705948981936  1.0000
  O   O21       1.0  0.9751047422237846  0.7184084377238167  0.961373955688167  1.0000
  O   O22       1.0  0.8659706791473455  0.037143738115766205  0.1317314179174289  1.0000
  O   O23       1.0  0.7437753737626593  0.7361494780934664  0.9765638872865097  1.0000
  O   O24       1.0  0.05925575279702851  0.9146863132000221  0.8662272442945709  1.0000
  O   O25       1.0  0.0070326830516265005  0.07219720331401903  0.9612429559110325  1.0000
  O   O26       1.0  0.6869992447597612  0.8949514395959072  0.062978379339576  1.0000
  O   O27       1.0  0.8826250804626317  0.8010183391640312  0.14953282886171596  1.0000
  O   O28       1.0  0.04121248418599781  0.8993798034246014  0.10061000338971841  1.0000
  O   O29       1.0  0.9305011027777113  0.9611016410789903  0.023150358047047296  1.0000
  O   O30       1.0  0.869944998386522  0.8174784205890832  0.0028220967444453912  1.0000
  O   O31       1.0  0.9931360983129665  0.8572110669211384  0.9749057877268258  1.0000
  O   O32       1.0  0.8257688171168241  0.9104475149786423  0.08317094514013232  1.0000
