data_image0
_chemical_formula_structural       Nd4H12C16O36
_chemical_formula_sum              "Nd4 H12 C16 O36"
_cell_length_a       10.352085596035746
_cell_length_b       10.634287083460759
_cell_length_c       11.950674273306342
_cell_angle_alpha    89.99933293909385
_cell_angle_beta     109.0418245699515
_cell_angle_gamma    90.0009130091108

_space_group_name_H-M_alt    "P 1"
_space_group_IT_number       1

loop_
  _space_group_symop_operation_xyz
  'x, y, z'

loop_
  _atom_site_type_symbol
  _atom_site_label
  _atom_site_symmetry_multiplicity
  _atom_site_fract_x
  _atom_site_fract_y
  _atom_site_fract_z
  _atom_site_occupancy
  Nd  Nd1       1.0  0.197300655157612  0.39321598085572873  0.3755582839093351  1.0000
  Nd  Nd2       1.0  0.30268760341521533  0.8932160145066276  0.12445213917607134  1.0000
  Nd  Nd3       1.0  0.8027121248168498  0.606791280880671  0.6244512041318446  1.0000
  Nd  Nd4       1.0  0.697272361711768  0.10678560477899168  0.8755472952376738  1.0000
  H   H1        1.0  0.9931876330318943  0.2571304372863494  0.12265001844998842  1.0000
  H   H2        1.0  0.5067987752551062  0.7571457604665639  0.37735943304676317  1.0000
  H   H3        1.0  0.006809151548615911  0.7428627190207422  0.877358691518417  1.0000
  H   H4        1.0  0.4932028811018654  0.24286432231593838  0.6226393565016155  1.0000
  H   H5        1.0  0.9448614042703483  0.38130079418219504  0.17122108521706292  1.0000
  H   H6        1.0  0.5551267107717164  0.8813089289129649  0.3287773617477044  1.0000
  H   H7        1.0  0.055155609342463725  0.6187064676244277  0.8287817124717096  1.0000
  H   H8        1.0  0.4448660892941376  0.1186879889966832  0.6711952294259691  1.0000
  H   H9        1.0  0.1096446788273013  0.4410095396081815  0.10197152773081096  1.0000
  H   H10       1.0  0.3903506467909708  0.9410151356369244  0.39803314030276493  1.0000
  H   H11       1.0  0.8903764994576092  0.5589742133554197  0.8980329695227812  1.0000
  H   H12       1.0  0.609666841144431  0.058988364729629  0.6019739572544653  1.0000
  C   C1        1.0  0.9378454025294902  0.46832137192529194  0.45227214925005665  1.0000
  C   C2        1.0  0.5621316458422142  0.9683188229678947  0.0477399318122878  1.0000
  C   C3        1.0  0.062172464830759104  0.5316746055874828  0.5477383882181999  1.0000
  C   C4        1.0  0.4378333118974068  0.031684677061861094  0.9522596920101168  1.0000
  C   C5        1.0  0.5165527820201561  0.4478396523081543  0.5477576389238055  1.0000
  C   C6        1.0  0.9834565314082295  0.9478374949801491  0.9522466903293323  1.0000
  C   C7        1.0  0.48348945309916763  0.5521647886515809  0.45223943596175814  1.0000
  C   C8        1.0  0.016513160389934  0.0521650646889  0.04775979280245221  1.0000
  C   C9        1.0  0.34822140061884  0.15182288410468914  0.29801231450026233  1.0000
  C   C10       1.0  0.15175599253351632  0.6518254548944569  0.20199665899465913  1.0000
  C   C11       1.0  0.6517731852001205  0.8481552264720378  0.7020035056293212  1.0000
  C   C12       1.0  0.8482344025780151  0.3481818067068829  0.7980082117462859  1.0000
  C   C13       1.0  0.295179392418433  0.09978081374575959  0.39713746706184605  1.0000
  C   C14       1.0  0.2048139367372883  0.5997768617726891  0.10286103976112324  1.0000
  C   C15       1.0  0.7048414753109781  0.9002208060214797  0.6028552004109289  1.0000
  C   C16       1.0  0.7951869866115047  0.4002162946090166  0.8971401198838935  1.0000
  O   O1        1.0  0.8200472031457197  0.4942018732304305  0.4560139367711786  1.0000
  O   O2        1.0  0.679958189549218  0.994205779035667  0.04398103487259421  1.0000
  O   O3        1.0  0.1799725094411997  0.5057912832398159  0.5439953005198463  1.0000
  O   O4        1.0  0.3200149769268492  0.005796780738734201  0.9560118781389452  1.0000
  O   O5        1.0  0.9652458391982108  0.396204336086541  0.3786500724408486  1.0000
  O   O6        1.0  0.5347468498557646  0.8962193273010045  0.1213516865249531  1.0000
  O   O7        1.0  0.034780737318691024  0.603789760739936  0.6213673038783372  1.0000
  O   O8        1.0  0.4652153139566337  0.10378699381519141  0.878640637764875  1.0000
  O   O9        1.0  0.6301175571576323  0.4528116507185799  0.6289424962710373  1.0000
  O   O10       1.0  0.8698711690074603  0.9528247913108461  0.8710457698361797  1.0000
  O   O11       1.0  0.3699050608038092  0.5471702216290382  0.3710480111145175  1.0000
  O   O12       1.0  0.1300910636604442  0.0471899930461461  0.12893816459063606  1.0000
  O   O13       1.0  0.426188857402785  0.36324665147633795  0.5364134995416736  1.0000
  O   O14       1.0  0.0737923187395921  0.8632572259176572  0.9635853547074194  1.0000
  O   O15       1.0  0.5738312085806001  0.6367455646762676  0.4635899278331694  1.0000
  O   O16       1.0  0.926151935735099  0.13674815466150386  0.036415881482113825  1.0000
  O   O17       1.0  0.32995139311884  0.26774600919807773  0.2788957614112207  1.0000
  O   O18       1.0  0.17003226739109317  0.7677533210953841  0.22109062663807327  1.0000
  O   O19       1.0  0.6700863237173706  0.7322537299319832  0.7211054239307588  1.0000
  O   O20       1.0  0.8299405883702845  0.23224547732852596  0.7788904566705741  1.0000
  O   O21       1.0  0.4030936257381157  0.07425091425542259  0.24752039880107202  1.0000
  O   O22       1.0  0.0968928690952779  0.5742248225693842  0.2524828427284263  1.0000
  O   O23       1.0  0.5968796097872371  0.9257864386865293  0.7524641242525834  1.0000
  O   O24       1.0  0.9031184448697473  0.4257495267199403  0.7475313855026543  1.0000
  O   O25       1.0  0.22172252033877268  0.1666439573966443  0.4364676960419801  1.0000
  O   O26       1.0  0.2782657830542021  0.6666565810487768  0.06352992960637494  1.0000
  O   O27       1.0  0.7782941137038364  0.8333510798186836  0.5635316618069199  1.0000
  O   O28       1.0  0.721727517556431  0.3333563228114258  0.9364562111680999  1.0000
  O   O29       1.0  0.3315644406029463  0.986235177984973  0.4387003731986071  1.0000
  O   O30       1.0  0.16842617850399927  0.486221511402654  0.06130033970476491  1.0000
  O   O31       1.0  0.668450063782778  0.013787129503754198  0.5612977048264869  1.0000
  O   O32       1.0  0.8315928699025645  0.5137594204894853  0.9387028778334428  1.0000
  O   O33       1.0  0.026367817587591  0.339549013432098  0.16471351537074244  1.0000
  O   O34       1.0  0.4736258509234402  0.8395584390782318  0.3352994136447763  1.0000
  O   O35       1.0  0.973650144628877  0.6604450833672217  0.8352978820752741  1.0000
  O   O36       1.0  0.526369890148743  0.1604431804679152  0.66469983661235  1.0000
