data_image0
_chemical_formula_structural       Hg4H32C24S8N24
_chemical_formula_sum              "Hg4 H32 C24 S8 N24"
_cell_length_a       8.41966473100223
_cell_length_b       10.062035353013366
_cell_length_c       12.923282268020362
_cell_angle_alpha    89.99981382486173
_cell_angle_beta     90.00008335404148
_cell_angle_gamma    90.00000085153566

_space_group_name_H-M_alt    "P 1"
_space_group_IT_number       1

loop_
  _space_group_symop_operation_xyz
  'x, y, z'

loop_
  _atom_site_type_symbol
  _atom_site_label
  _atom_site_symmetry_multiplicity
  _atom_site_fract_x
  _atom_site_fract_y
  _atom_site_fract_z
  _atom_site_occupancy
  Hg  Hg1       1.0  0.7499995450878812  0.5699353466279434  0.5000026398136939  1.0000
  Hg  Hg2       1.0  0.2499991977979832  0.9300642232358528  0.999999536568339  1.0000
  Hg  Hg3       1.0  0.24999745004598137  0.4300660261482747  0.5000010326247804  1.0000
  Hg  Hg4       1.0  0.7499977254740385  0.0699350695553349  0.9999985437949378  1.0000
  H   H1        1.0  0.8584028128891957  0.0047794921747482  0.4138906100622179  1.0000
  H   H2        1.0  0.1415969212453376  0.4952189802389455  0.9138903338325407  1.0000
  H   H3        1.0  0.3584039178788743  0.4952197102347213  0.0861084708682256  1.0000
  H   H4        1.0  0.6415974601415613  0.0047841010905998  0.5861075921869627  1.0000
  H   H5        1.0  0.1415965576326954  0.995218899103797  0.5861099671922574  1.0000
  H   H6        1.0  0.8584024492748269  0.504780404877529  0.08610869582621919  1.0000
  H   H7        1.0  0.6415954526412974  0.5047816625511742  0.9138905587880046  1.0000
  H   H8        1.0  0.3584019103786246  0.995219259364717  0.41389143746674506  1.0000
  H   H9        1.0  0.637003142114473  0.11026532845927758  0.3071024847171486  1.0000
  H   H10       1.0  0.3629951660087584  0.38973458202440275  0.807103459978933  1.0000
  H   H11       1.0  0.1370044845205527  0.3897338697667506  0.1928979338399799  1.0000
  H   H12       1.0  0.8629947564282503  0.11026651581108382  0.6928969974008652  1.0000
  H   H13       1.0  0.36299622840742524  0.8897340566539782  0.692898092536069  1.0000
  H   H14       1.0  0.637003016818248  0.610264803087233  0.19289789107094177  1.0000
  H   H15       1.0  0.86299607369709  0.6102655153465122  0.8071026434137991  1.0000
  H   H16       1.0  0.13700223870042552  0.8897338631400803  0.3071020322555071  1.0000
  H   H17       1.0  0.6777137271719694  0.26954435353449924  0.2508441482029156  1.0000
  H   H18       1.0  0.3222856430950785  0.23045678482066728  0.7508439415195768  1.0000
  H   H19       1.0  0.17771281837516278  0.23045683312958698  0.2491563089591509  1.0000
  H   H20       1.0  0.8222853604289638  0.2695433184130849  0.7491557034567934  1.0000
  H   H21       1.0  0.3222880187422915  0.7304560254118825  0.7491572028473924  1.0000
  H   H22       1.0  0.6777137274259529  0.7695426002942014  0.2491558619364085  1.0000
  H   H23       1.0  0.8222877398416201  0.7695435458199996  0.750843494496138  1.0000
  H   H24       1.0  0.1777116347005716  0.7304560667017623  0.2508440999980621  1.0000
  H   H25       1.0  0.5855938080239226  0.26034516041887906  0.3749588702288804  1.0000
  H   H26       1.0  0.41440702692417364  0.23965347394872089  0.874959501361971  1.0000
  H   H27       1.0  0.0855926223213004  0.2396550306711873  0.1250414995709264  1.0000
  H   H28       1.0  0.9144076548898781  0.2603466310227702  0.6250410047768327  1.0000
  H   H29       1.0  0.41440675019372714  0.7396552185291015  0.6250417070236338  1.0000
  H   H30       1.0  0.585593531293469  0.760345911164549  0.1250410758918079  1.0000
  H   H31       1.0  0.914406748200598  0.7603453482767861  0.8749590776810265  1.0000
  H   H32       1.0  0.08559290332777178  0.7396537479252103  0.37495957247568157  1.0000
  C   C1        1.0  0.9267285441158465  0.3196403010257072  0.38601342394601806  1.0000
  C   C2        1.0  0.073273503194585  0.1803582873618268  0.8860107868646095  1.0000
  C   C3        1.0  0.4267249578430707  0.18035790883904923  0.11398572178125481  1.0000
  C   C4        1.0  0.5732741070014596  0.31964280500829284  0.6139870743618516  1.0000
  C   C5        1.0  0.073274389494145  0.6803570964165501  0.6139879271086315  1.0000
  C   C6        1.0  0.9267258673212666  0.8196410977626982  0.11398437380800891  1.0000
  C   C7        1.0  0.5732744126762411  0.8196424701137417  0.8860125340790148  1.0000
  C   C8        1.0  0.42672645121791664  0.6803585677711793  0.3860150504838558  1.0000
  C   C9        1.0  0.907117338634194  0.10460323902527341  0.41077287744976587  1.0000
  C   C10       1.0  0.0928812008470388  0.3953942525230191  0.9107728083797255  1.0000
  C   C11       1.0  0.40711844972980055  0.39539596430075347  0.08922779727433289  1.0000
  C   C12       1.0  0.5928841229465006  0.10460286487688109  0.5892258452453802  1.0000
  C   C13       1.0  0.0928820318894239  0.8953951522500533  0.5892292473991603  1.0000
  C   C14       1.0  0.9071157942833421  0.6046001634166629  0.08922776887867198  1.0000
  C   C15       1.0  0.592880920791231  0.6046044146488257  0.9107720061803947  1.0000
  C   C16       1.0  0.4071164352685627  0.8953995017453453  0.4107724106129282  1.0000
  C   C17       1.0  0.67210669607433  0.21302084755145492  0.32322907899885683  1.0000
  C   C18       1.0  0.3278940234283283  0.2869780020137611  0.8232287341768156  1.0000
  C   C19       1.0  0.17210562622170042  0.28697835133573335  0.17677214664536217  1.0000
  C   C20       1.0  0.827894766434916  0.21302110749117986  0.6767709161200983  1.0000
  C   C21       1.0  0.3278950498407909  0.7869785375586104  0.6767730458499344  1.0000
  C   C22       1.0  0.6721065347884476  0.7130203892664043  0.1767710692809956  1.0000
  C   C23       1.0  0.827893744299331  0.7130210337791353  0.8232276568106229  1.0000
  C   C24       1.0  0.1721057917818669  0.7869782776236959  0.3232288873364553  1.0000
  S   S1        1.0  0.8895346194236494  0.47980380574831827  0.34538497958355663  1.0000
  S   S2        1.0  0.1104661495209669  0.0201969393233767  0.8453820104787937  1.0000
  S   S3        1.0  0.38953349784500085  0.020196391078805196  0.1546164522605977  1.0000
  S   S4        1.0  0.6104656576756327  0.47980315990781713  0.654618981209559  1.0000
  S   S5        1.0  0.11046831418894949  0.5201965731932462  0.6546186928589961  1.0000
  S   S6        1.0  0.8895344086923557  0.9798024457979435  0.1546146977888441  1.0000
  S   S7        1.0  0.6104682480640733  0.9798029940425225  0.8453802560076014  1.0000
  S   S8        1.0  0.38953490054633017  0.5201972190321129  0.34538546502909634  1.0000
  N   N1        1.0  0.05855982279607729  0.2753300752243105  0.43264905366078205  1.0000
  N   N2        1.0  0.9414399532003157  0.22466633148678747  0.9326479012581004  1.0000
  N   N3        1.0  0.5585591340152546  0.22466812768752217  0.0673505167064476  1.0000
  N   N4        1.0  0.441441014449282  0.2753347678330372  0.5673510829223005  1.0000
  N   N5        1.0  0.9414419231181625  0.7246663283832291  0.5673522973945708  1.0000
  N   N6        1.0  0.05855822962323029  0.7753310659618649  0.067350354605388  1.0000
  N   N7        1.0  0.44144142420066856  0.7753332450983877  0.9326485129503509  1.0000
  N   N8        1.0  0.5585595437692491  0.7246695864521796  0.4326502681224014  1.0000
  N   N9        1.0  0.0465474850940026  0.1407827112937099  0.448482657595271  1.0000
  N   N10       1.0  0.9534535139333116  0.35921362955040353  0.9484811750967452  1.0000
  N   N11       1.0  0.5465467621299281  0.35921648522280947  0.05151844897304159  1.0000
  N   N12       1.0  0.45345097560793585  0.14078647616472753  0.5515162728819972  1.0000
  N   N13       1.0  0.9534530731253527  0.8592146861469203  0.5515194672554813  1.0000
  N   N14       1.0  0.0465482319783419  0.640782774061968  0.0515178545669173  1.0000
  N   N15       1.0  0.4534526083911103  0.6407848875614803  0.9484813544804211  1.0000
  N   N16       1.0  0.5465483949105233  0.8592178781285253  0.4484812091759949  1.0000
  N   N17       1.0  0.8285595347845954  0.21173472768339963  0.3709353015397028  1.0000
  N   N18       1.0  0.1714412911820702  0.28826491726088216  0.8709340312806972  1.0000
  N   N19       1.0  0.32855717078061986  0.2882644741609539  0.1290645248839795  1.0000
  N   N20       1.0  0.6714431154085431  0.21173717079746268  0.6290639230440576  1.0000
  N   N21       1.0  0.17144339882541  0.7882646574282789  0.6290660495124244  1.0000
  N   N22       1.0  0.8285568916414903  0.7117354616919088  0.129064224579011  1.0000
  N   N23       1.0  0.6714421997395518  0.7117359047902312  0.8709345047735154  1.0000
  N   N24       1.0  0.32855863050399137  0.7882642019868485  0.3709358804105278  1.0000
