data_image0
_chemical_formula_structural       Cu4H32C24I4N8O4
_chemical_formula_sum              "Cu4 H32 C24 I4 N8 O4"
_cell_length_a       7.614324645198585
_cell_length_b       8.039658543630532
_cell_length_c       15.361857212016115
_cell_angle_alpha    89.99986483673344
_cell_angle_beta     90.00014699673763
_cell_angle_gamma    112.19107511995288

_space_group_name_H-M_alt    "P 1"
_space_group_IT_number       1

loop_
  _space_group_symop_operation_xyz
  'x, y, z'

loop_
  _atom_site_type_symbol
  _atom_site_label
  _atom_site_symmetry_multiplicity
  _atom_site_fract_x
  _atom_site_fract_y
  _atom_site_fract_z
  _atom_site_occupancy
  Cu  Cu1       1.0  0.6625349642974997  0.48641953107657093  0.5377502097334954  1.0000
  Cu  Cu2       1.0  0.662545457432806  0.9864185200912698  0.9622480463961909  1.0000
  Cu  Cu3       1.0  0.33745370511186923  0.5135733809701718  0.46224608862780775  1.0000
  Cu  Cu4       1.0  0.33746190076492166  0.0135784717391445  0.03775411064137301  1.0000
  H   H1        1.0  0.22892675009513402  0.0460305136094377  0.4839787110292875  1.0000
  H   H2        1.0  0.22893582059295878  0.5460348861880391  0.0160232582969329  1.0000
  H   H3        1.0  0.7710582257162673  0.9539597041073121  0.5160227950349636  1.0000
  H   H4        1.0  0.7710744785088579  0.45397284845114416  0.9839795496987379  1.0000
  H   H5        1.0  0.3475355227924267  0.9236654054090323  0.5395763300052325  1.0000
  H   H6        1.0  0.3475434853984396  0.4236678632759946  0.9604209425632818  1.0000
  H   H7        1.0  0.6524536785868449  0.07632884996581879  0.4604212702814863  1.0000
  H   H8        1.0  0.6524620561494459  0.5763344903898541  0.03957600676605472  1.0000
  H   H9        1.0  0.27236522767319116  0.002900468733216099  0.6809373738048948  1.0000
  H   H10       1.0  0.2723594262463251  0.5029065563319078  0.8190629353239274  1.0000
  H   H11       1.0  0.7276405647825896  0.9970992020984469  0.3190628303410891  1.0000
  H   H12       1.0  0.7276321840733431  0.49709709851865114  0.1809372688102684  1.0000
  H   H13       1.0  0.3228213857575  0.20364907153675202  0.6184363736995167  1.0000
  H   H14       1.0  0.3228189544381621  0.7036496110124872  0.881564399021407  1.0000
  H   H15       1.0  0.6771830918567757  0.7963505954679276  0.3815612265937745  1.0000
  H   H16       1.0  0.6771781661293234  0.2963513763326304  0.11843580511807521  1.0000
  H   H17       1.0  0.11708773323569938  0.30036613769986076  0.7045012927066524  1.0000
  H   H18       1.0  0.11709207945425243  0.8003683014781442  0.7954919284242339  1.0000
  H   H19       1.0  0.8829188722445451  0.6996389026281448  0.2954943546957693  1.0000
  H   H20       1.0  0.8829084536417328  0.19963135404062626  0.2045011151257867  1.0000
  H   H21       1.0  0.07337010154049038  0.11045190540579598  0.7741602790585065  1.0000
  H   H22       1.0  0.07337596828687498  0.6104422102588457  0.7258389832605445  1.0000
  H   H23       1.0  0.9266341855051792  0.889563862401239  0.22583992507632902  1.0000
  H   H24       1.0  0.9266213428554338  0.389542676278971  0.27416187185217217  1.0000
  H   H25       1.0  0.726644605593023  0.990058045388224  0.7239403117820019  1.0000
  H   H26       1.0  0.7266484215928061  0.49005568692756185  0.7760599764496093  1.0000
  H   H27       1.0  0.2733612471995599  0.0099550434136049  0.2760644490962534  1.0000
  H   H28       1.0  0.2733520813527975  0.5099372595917657  0.22394022769714897  1.0000
  H   H29       1.0  0.7981575957492524  0.18242610816151478  0.791378677608563  1.0000
  H   H30       1.0  0.7981562905945411  0.6824151029160461  0.7086149317371806  1.0000
  H   H31       1.0  0.20185486138009887  0.8175937087915132  0.20862087556609776  1.0000
  H   H32       1.0  0.2018378890651178  0.3175751416232728  0.29138266855532186  1.0000
  C   C1        1.0  0.053861652915969685  0.8000167474734141  0.5343730691527354  1.0000
  C   C2        1.0  0.053858022606505095  0.3000097632083722  0.9656291832478561  1.0000
  C   C3        1.0  0.9461312420823944  0.19998020221459709  0.4656303898013121  1.0000
  C   C4        1.0  0.946141978541938  0.6999885489644626  0.034374275709979  1.0000
  C   C5        1.0  0.2230627155801485  0.961700457146854  0.5412296705580245  1.0000
  C   C6        1.0  0.22307017007113936  0.4617082857010005  0.9587680422523377  1.0000
  C   C7        1.0  0.7769269876049805  0.038288432567561884  0.458769231658323  1.0000
  C   C8        1.0  0.7769332737748301  0.5382954036300731  0.041230859963654616  1.0000
  C   C9        1.0  0.2240219316469307  0.06292780307497028  0.6257922793303621  1.0000
  C   C10       1.0  0.22401950240423923  0.5629350739175506  0.8742072398876104  1.0000
  C   C11       1.0  0.7759809500663196  0.9370678339384566  0.3742059719273882  1.0000
  C   C12       1.0  0.7759731718490386  0.43707126759417747  0.1257923132826235  1.0000
  C   C13       1.0  0.025272520112800078  0.15775451974882057  0.7145294070350092  1.0000
  C   C14       1.0  0.02527523215157854  0.6577526840339728  0.7854690817439831  1.0000
  C   C15       1.0  0.9747328007061495  0.8422572257278701  0.28547209902895804  1.0000
  C   C16       1.0  0.9747231730896289  0.34224159815256167  0.2145317733635252  1.0000
  C   C17       1.0  0.8183720743594096  0.1337744605916527  0.726508960900901  1.0000
  C   C18       1.0  0.8183731749151093  0.6337753403217476  0.7734860381867678  1.0000
  C   C19       1.0  0.18163982064095308  0.8662373040407657  0.2734918942043905  1.0000
  C   C20       1.0  0.1816268262233933  0.3662229718590169  0.22651221306740874  1.0000
  C   C21       1.0  0.749303314647463  0.22662442776560698  0.6625270100241352  1.0000
  C   C22       1.0  0.749304438755857  0.7266345046781593  0.8374710364088005  1.0000
  C   C23       1.0  0.2506985634615333  0.77338194056275  0.33747254315210284  1.0000
  C   C24       1.0  0.2506900823175329  0.2733731839817252  0.16253697928024025  1.0000
  I   I1        1.0  0.5519041192850979  0.36252753458052916  0.3803070128217456  1.0000
  I   I2        1.0  0.5519075132170742  0.862526206986452  0.11969107353768041  1.0000
  I   I3        1.0  0.4480956309479893  0.6374734604324245  0.6196892855417033  1.0000
  I   I4        1.0  0.44809959408021177  0.1374734676722014  0.8803117344609817  1.0000
  N   N1        1.0  0.9111729067973898  0.6767026280872626  0.5301417971420079  1.0000
  N   N2        1.0  0.9111819693664814  0.17670774390934696  0.9698591277564859  1.0000
  N   N3        1.0  0.08881839229373868  0.32329029161444817  0.4698590579617132  1.0000
  N   N4        1.0  0.08882435506045268  0.8232932702494365  0.030143029277866207  1.0000
  N   N5        1.0  0.6928509634268708  0.30465494278829647  0.6130133794330561  1.0000
  N   N6        1.0  0.6928698410833575  0.8046528442457583  0.8869792870462518  1.0000
  N   N7        1.0  0.30713773615027407  0.6953446782440194  0.38698487181290636  1.0000
  N   N8        1.0  0.3071424652170336  0.1953334277714802  0.1130157094087778  1.0000
  O   O1        1.0  0.0355481637683042  0.0535175205610159  0.6412596929034535  1.0000
  O   O2        1.0  0.03555224965910495  0.5535248576050263  0.8587428466239615  1.0000
  O   O3        1.0  0.9644478928705452  0.9464807801189747  0.3587437660518163  1.0000
  O   O4        1.0  0.9644483136195703  0.4464815068874302  0.1412599613662024  1.0000
