data_image0
_chemical_formula_structural       Hg4H36C32I8N4O8
_chemical_formula_sum              "Hg4 H36 C32 I8 N4 O8"
_cell_length_a       4.288699133594588
_cell_length_b       12.263906316879913
_cell_length_c       24.407186522251234
_cell_angle_alpha    89.99990921361332
_cell_angle_beta     89.99939417707166
_cell_angle_gamma    93.59654708855871

_space_group_name_H-M_alt    "P 1"
_space_group_IT_number       1

loop_
  _space_group_symop_operation_xyz
  'x, y, z'

loop_
  _atom_site_type_symbol
  _atom_site_label
  _atom_site_symmetry_multiplicity
  _atom_site_fract_x
  _atom_site_fract_y
  _atom_site_fract_z
  _atom_site_occupancy
  Hg  Hg1       1.0  0.8256151619726425  0.9474586633511134  0.9101597180011467  1.0000
  Hg  Hg2       1.0  0.6743570854018941  0.5525377127237832  0.4101605995505508  1.0000
  Hg  Hg3       1.0  0.174386507592672  0.0525542994240951  0.08984586710862169  1.0000
  Hg  Hg4       1.0  0.3256437443269818  0.4474532026662601  0.5898404787005803  1.0000
  H   H1        1.0  0.5069029522257082  0.8896120778216453  0.7883725970695891  1.0000
  H   H2        1.0  0.9929948942722006  0.6103754435175616  0.2883694615711434  1.0000
  H   H3        1.0  0.4930409713192392  0.11040471552026788  0.2116272520853357  1.0000
  H   H4        1.0  0.0070137410532850695  0.38960489223938305  0.7116287486684953  1.0000
  H   H5        1.0  0.35610542760550606  0.7364345294394923  0.7244633722567784  1.0000
  H   H6        1.0  0.14386907733902624  0.763549488988019  0.2244624938387787  1.0000
  H   H7        1.0  0.643853536496458  0.2635733486520735  0.2755397546089924  1.0000
  H   H8        1.0  0.8561287139108416  0.23643651455866171  0.7755365358408426  1.0000
  H   H9        1.0  0.5062877605074548  0.546384448255786  0.748996232559513  1.0000
  H   H10       1.0  0.9937405508478676  0.9536046035590783  0.24899361096123582  1.0000
  H   H11       1.0  0.4937186933557527  0.45362935180519764  0.2510068942523702  1.0000
  H   H12       1.0  0.006221652526342299  0.04637716275203731  0.7510029604663302  1.0000
  H   H13       1.0  0.9524535412344761  0.6851300403736359  0.8939615992298471  1.0000
  H   H14       1.0  0.5475796308660108  0.8148789075622174  0.39396620962246237  1.0000
  H   H15       1.0  0.047566577492560186  0.31489769862422884  0.1060378401225748  1.0000
  H   H16       1.0  0.45241627987584115  0.18509402483472567  0.6060340492111536  1.0000
  H   H17       1.0  0.2626703347063781  0.35200978541404015  0.8646723477954339  1.0000
  H   H18       1.0  0.23734959432972147  0.1479901242338855  0.3646685019551228  1.0000
  H   H19       1.0  0.7373629614174958  0.6480122959588073  0.1353275012606545  1.0000
  H   H20       1.0  0.762655432037633  0.8519975437075827  0.6353305277159507  1.0000
  H   H21       1.0  0.9117372647377379  0.3233545460420757  0.9022335474876613  1.0000
  H   H22       1.0  0.5882751373873704  0.17665008157216988  0.4022332758565597  1.0000
  H   H23       1.0  0.08829264042249459  0.6766601726553175  0.097760155844469  1.0000
  H   H24       1.0  0.4117275556482909  0.8233375762037838  0.5977649343862552  1.0000
  H   H25       1.0  0.49525467803315587  0.45616162386861697  0.9466106221481354  1.0000
  H   H26       1.0  0.004747414691202299  0.04384035445080769  0.44660859993519614  1.0000
  H   H27       1.0  0.5047578356077694  0.5438456711168556  0.05339414352165759  1.0000
  H   H28       1.0  0.9952470026077548  0.9561546151698007  0.5533932977518461  1.0000
  H   H29       1.0  0.3867315518060224  0.3173724585982994  0.9629436951827799  1.0000
  H   H30       1.0  0.11327227435079121  0.18263109976142997  0.4629425448388318  1.0000
  H   H31       1.0  0.6132640408536504  0.6826306804942062  0.0370557442070165  1.0000
  H   H32       1.0  0.8867388290374053  0.8173663918715732  0.5370581236828968  1.0000
  H   H33       1.0  0.14614236177706627  0.4216890658484471  0.9843691557243659  1.0000
  H   H34       1.0  0.3538667815368939  0.07831035430309188  0.48436675887820974  1.0000
  H   H35       1.0  0.853850662418033  0.5783124291795048  0.0156323322458931  1.0000
  H   H36       1.0  0.6461486359672151  0.9216847068240385  0.5156339096399378  1.0000
  C   C1        1.0  0.5722541565217726  0.8066400827206691  0.7968954628582595  1.0000
  C   C2        1.0  0.9276926071803615  0.6933500695549738  0.2968960823469118  1.0000
  C   C3        1.0  0.4277150813232852  0.19337437162027976  0.2031039765549778  1.0000
  C   C4        1.0  0.07230447886983879  0.30663103230985905  0.703103766766425  1.0000
  C   C5        1.0  0.4862786921016635  0.7206223542195285  0.7616035293192382  1.0000
  C   C6        1.0  0.013704422925591963  0.7793697287706179  0.2616025082353133  1.0000
  C   C7        1.0  0.5136915862160052  0.2793831238707368  0.2383979586738079  1.0000
  C   C8        1.0  0.9862861332067895  0.22061461038128266  0.738396521452856  1.0000
  C   C9        1.0  0.5700986125277439  0.6163051305581888  0.7751322872865315  1.0000
  C   C10       1.0  0.9299242836004707  0.8836878832080185  0.2751327334222822  1.0000
  C   C11       1.0  0.42990784135641047  0.3837086695044006  0.22487002009456347  1.0000
  C   C12       1.0  0.0700515671850042  0.1162914932568739  0.7248683448609158  1.0000
  C   C13       1.0  0.7410283570734537  0.6014167447320133  0.8231667322194909  1.0000
  C   C14       1.0  0.7589929062225879  0.8985817993879837  0.323166714805879  1.0000
  C   C15       1.0  0.2589879004032341  0.39860036379072006  0.17683311685719622  1.0000
  C   C16       1.0  0.24098516042762697  0.10139677030053917  0.6768327246137176  1.0000
  C   C17       1.0  0.819204545646649  0.6923840104995588  0.856132717704341  1.0000
  C   C18       1.0  0.6808116584491728  0.8076233704815788  0.35613581768474495  1.0000
  C   C19       1.0  0.18079900464661594  0.3076420234422557  0.1438630342281897  1.0000
  C   C20       1.0  0.3191919576235663  0.19235449410420807  0.6438607536998404  1.0000
  C   C21       1.0  0.8335026390956132  0.48981054621826564  0.8369462298921989  1.0000
  C   C22       1.0  0.6665193953352714  0.010189466106929498  0.3369500339435945  1.0000
  C   C23       1.0  0.16654173628911909  0.5102075012678923  0.1630478831382263  1.0000
  C   C24       1.0  0.3334375535695314  0.9897881951275591  0.6630510443607706  1.0000
  C   C25       1.0  0.11731375066847956  0.3808798580568434  0.8980708518506616  1.0000
  C   C26       1.0  0.3827118236058525  0.11912240202075  0.39806917601722347  1.0000
  C   C27       1.0  0.8827138210134464  0.6191348504637872  0.1019277680686983  1.0000
  C   C28       1.0  0.6172912219772898  0.8808677065921131  0.6019306730856968  1.0000
  C   C29       1.0  0.29664981141723956  0.395815708233073  0.9510157134740423  1.0000
  C   C30       1.0  0.20335648777396645  0.104184639262094  0.4510132089699966  1.0000
  C   C31       1.0  0.7033485846723337  0.6041907088101792  0.04898536477284669  1.0000
  C   C32       1.0  0.796658929719662  0.8958104218642333  0.5489878692635486  1.0000
  I   I1        1.0  0.47945967862439437  0.09542562962410267  0.8601489694712542  1.0000
  I   I2        1.0  0.020531423403035386  0.40456682320870385  0.36015478790648814  1.0000
  I   I3        1.0  0.5205304417179947  0.9045880992630017  0.1398562059352528  1.0000
  I   I4        1.0  0.9794724274988839  0.595412675252838  0.6398507972157432  1.0000
  I   I5        1.0  0.21088570683369304  0.8443405585761566  0.9782202997250451  1.0000
  I   I6        1.0  0.2890982537005087  0.6556686888693193  0.4782179741735533  1.0000
  I   I7        1.0  0.7891137468983019  0.15567321097783804  0.021785695102153096  1.0000
  I   I8        1.0  0.7108999074761045  0.3443360942917623  0.5217773680588209  1.0000
  N   N1        1.0  0.7344909679036605  0.7924184054451331  0.843180432155819  1.0000
  N   N2        1.0  0.7654801542559255  0.7075790297668616  0.34318384761024845  1.0000
  N   N3        1.0  0.26549613134946537  0.20760674037690308  0.1568169586564423  1.0000
  N   N4        1.0  0.23451879502775347  0.2923988144782541  0.65681600150252  1.0000
  O   O1        1.0  0.012000244544921669  0.4878997201980723  0.8823542356960276  1.0000
  O   O2        1.0  0.4880281138875021  0.012100160805054803  0.3823544758521251  1.0000
  O   O3        1.0  0.9880088952812329  0.5121165408717658  0.1176480716810744  1.0000
  O   O4        1.0  0.5119739913735586  0.9878834122277238  0.6176486509778343  1.0000
  O   O5        1.0  0.7543244156043301  0.40872021173748857  0.8096355426736892  1.0000
  O   O6        1.0  0.7457033291832857  0.09127747713552738  0.3096354164829478  1.0000
  O   O7        1.0  0.2457574109733258  0.591298815370962  0.1903577508850844  1.0000
  O   O8        1.0  0.25424463904695216  0.9087025942818412  0.6903599258145617  1.0000
