data_image0
_chemical_formula_structural       Cu2H24C14N4O6
_chemical_formula_sum              "Cu2 H24 C14 N4 O6"
_cell_length_a       5.270308220066527
_cell_length_b       9.307606760878343
_cell_length_c       10.518894777221703
_cell_angle_alpha    116.24763414956172
_cell_angle_beta     91.67263966069008
_cell_angle_gamma    89.99250675553857

_space_group_name_H-M_alt    "P 1"
_space_group_IT_number       1

loop_
  _space_group_symop_operation_xyz
  'x, y, z'

loop_
  _atom_site_type_symbol
  _atom_site_label
  _atom_site_symmetry_multiplicity
  _atom_site_fract_x
  _atom_site_fract_y
  _atom_site_fract_z
  _atom_site_occupancy
  Cu  Cu1       1.0  0.06982762993342818  0.034882183849127606  0.6116822449169346  1.0000
  Cu  Cu2       1.0  0.9301596187304428  0.42341297611378087  0.3884075982755632  1.0000
  H   H1        1.0  0.125843851606227  0.3341094698318443  0.6915854055052575  1.0000
  H   H2        1.0  0.8737806489783609  0.642765702483068  0.30830235577984405  1.0000
  H   H3        1.0  0.04875941932924379  0.28366616279394197  0.821743394011939  1.0000
  H   H4        1.0  0.9509938008802551  0.4621082934906158  0.1782380598677733  1.0000
  H   H5        1.0  0.477295131492852  0.3545868721383059  0.8959126411079407  1.0000
  H   H6        1.0  0.5224504866262052  0.4587854329741461  0.10403915393758466  1.0000
  H   H7        1.0  0.5517226430280288  0.311554386759056  0.7200857616243538  1.0000
  H   H8        1.0  0.4479758803764611  0.591737831769301  0.2799193777508506  1.0000
  H   H9        1.0  0.6020025638666268  0.7848278152415774  0.5870902190903847  1.0000
  H   H10       1.0  0.3981262282222033  0.19780937225299774  0.41286889494657675  1.0000
  H   H11       1.0  0.6082060955169197  0.8742104593205798  0.8444346043741218  1.0000
  H   H12       1.0  0.39189058346677536  0.03001309584954731  0.15556542876069554  1.0000
  H   H13       1.0  0.14643971742984968  0.9352786548227171  0.8914350761842014  1.0000
  H   H14       1.0  0.8535284240025263  0.043961857072019904  0.10834903095431507  1.0000
  H   H15       1.0  0.2556838163581929  0.8017611644526426  0.9598549009998006  1.0000
  H   H16       1.0  0.744553105646105  0.8421456034054914  0.040190919110180676  1.0000
  H   H17       1.0  0.07113740594690651  0.727281648387802  0.7995679249278138  1.0000
  H   H18       1.0  0.9291861619336999  0.9280541196501773  0.20039444247395705  1.0000
  H   H19       1.0  0.6227536482603853  0.6078653371949371  0.8369103105363036  1.0000
  H   H20       1.0  0.37736870049195664  0.7712495720523764  0.1630083566357499  1.0000
  H   H21       1.0  0.7343661741068814  0.5936415399007445  0.6738997953086282  1.0000
  H   H22       1.0  0.265647232733798  0.9200504359824891  0.3260800653522721  1.0000
  H   H23       1.0  0.4238271461943484  0.5259964896838127  0.6799678938050064  1.0000
  H   H24       1.0  0.576261207203828  0.84604671510278  0.3200380443002614  1.0000
  C   C1        1.0  0.439334998632475  0.2702758118038276  0.7841078878960202  1.0000
  C   C2        1.0  0.5603796637269625  0.486388137115661  0.21593199878633834  1.0000
  C   C3        1.0  0.5377607485673009  0.10556330517001558  0.7586672190828307  1.0000
  C   C4        1.0  0.4621573526336888  0.3471230400760703  0.24144855774279245  1.0000
  C   C5        1.0  0.4257217811160602  0.8201278752192565  0.6478010277104926  1.0000
  C   C6        1.0  0.5743818415361589  0.17242242694509707  0.3521610711834739  1.0000
  C   C7        1.0  0.2069103454652108  0.7224408389191834  0.5471748221441428  1.0000
  C   C8        1.0  0.7932128347968544  0.1753900455946109  0.452862173894438  1.0000
  C   C9        1.0  0.4628794398620856  0.7855806196679397  0.7786067988661782  1.0000
  C   C10       1.0  0.5372721098523242  0.0071425956679931  0.22137628776831517  1.0000
  C   C11       1.0  0.22030472862255832  0.8147283584009914  0.8620136706737681  1.0000
  C   C12       1.0  0.7798506103967712  0.9529729247730574  0.13795809494414601  1.0000
  C   C13       1.0  0.5669882819749859  0.6187585666126479  0.7399602603387833  1.0000
  C   C14       1.0  0.43318714756829  0.8789543279241556  0.2600326743159228  1.0000
  N   N1        1.0  0.1704451089253212  0.26466370194932404  0.7418234317844251  1.0000
  N   N2        1.0  0.8293818829901697  0.5230659581161349  0.258227017999438  1.0000
  N   N3        1.0  0.3724502123219864  0.9872888369703857  0.6887878234346514  1.0000
  N   N4        1.0  0.6275550030982872  0.29865928933417507  0.3112673641019653  1.0000
  O   O1        1.0  0.036441116088703006  0.7955230299575008  0.5090840446583796  1.0000
  O   O2        1.0  0.9634750280668596  0.2866430130976667  0.4910687915701074  1.0000
  O   O3        1.0  0.20354838578552406  0.5717145356440768  0.504625639077851  1.0000
  O   O4        1.0  0.7966608292058481  0.067114789091768  0.49531195544089696  1.0000
  O   O5        1.0  0.7614982842827442  0.0952652865918182  0.8004490958726646  1.0000
  O   O6        1.0  0.23842277257342204  0.29510135997894343  0.19966103435622526  1.0000
