data_image0
_chemical_formula_structural       Zn2P4H32C34N4O12
_chemical_formula_sum              "Zn2 P4 H32 C34 N4 O12"
_cell_length_a       8.554492541111086
_cell_length_b       9.042441325160697
_cell_length_c       12.297275907367997
_cell_angle_alpha    95.44764447440207
_cell_angle_beta     107.06706427361456
_cell_angle_gamma    102.4782976291516

_space_group_name_H-M_alt    "P 1"
_space_group_IT_number       1

loop_
  _space_group_symop_operation_xyz
  'x, y, z'

loop_
  _atom_site_type_symbol
  _atom_site_label
  _atom_site_symmetry_multiplicity
  _atom_site_fract_x
  _atom_site_fract_y
  _atom_site_fract_z
  _atom_site_occupancy
  Zn  Zn1       1.0  0.6799183740782978  0.6495717298324241  0.8900017187806311  1.0000
  Zn  Zn2       1.0  0.32008006877877193  0.3504249851109762  0.11000009980963202  1.0000
  P   P1        1.0  0.6568566115701346  0.46192422833360075  0.6533493575300895  1.0000
  P   P2        1.0  0.3431382240489996  0.538076984276792  0.3466479093642932  1.0000
  P   P3        1.0  0.31179994990984744  0.4200741160157407  0.8533323515774641  1.0000
  P   P4        1.0  0.6881979139674925  0.579924877135106  0.14666866570888706  1.0000
  H   H1        1.0  0.43516629100727044  0.35625820648245826  0.4919271699399985  1.0000
  H   H2        1.0  0.5648294452807789  0.6437418585674024  0.5080702166827962  1.0000
  H   H3        1.0  0.5097825894341241  0.3429699641519406  0.8060831531577932  1.0000
  H   H4        1.0  0.49021218269878375  0.6570267274722355  0.19391709274793104  1.0000
  H   H5        1.0  0.39210077726549036  0.7875727010789788  0.7787099980013039  1.0000
  H   H6        1.0  0.6078986987076506  0.21243201936650283  0.2212908696333429  1.0000
  H   H7        1.0  0.3493564642156244  0.9831524262680275  0.6450592823245316  1.0000
  H   H8        1.0  0.6506509276233247  0.016849970033312896  0.3549414592008873  1.0000
  H   H9        1.0  0.6003604115486283  0.1297715334795697  0.6020665877497535  1.0000
  H   H10       1.0  0.3996463341745767  0.8702285459828687  0.39793307325733446  1.0000
  H   H11       1.0  0.8855132464343214  0.0943569637738122  0.7021033607154266  1.0000
  H   H12       1.0  0.11449131368805618  0.9056397776916115  0.2979005359780942  1.0000
  H   H13       1.0  0.1155607067018778  0.09580540821339412  0.8300854765396579  1.0000
  H   H14       1.0  0.8844365827579852  0.9041959557200416  0.16991881222499222  1.0000
  H   H15       1.0  0.3765914670119912  0.029768265905246904  0.9362380260038492  1.0000
  H   H16       1.0  0.6234033749942754  0.9702330763103577  0.06376494278562465  1.0000
  H   H17       1.0  0.35420343274411453  0.7872082832854802  0.026830191804620505  1.0000
  H   H18       1.0  0.645798097295156  0.21279064060943398  0.9731683253840585  1.0000
  H   H19       1.0  0.06597981372759426  0.6333448831711621  0.010371171826200506  1.0000
  H   H20       1.0  0.9340249936483787  0.3666482457745773  0.9896252476258738  1.0000
  H   H21       1.0  0.8727275637126297  0.2191575568029265  0.3353054156119057  1.0000
  H   H22       1.0  0.12727403255020422  0.780845943623298  0.6646925662347556  1.0000
  H   H23       1.0  0.9677565843036505  0.08394828878545012  0.408052592778084  1.0000
  H   H24       1.0  0.03224346608696762  0.9160540608774357  0.5919450033782638  1.0000
  H   H25       1.0  0.09653739167777792  0.2547461695810114  0.38917342811416233  1.0000
  H   H26       1.0  0.9034642054975067  0.7452573493602372  0.6108253682889427  1.0000
  H   H27       1.0  0.23545008271300114  0.27754237367717144  0.6106962929635245  1.0000
  H   H28       1.0  0.764550871083884  0.7224588839702764  0.3893038665905664  1.0000
  H   H29       1.0  0.9838102396590571  0.47828800710021835  0.8193278480205705  1.0000
  H   H30       1.0  0.016186143657194046  0.5217143933035687  0.1806714336770128  1.0000
  H   H31       1.0  0.7292121044038641  0.3199176872166377  0.4558716592936491  1.0000
  H   H32       1.0  0.270785177756409  0.680083528596555  0.544126113019459  1.0000
  C   C1        1.0  0.4966317709958049  0.8611412981490646  0.7599737835495262  1.0000
  C   C2        1.0  0.503368604733808  0.1388622562208539  0.24002638925708916  1.0000
  C   C3        1.0  0.47453008596515656  0.9669133558042379  0.6853586694929419  1.0000
  C   C4        1.0  0.5254766606704989  0.0330867421732322  0.3146418060705826  1.0000
  C   C5        1.0  0.6153926259925626  0.04944737445750041  0.6624073624833356  1.0000
  C   C6        1.0  0.3846153448261094  0.9505527436364009  0.33759418034599525  1.0000
  C   C7        1.0  0.774299599236734  0.029566092273221  0.7185935833442656  1.0000
  C   C8        1.0  0.2257031595477984  0.9704329443132736  0.2814100738924239  1.0000
  C   C9        1.0  0.7878632622849223  0.9240975768519065  0.794622254469182  1.0000
  C   C10       1.0  0.21213640384272028  0.07589913969289339  0.2053798168304439  1.0000
  C   C11       1.0  0.9509853866456696  0.8947249125990808  0.8580829230953314  1.0000
  C   C12       1.0  0.049015500927652104  0.10527176851705632  0.1419177718007774  1.0000
  C   C13       1.0  0.10759639782407504  0.9915044398824904  0.867668379990853  1.0000
  C   C14       1.0  0.8923983743088327  0.0084922517416857  0.13233186591487103  1.0000
  C   C15       1.0  0.254678673103122  0.9543638355303937  0.9289393867703166  1.0000
  C   C16       1.0  0.7453182882804014  0.045636268150929  0.07105988167472789  1.0000
  C   C17       1.0  0.2429100865371226  0.822635454283244  0.9798775949531375  1.0000
  C   C18       1.0  0.757091766103798  0.177364618773602  0.020121055216485204  1.0000
  C   C19       1.0  0.08213846472282432  0.7344603631828619  0.969041861687394  1.0000
  C   C20       1.0  0.9178679593111809  0.26553858563267607  0.030958480895186814  1.0000
  C   C21       1.0  0.9788291761378929  0.20757526222006112  0.4069338565460399  1.0000
  C   C22       1.0  0.021171524018257195  0.7924294783418518  0.5930680783544062  1.0000
  C   C23       1.0  0.9810168092672313  0.2880353632833774  0.5203047999189323  1.0000
  C   C24       1.0  0.018985688576975763  0.7119670080973394  0.4796941162125918  1.0000
  C   C25       1.0  0.12471062602102728  0.3133323137162591  0.6184581828893343  1.0000
  C   C26       1.0  0.8752909049306865  0.6866666286936863  0.3815411488557814  1.0000
  C   C27       1.0  0.12817212605700232  0.38453708636982503  0.7256336555500127  1.0000
  C   C28       1.0  0.8718276044693171  0.6154641696762226  0.2743662512947083  1.0000
  C   C29       1.0  0.9848693598912561  0.4288672365352682  0.7355002294063837  1.0000
  C   C30       1.0  0.01512515403867814  0.5711328454282237  0.2644977190634989  1.0000
  C   C31       1.0  0.8413690067220186  0.4059844355138722  0.6387715396197463  1.0000
  C   C32       1.0  0.15862615058631496  0.594017907743421  0.3612250456991433  1.0000
  C   C33       1.0  0.8413048306407518  0.3373494856935224  0.5314473149757077  1.0000
  C   C34       1.0  0.158694898973117  0.6626517518374941  0.4685517773125767  1.0000
  N   N1        1.0  0.649378487975099  0.8401442341539606  0.8126388997897465  1.0000
  N   N2        1.0  0.3506193768146986  0.15985477751191723  0.1873629320530412  1.0000
  N   N3        1.0  0.9402702888325862  0.7687662628130384  0.9088887003743195  1.0000
  N   N4        1.0  0.05973182292375159  0.23123043841953006  0.09111306178759547  1.0000
  O   O1        1.0  0.6542650272539065  0.6180178055778854  0.6180474199491927  1.0000
  O   O2        1.0  0.34573250854710125  0.3819799273208418  0.3819485770175532  1.0000
  O   O3        1.0  0.4988247665159378  0.332022553680659  0.5738605830866064  1.0000
  O   O4        1.0  0.5011765080577035  0.667979816098665  0.4261380803355479  1.0000
  O   O5        1.0  0.6641791126759173  0.4568990865262138  0.7799307769585369  1.0000
  O   O6        1.0  0.3358150768274726  0.5430998092452839  0.22006540941750788  1.0000
  O   O7        1.0  0.4227120213555083  0.5812973802086036  0.8674087101492631  1.0000
  O   O8        1.0  0.5772849418529162  0.418702760502775  0.1325921874086688  1.0000
  O   O9        1.0  0.4116698076707835  0.2949031029834686  0.8326859161794999  1.0000
  O   O10       1.0  0.5883252879762183  0.7050947563176777  0.1673152772636115  1.0000
  O   O11       1.0  0.23886632883461092  0.3852283357553362  0.9497601765745216  1.0000
  O   O12       1.0  0.7611284423858465  0.6147683373538088  0.050239254774759004  1.0000
