data_image0
_chemical_formula_structural       AlH3C27Cl12O6
_chemical_formula_sum              "Al1 H3 C27 Cl12 O6"
_cell_length_a       4.2491425344938065
_cell_length_b       16.29673762444844
_cell_length_c       16.2970545679858
_cell_angle_alpha    120.68894569756137
_cell_angle_beta     89.38558645518401
_cell_angle_gamma    89.38549901361708

_space_group_name_H-M_alt    "P 1"
_space_group_IT_number       1

loop_
  _space_group_symop_operation_xyz
  'x, y, z'

loop_
  _atom_site_type_symbol
  _atom_site_label
  _atom_site_symmetry_multiplicity
  _atom_site_fract_x
  _atom_site_fract_y
  _atom_site_fract_z
  _atom_site_occupancy
  Al  Al1       1.0  5.451552992501141e-05  0.5006378855742426  0.4992650585083779  1.0000
  H   H1        1.0  0.5000306785062562  0.9194782101420884  0.08039095510673623  1.0000
  H   H2        1.0  0.4242858473734543  0.657474945913883  0.08019615963818437  1.0000
  H   H3        1.0  0.5754377265419491  0.9196654198563224  0.342388198272097  1.0000
  C   C1        1.0  0.49203761958369086  0.5731190725870403  0.6442586264982066  1.0000
  C   C2        1.0  0.5000334285664962  0.5725193149399603  0.4274225416917972  1.0000
  C   C3        1.0  0.5081277365084347  0.3556409886587559  0.426780313899492  1.0000
  C   C4        1.0  0.4769203303501613  0.7812248423607926  0.06616813106232651  1.0000
  C   C5        1.0  0.4999408160842977  0.8812980034251511  0.11857234620006103  1.0000
  C   C6        1.0  0.5228979815242739  0.9337063362499975  0.2186444130950491  1.0000
  C   C7        1.0  0.5359525714242326  0.8818246885233875  0.26619451830186575  1.0000
  C   C8        1.0  0.4997739543237429  0.7820891653939127  0.21779928888323485  1.0000
  C   C9        1.0  0.46372613068101737  0.7336756083917066  0.1180525073011863  1.0000
  C   C10       1.0  0.6628526690165657  0.19503143348505597  0.2847058509500968  1.0000
  C   C11       1.0  0.6821953001285123  0.09472948337547389  0.2376203473146319  1.0000
  C   C12       1.0  0.5256464444168999  0.0413736665171243  0.2721835355647997  1.0000
  C   C13       1.0  0.3608015952400833  0.09797192724706603  0.36047575680329647  1.0000
  C   C14       1.0  0.36890914692596516  0.19838533337390632  0.4122471397459505  1.0000
  C   C15       1.0  0.5133700164414279  0.24777820811421236  0.37365929322911734  1.0000
  C   C16       1.0  0.3179283659700971  0.7622760668591368  0.905149090121668  1.0000
  C   C17       1.0  0.33737161970846324  0.7151978576133614  0.8048555978830051  1.0000
  C   C18       1.0  0.4868217039553  0.6262324617330962  0.7521143842061092  1.0000
  C   C19       1.0  0.6311917202158597  0.5876463776506071  0.801526701750923  1.0000
  C   C20       1.0  0.6392034572280849  0.6394119214964958  0.9019309735871628  1.0000
  C   C21       1.0  0.4743656039409601  0.7277087762241194  0.9585185453780553  1.0000
  C   C22       1.0  0.666234032634719  0.6413896485353235  0.23804355845691558  1.0000
  C   C23       1.0  0.6527725722007317  0.5884958009630025  0.2846505379752171  1.0000
  C   C24       1.0  0.4999733913088207  0.6257913993576879  0.37416281661617024  1.0000
  C   C25       1.0  0.34711063704040157  0.7153003106863877  0.4114593617454928  1.0000
  C   C26       1.0  0.33345785031131214  0.761885872453256  0.3585476193192036  1.0000
  C   C27       1.0  0.4998141751179831  0.728833786617095  0.27109137941815925  1.0000
  Cl  Cl1       1.0  0.19959277209219553  0.2630652378586049  0.5243116120198934  1.0000
  Cl  Cl2       1.0  0.823724793915737  0.2556806207581701  0.23425002660136576  1.0000
  Cl  Cl3       1.0  0.1318523305339241  0.0482593258853115  0.41022431743753873  1.0000
  Cl  Cl4       1.0  0.9164705272722671  0.04116030128003699  0.13673653822891646  1.0000
  Cl  Cl5       1.0  0.17644289453376422  0.7656226272697565  0.7441880860762566  1.0000
  Cl  Cl6       1.0  0.08361026944175622  0.8631504429415312  0.9587055180703882  1.0000
  Cl  Cl7       1.0  0.8004761112018245  0.4755669674390717  0.7368603629136031  1.0000
  Cl  Cl8       1.0  0.8681085988435201  0.5896727738009916  0.951672667396572  1.0000
  Cl  Cl9       1.0  0.902682324958505  0.5948902625156052  0.1380278249891234  1.0000
  Cl  Cl10      1.0  0.8200841935767897  0.47593152509710984  0.2269630598423119  1.0000
  Cl  Cl11      1.0  0.09698862772938102  0.86189855541447  0.40505118652731636  1.0000
  Cl  Cl12      1.0  0.1798207706628503  0.7729789900222738  0.5240287644948294  1.0000
  O   O1        1.0  0.27116053193033446  0.39524132440066495  0.4136753537652281  1.0000
  O   O2        1.0  0.25911793726360344  0.5204836132651209  0.6036053268526942  1.0000
  O   O3        1.0  0.2607891439307508  0.583629790777479  0.4796489340883951  1.0000
  O   O4        1.0  0.7410578191889527  0.3962953032084257  0.47942041200129626  1.0000
  O   O5        1.0  0.7392736477047563  0.5202640788373287  0.41626860486422856  1.0000
  O   O6        1.0  0.729017154247977  0.586228059938783  0.6046516749773757  1.0000
