data_image0
_chemical_formula_structural       Al2H10C22S2O14
_chemical_formula_sum              "Al2 H10 C22 S2 O14"
_cell_length_a       6.592741788506394
_cell_length_b       11.113990253810556
_cell_length_c       12.642595367325635
_cell_angle_alpha    83.76871334753444
_cell_angle_beta     76.2595035234766
_cell_angle_gamma    72.45168799193272

_space_group_name_H-M_alt    "P 1"
_space_group_IT_number       1

loop_
  _space_group_symop_operation_xyz
  'x, y, z'

loop_
  _atom_site_type_symbol
  _atom_site_label
  _atom_site_symmetry_multiplicity
  _atom_site_fract_x
  _atom_site_fract_y
  _atom_site_fract_z
  _atom_site_occupancy
  Al  Al1       1.0  0.48408965358969874  0.5081436459713444  0.5012375838152254  1.0000
  Al  Al2       1.0  0.9855759705845061  0.5074388434554323  0.5018836515552253  1.0000
  H   H1        1.0  0.27642406451365537  0.3596844181401195  0.5738899751860985  1.0000
  H   H2        1.0  0.6824034043306427  0.6639125793188326  0.4532106917003419  1.0000
  H   H3        1.0  0.30015903397440286  0.43966529756546874  0.8463304267567581  1.0000
  H   H4        1.0  0.678299923227577  0.5622806565692641  0.15580874689017324  1.0000
  H   H5        1.0  0.21004552888658173  0.24404209951048733  0.3425589929590772  1.0000
  H   H6        1.0  0.5561086071364728  0.12594168556852742  0.22900942998428778  1.0000
  H   H7        1.0  0.43398258429432685  0.7732466072949579  0.35580089070918336  1.0000
  H   H8        1.0  0.6677110013286196  0.8897947333300493  0.23486465996000325  1.0000
  H   H9        1.0  0.9955494854090152  0.798853570609907  0.7099782802066844  1.0000
  H   H10       1.0  0.7473339973513548  0.14026505656602953  0.7366170586345862  1.0000
  C   C1        1.0  0.8462243107851748  0.2841525866442752  0.48374612567148045  1.0000
  C   C2        1.0  0.6572204314008802  0.5008427929616276  0.6972379449615504  1.0000
  C   C3        1.0  0.12559996769545004  0.7352905236777831  0.5110403716713565  1.0000
  C   C4        1.0  0.31371114399294003  0.5110187090344596  0.3052470724246278  1.0000
  C   C5        1.0  0.4136966225476542  0.46853159374403935  0.8807759863299797  1.0000
  C   C6        1.0  0.5642721771044849  0.5331978888055177  0.12190363602852024  1.0000
  C   C7        1.0  0.593765277048611  0.49981122723418286  0.8165815859822988  1.0000
  C   C8        1.0  0.3823423859996211  0.5045673314684507  0.18647625515885122  1.0000
  C   C9        1.0  0.5765190506228066  0.5194578575241735  0.010789575599282807  1.0000
  C   C10       1.0  0.40330629820565633  0.4799366880338168  0.9920890400088214  1.0000
  C   C11       1.0  0.918073889707287  0.14245857449506621  0.4859534700693474  1.0000
  C   C12       1.0  0.12185852537987779  0.07693547722354312  0.42000121766812276  1.0000
  C   C13       1.0  0.7887856340891303  0.0771907139452779  0.5573265141637622  1.0000
  C   C14       1.0  0.25802499133004636  0.14128078201804328  0.3469259461600559  1.0000
  C   C15       1.0  0.4519959865629347  0.0748722820668348  0.2832000626318775  1.0000
  C   C16       1.0  0.05770043070764782  0.8770950218810828  0.5032093046085678  1.0000
  C   C17       1.0  0.8634814508853599  0.9433123136115781  0.5690086184758841  1.0000
  C   C18       1.0  0.18959021905520515  0.9413004942765966  0.4261428133274948  1.0000
  C   C19       1.0  0.3858904026080623  0.8759751663818705  0.35561595111763483  1.0000
  C   C20       1.0  0.5155895363106635  0.9414218373143299  0.28692725259382723  1.0000
  C   C21       1.0  0.7316120709602743  0.8767328650149439  0.6556594755390822  1.0000
  C   C22       1.0  0.5773531413020337  0.14771141907737467  0.6296863239490309  1.0000
  S   S1        1.0  0.7514308384099309  0.5421105673474926  0.8904554159894718  1.0000
  S   S2        1.0  0.22568287281021773  0.4603560782302624  0.11280548746742626  1.0000
  O   O1        1.0  0.6609010686199639  0.3399502169100828  0.4628310987967553  1.0000
  O   O2        1.0  0.8374568056441163  0.5241474163314807  0.6529883092567702  1.0000
  O   O3        1.0  0.9928624596044104  0.6817584594188946  0.49264702575145236  1.0000
  O   O4        1.0  0.4383854241914023  0.5415084718933727  0.3544130107398332  1.0000
  O   O5        1.0  0.3094347535427744  0.6802248168870477  0.5342566904356618  1.0000
  O   O6        1.0  0.1333361522078249  0.48794217856196553  0.35003971032193  1.0000
  O   O7        1.0  0.9752481697279762  0.33698027359022836  0.5066833053109081  1.0000
  O   O8        1.0  0.5274944217612332  0.47650697137347464  0.647548305915258  1.0000
  O   O9        1.0  0.24568794404087413  0.4474181006588509  0.5455469670917383  1.0000
  O   O10       1.0  0.7225311724701838  0.5722070546913472  0.4575833414438578  1.0000
  O   O11       1.0  0.8427714546240355  0.7987550212077964  0.7268763347629704  1.0000
  O   O12       1.0  0.5371103602555466  0.8927713081232016  0.6667409968072917  1.0000
  O   O13       1.0  0.5947224489286069  0.16994874113306935  0.7306519295336572  1.0000
  O   O14       1.0  0.4020015960224583  0.1846462268343743  0.6039382707037364  1.0000
