data_image0
_chemical_formula_structural       Mn2H28C20N12Cl4
_chemical_formula_sum              "Mn2 H28 C20 N12 Cl4"
_cell_length_a       3.706973288359798
_cell_length_b       11.691195084970595
_cell_length_c       15.780139483295816
_cell_angle_alpha    80.50488702795008
_cell_angle_beta     83.21316910355861
_cell_angle_gamma    80.60498611301779

_space_group_name_H-M_alt    "P 1"
_space_group_IT_number       1

loop_
  _space_group_symop_operation_xyz
  'x, y, z'

loop_
  _atom_site_type_symbol
  _atom_site_label
  _atom_site_symmetry_multiplicity
  _atom_site_fract_x
  _atom_site_fract_y
  _atom_site_fract_z
  _atom_site_occupancy
  Mn  Mn1       1.0  0.8980801588039353  0.249729279111655  0.7498533409828667  1.0000
  Mn  Mn2       1.0  0.10191159801513536  0.7502674309640156  0.2501462777636832  1.0000
  H   H1        1.0  0.12028807761105756  0.9746689777168668  0.5720298534180658  1.0000
  H   H2        1.0  0.6668631782160901  0.5247622456844424  0.9278595881725238  1.0000
  H   H3        1.0  0.8797443223635141  0.025329439460669796  0.4279661738787938  1.0000
  H   H4        1.0  0.3331081003802795  0.4752388607110021  0.07213902116108532  1.0000
  H   H5        1.0  0.20782679396880618  0.04091697406053638  0.6606786051724569  1.0000
  H   H6        1.0  0.908109619973132  0.4581467761400899  0.8390305891618299  1.0000
  H   H7        1.0  0.7922047351306601  0.9590805723517022  0.33931878716585834  1.0000
  H   H8        1.0  0.09186521989742842  0.5418534386721207  0.16096495041598052  1.0000
  H   H9        1.0  0.7048986710939359  0.45331567250904925  0.43547514626887823  1.0000
  H   H10       1.0  0.5858378093696073  0.0469246983947897  0.063715853665741  1.0000
  H   H11       1.0  0.2951056526877238  0.5466871766761585  0.5645274741246027  1.0000
  H   H12       1.0  0.41417582005874437  0.9530781494507607  0.936288330744276  1.0000
  H   H13       1.0  0.8565586344149947  0.42858840024555894  0.5900313152983898  1.0000
  H   H14       1.0  0.8685013696873302  0.0710561694496192  0.9093107041719435  1.0000
  H   H15       1.0  0.1434537435270613  0.571408308302864  0.4099721392565955  1.0000
  H   H16       1.0  0.13148780706968927  0.9289423130486367  0.09069322769170184  1.0000
  H   H17       1.0  0.5204360680612508  0.3563205932932618  0.32393109485635563  1.0000
  H   H18       1.0  0.20041554294319747  0.14479484399096523  0.17613132433933743  1.0000
  H   H19       1.0  0.4795628119905258  0.6436840099883341  0.6760705476158011  1.0000
  H   H20       1.0  0.7995682700525039  0.8552080167955439  0.8238700686484679  1.0000
  H   H21       1.0  0.4401818459086684  0.20699073124234954  0.3550943823330003  1.0000
  H   H22       1.0  0.0017770718669538944  0.2946530936766719  0.1450964147014844  1.0000
  H   H23       1.0  0.5598258014362542  0.7930103526203353  0.6449058998036821  1.0000
  H   H24       1.0  0.9982105401138595  0.7053497492658921  0.8549011770315431  1.0000
  H   H25       1.0  0.8746389224111084  0.23768710746873722  0.30675100931965466  1.0000
  H   H26       1.0  0.4202141725988112  0.2624780166318317  0.1930990360813283  1.0000
  H   H27       1.0  0.12536560871301083  0.7623192295735634  0.693246710217558  1.0000
  H   H28       1.0  0.5797664442075144  0.7375274731424357  0.8069013552615305  1.0000
  C   C1        1.0  0.9679268064107304  0.1525243871181345  0.5636785376325193  1.0000
  C   C2        1.0  0.6837986156790233  0.3471186804154982  0.9362210894460861  1.0000
  C   C3        1.0  0.03210389921895261  0.8474705280021838  0.4363184408000152  1.0000
  C   C4        1.0  0.31617913526468294  0.6528797921962877  0.0637779622229004  1.0000
  C   C5        1.0  0.7613679433733724  0.264737138600168  0.43872046462248454  1.0000
  C   C6        1.0  0.4636336793395443  0.23559512317001466  0.06112756773748632  1.0000
  C   C7        1.0  0.23865880552885674  0.735259544816664  0.5612794856093117  1.0000
  C   C8        1.0  0.5363549916271777  0.7644042259674748  0.9388736577668697  1.0000
  C   C9        1.0  0.7727372500919998  0.36718382339694244  0.47286412782275994  1.0000
  C   C10       1.0  0.6076437788426006  0.132918461126394  0.0265912756097322  1.0000
  C   C11       1.0  0.2272662976251921  0.6328146339697228  0.5271362997177037  1.0000
  C   C12       1.0  0.3923570784755054  0.867081758588803  0.9734108566450674  1.0000
  C   C13       1.0  0.8603961010254721  0.353141718569404  0.5573254730468165  1.0000
  C   C14       1.0  0.7661514817440247  0.14661546515612403  0.9421727674521281  1.0000
  C   C15       1.0  0.13962156290411795  0.6468549863351993  0.4426781299739703  1.0000
  C   C16       1.0  0.23384310837441533  0.8533838773635481  0.0578279729755735  1.0000
  C   C17       1.0  0.6399099854607329  0.26775789796538163  0.3510955572591712  1.0000
  C   C18       1.0  0.2586431873947532  0.23309611799938781  0.1489056599021694  1.0000
  C   C19       1.0  0.3600988808072428  0.7322449404759368  0.6489052367398216  1.0000
  C   C20       1.0  0.7413463870103173  0.7669084866218726  0.8510944185534514  1.0000
  N   N1        1.0  0.9453606028028362  0.2479617163038554  0.6051692214202973  1.0000
  N   N2        1.0  0.7965105963399355  0.2516158029242277  0.8945872614890149  1.0000
  N   N3        1.0  0.05464736002678447  0.7520358666536919  0.3948327196274307  1.0000
  N   N4        1.0  0.2034755094068003  0.7483791733907382  0.10541628019247902  1.0000
  N   N5        1.0  0.8623086431972665  0.15898417937557238  0.48320541387266064  1.0000
  N   N6        1.0  0.5056848001376933  0.34109007601576014  0.01686806699014911  1.0000
  N   N7        1.0  0.13770721824520366  0.841016012234043  0.5167925805164942  1.0000
  N   N8        1.0  0.4942984745044612  0.6589092666914879  0.9831304016456529  1.0000
  N   N9        1.0  0.09743604197171132  0.046707468166395906  0.6036763176567917  1.0000
  N   N10       1.0  0.7473093186658839  0.45266641700897764  0.896181694012185  1.0000
  N   N11       1.0  0.9025821943851468  0.9532944619998318  0.39631831310698123  1.0000
  N   N12       1.0  0.25266721335476916  0.5473303010241679  0.10381684579450483  1.0000
  Cl  Cl1       1.0  0.31626192528549485  0.40420911014631145  0.7278219886858537  1.0000
  Cl  Cl2       1.0  0.45172562720255655  0.09517410565491959  0.7717466783586319  1.0000
  Cl  Cl3       1.0  0.6837316836208129  0.5957893515340089  0.272177508380537  1.0000
  Cl  Cl4       1.0  0.5482714156040556  0.9048226007769314  0.22825308885371953  1.0000
