data_image0
_chemical_formula_structural       Cu2H36C40N16O8
_chemical_formula_sum              "Cu2 H36 C40 N16 O8"
_cell_length_a       7.423171582606382
_cell_length_b       11.878150184219209
_cell_length_c       12.78732967336181
_cell_angle_alpha    90.00270470950421
_cell_angle_beta     89.99983763479582
_cell_angle_gamma    94.29699570391374

_space_group_name_H-M_alt    "P 1"
_space_group_IT_number       1

loop_
  _space_group_symop_operation_xyz
  'x, y, z'

loop_
  _atom_site_type_symbol
  _atom_site_label
  _atom_site_symmetry_multiplicity
  _atom_site_fract_x
  _atom_site_fract_y
  _atom_site_fract_z
  _atom_site_occupancy
  Cu  Cu1       1.0  0.9999879122225507  0.5000057013054191  0.5000054561994602  1.0000
  Cu  Cu2       1.0  0.5000061946336772  0.5000017754953492  1.2853894518000037e-06  1.0000
  H   H1        1.0  0.6417078513075225  0.9765926759708636  0.5071542932250921  1.0000
  H   H2        1.0  0.8582857767991001  0.023412554954937496  0.0071509769808671  1.0000
  H   H3        1.0  0.35830053249164007  0.023410570525094  0.49283970100415786  1.0000
  H   H4        1.0  0.14171575377648082  0.9765899370102391  0.9928555296054  1.0000
  H   H5        1.0  0.7470939874819251  0.8536935590706848  0.5281907698415367  1.0000
  H   H6        1.0  0.7529201478490395  0.14632492517524298  0.0281787951495218  1.0000
  H   H7        1.0  0.25290151589418036  0.14630478392870572  0.4718126085314368  1.0000
  H   H8        1.0  0.24709317783629106  0.8536841762915515  0.9718191093606379  1.0000
  H   H9        1.0  0.036273402043647714  0.7512424133554206  0.46735429260358796  1.0000
  H   H10       1.0  0.4637364327972904  0.2487656208870206  0.967349056639911  1.0000
  H   H11       1.0  0.9637577117732975  0.24875968561540426  0.5326451757932134  1.0000
  H   H12       1.0  0.5362686131594431  0.7512334410075  0.032645719499051  1.0000
  H   H13       1.0  0.9152462414329039  0.01786996428420909  0.39585207354343777  1.0000
  H   H14       1.0  0.5847244430303108  0.982112167552636  0.8958555353537747  1.0000
  H   H15       1.0  0.08479988919235384  0.9821158654132632  0.604153650637187  1.0000
  H   H16       1.0  0.4152314977007876  0.0178917757724477  0.1041587914534645  1.0000
  H   H17       1.0  0.2051705714063488  0.9540660987241267  0.3445382689434098  1.0000
  H   H18       1.0  0.2948229816609285  0.04592625832549399  0.8445375656935711  1.0000
  H   H19       1.0  0.794820815936035  0.04592299541750579  0.6554729294219044  1.0000
  H   H20       1.0  0.7051963369678022  0.9540692313942574  0.1554830171649684  1.0000
  H   H21       1.0  0.04558481339902439  0.9567279596207925  0.2410341171592805  1.0000
  H   H22       1.0  0.45440154661792326  0.043240065963836095  0.7410321168486363  1.0000
  H   H23       1.0  0.9544611058041924  0.0432477228457842  0.7589426718622576  1.0000
  H   H24       1.0  0.5455452408758817  0.9567656898034471  0.2589478009341306  1.0000
  H   H25       1.0  0.06969257523615367  0.46940698026222794  0.2797972057418292  1.0000
  H   H26       1.0  0.4303140696591897  0.530575008563588  0.7797856036992242  1.0000
  H   H27       1.0  0.9303102657937572  0.5305777330704943  0.7202257228843507  1.0000
  H   H28       1.0  0.5696658980408459  0.4694362277731657  0.22022794130654688  1.0000
  H   H29       1.0  0.12118943785466745  0.8001255700155384  0.1372257770743985  1.0000
  H   H30       1.0  0.3787980945735542  0.1998374540626601  0.637224788144991  1.0000
  H   H31       1.0  0.878792372955118  0.1998450435472137  0.8627650881656664  1.0000
  H   H32       1.0  0.6212160912202905  0.8001860142300646  0.3627652965033619  1.0000
  H   H33       1.0  0.12199991129489975  0.5890124176439286  0.1193259465526992  1.0000
  H   H34       1.0  0.37799205723856494  0.4109422214111973  0.61931886292804  1.0000
  H   H35       1.0  0.8779594765112081  0.4109525735271049  0.8806829050650863  1.0000
  H   H36       1.0  0.6219853030314725  0.5890783530994952  0.3806884261273495  1.0000
  C   C1        1.0  0.31363224041621157  0.6510595529518995  0.5818559793095659  1.0000
  C   C2        1.0  0.18639001338122804  0.34894732006065243  0.0818529360806508  1.0000
  C   C3        1.0  0.6863523279684716  0.3489465473404679  0.418146617229489  1.0000
  C   C4        1.0  0.8136292576108701  0.6510566277240244  0.9181449683014764  1.0000
  C   C5        1.0  0.47284599428499513  0.8394146078792917  0.5559292206072257  1.0000
  C   C6        1.0  0.027171335724574405  0.1605921420385599  0.0559142922958813  1.0000
  C   C7        1.0  0.5271525397232466  0.16059469026477302  0.4440811962748512  1.0000
  C   C8        1.0  0.9728419079944788  0.8394076570152295  0.9440922142344804  1.0000
  C   C9        1.0  0.6354572504096653  0.6640448801347034  0.5758179420787215  1.0000
  C   C10       1.0  0.8645781096692534  0.3359684556420391  0.075815452809266  1.0000
  C   C11       1.0  0.36453763866846606  0.33596700355967374  0.42418152652931707  1.0000
  C   C12       1.0  0.1354379531765062  0.6640321515917549  0.9241824514808458  1.0000
  C   C13       1.0  0.05348795748587074  0.7190431285494442  0.38862084465903735  1.0000
  C   C14       1.0  0.44651176612304505  0.2809509045907816  0.8886149130947703  1.0000
  C   C15       1.0  0.9465323168777786  0.28094981073886777  0.6113809695551568  1.0000
  C   C16       1.0  0.5534749729078713  0.7190517836288494  0.11138299121265051  1.0000
  C   C17       1.0  0.4739776116525861  0.7176588597874981  0.5749010504994203  1.0000
  C   C18       1.0  0.02605292729275281  0.28234847137378694  0.0748862718537282  1.0000
  C   C19       1.0  0.5260194479883964  0.2823496121003544  0.4251070202867168  1.0000
  C   C20       1.0  0.9739617908818449  0.7176521536543418  0.9251085043387236  1.0000
  C   C21       1.0  0.07203493989240435  0.9176732606826834  0.3172523201659203  1.0000
  C   C22       1.0  0.4279604776240903  0.08231037117579383  0.8172468342053917  1.0000
  C   C23       1.0  0.9279760991990076  0.0823121888540541  0.6827346353814291  1.0000
  C   C24       1.0  0.5720333739980745  0.9176947597540134  0.18274090386207584  1.0000
  C   C25       1.0  0.07381963765219272  0.56109998779597  0.2830379859894592  1.0000
  C   C26       1.0  0.4261737790289929  0.4388839976456467  0.7830324954355278  1.0000
  C   C27       1.0  0.9261727053074084  0.4388865562900648  0.7169732123099664  1.0000
  C   C28       1.0  0.5738075333912535  0.5611272207401754  0.21697635742687993  1.0000
  C   C29       1.0  0.07631404897472292  0.7921789636773299  0.3033336860159892  1.0000
  C   C30       1.0  0.4236854474979027  0.2078032131493401  0.8033301024438444  1.0000
  C   C31       1.0  0.9237035838205614  0.20780555269625006  0.6966626538044524  1.0000
  C   C32       1.0  0.5762925271731021  0.7922038203375054  0.19666467387033043  1.0000
  C   C33       1.0  0.10129475722374788  0.7449446054919163  0.20492021577981492  1.0000
  C   C34       1.0  0.3986906633287575  0.25503045008326103  0.7049159263001386  1.0000
  C   C35       1.0  0.898695203598912  0.2550352036552042  0.7950776879295915  1.0000
  C   C36       1.0  0.6012981507759324  0.7449857431487317  0.2950796322930458  1.0000
  C   C37       1.0  0.10120372284063002  0.6282699392757679  0.19472971705448572  1.0000
  C   C38       1.0  0.3987951427526682  0.3717036855379304  0.6947253128646551  1.0000
  C   C39       1.0  0.898780859169854  0.3717099414558405  0.8052760068909423  1.0000
  C   C40       1.0  0.6011845178400678  0.6283143210132138  0.3052796300537821  1.0000
  N   N1        1.0  0.7745008196193411  0.6228311720103792  0.573834603951589  1.0000
  N   N2        1.0  0.7255462306464511  0.3771878501198245  0.0738409671219245  1.0000
  N   N3        1.0  0.2254957691142111  0.37716546484301733  0.42616095413684724  1.0000
  N   N4        1.0  0.2744782415945721  0.6228236408307524  0.9261639756822788  1.0000
  N   N5        1.0  0.050681797616725505  0.6063670300568945  0.3780785368533159  1.0000
  N   N6        1.0  0.4493113347716716  0.3936266701645153  0.8780730690754908  1.0000
  N   N7        1.0  0.949322470104569  0.39362696772224853  0.6219303155852032  1.0000
  N   N8        1.0  0.5506849467417753  0.606376737263446  0.1219318734799657  1.0000
  N   N9        1.0  0.179530593910016  0.5918600065097409  0.5887532666092739  1.0000
  N   N10       1.0  0.32047386708200076  0.40816344804205335  0.08875993863905049  1.0000
  N   N11       1.0  0.8204502817558821  0.40815713788331465  0.41123994592649643  1.0000
  N   N12       1.0  0.6795333016979513  0.5918406604397222  0.9112371837077474  1.0000
  N   N13       1.0  0.6354415724653679  0.8964721149111982  0.5399009999226294  1.0000
  N   N14       1.0  0.864567603762609  0.10354182748788789  0.0398886227423674  1.0000
  N   N15       1.0  0.36455592412124105  0.10353043035868133  0.46009221225016017  1.0000
  N   N16       1.0  0.13544411785936458  0.8964656036721477  0.9601077176735869  1.0000
  O   O1        1.0  0.3273714662843972  0.8877598956900954  0.5536702574549963  1.0000
  O   O2        1.0  0.17264229488338156  0.11224089087067309  0.05364846383375979  1.0000
  O   O3        1.0  0.6726273270424629  0.11225109078996807  0.4463503257851613  1.0000
  O   O4        1.0  0.8273689556104601  0.887754705959594  0.9463705549690928  1.0000
  O   O5        1.0  0.934312664841194  0.9375613458121423  0.39205689655803877  1.0000
  O   O6        1.0  0.5656854798704316  0.06242365295253901  0.8920502202046096  1.0000
  O   O7        1.0  0.0656543067921902  0.062417922054329694  0.6079019059026649  1.0000
  O   O8        1.0  0.43436198212390315  0.9375883774778089  0.1079038910765533  1.0000
