data_image0
_chemical_formula_structural       Zn2H56C56N28
_chemical_formula_sum              "Zn2 H56 C56 N28"
_cell_length_a       8.64514412509688
_cell_length_b       12.63938739458908
_cell_length_c       13.02186873300278
_cell_angle_alpha    89.99998057916237
_cell_angle_beta     89.99993622051983
_cell_angle_gamma    106.40149835137706

_space_group_name_H-M_alt    "P 1"
_space_group_IT_number       1

loop_
  _space_group_symop_operation_xyz
  'x, y, z'

loop_
  _atom_site_type_symbol
  _atom_site_label
  _atom_site_symmetry_multiplicity
  _atom_site_fract_x
  _atom_site_fract_y
  _atom_site_fract_z
  _atom_site_occupancy
  Zn  Zn1       1.0  2.895585212938654e-07  0.9999969942656721  0.5000018065383286  1.0000
  Zn  Zn2       1.0  0.4999967869447986  0.9999966946353144  0.999998982482637  1.0000
  H   H1        1.0  0.9460492618512003  0.22992757781991466  0.4323730391046821  1.0000
  H   H2        1.0  0.5539512258593006  0.7700679397167253  0.9323796727676309  1.0000
  H   H3        1.0  0.05394962692541574  0.770067359071142  0.5676242225798942  1.0000
  H   H4        1.0  0.44604935526926676  0.22993112086047066  0.06762526830499377  1.0000
  H   H5        1.0  0.389583676672231  0.4463172479809643  0.31985172542300677  1.0000
  H   H6        1.0  0.11041697897305619  0.5536835217212898  0.8198545477161898  1.0000
  H   H7        1.0  0.6104172429335576  0.553682637336003  0.68014784007682  1.0000
  H   H8        1.0  0.8895821610741309  0.44632048300391625  0.18014501778363007  1.0000
  H   H9        1.0  0.5134915638867809  0.2878006877101243  0.34101226261017087  1.0000
  H   H10       1.0  0.9865111355040452  0.7121998455800522  0.8410132194912588  1.0000
  H   H11       1.0  0.4865141815225158  0.7122025008379114  0.6589896067041392  1.0000
  H   H12       1.0  0.013489161848433217  0.28780416057178126  0.1589871139470702  1.0000
  H   H13       1.0  0.34340682813788687  0.11026066133912595  0.4114868782261566  1.0000
  H   H14       1.0  0.15659745651429088  0.8897408698559701  0.9114864857517798  1.0000
  H   H15       1.0  0.656600751519001  0.8897441781105615  0.5885172949040152  1.0000
  H   H16       1.0  0.8434071315935227  0.11026231726684443  0.08851077592935747  1.0000
  H   H17       1.0  0.8700694226521222  0.49278142385335155  0.400052010758479  1.0000
  H   H18       1.0  0.6299294913729482  0.507215764124716  0.9000532977912596  1.0000
  H   H19       1.0  0.12993048153870032  0.5072159872505184  0.5999467868031869  1.0000
  H   H20       1.0  0.3700653032306889  0.4927832893199027  0.09994626771096897  1.0000
  H   H21       1.0  0.8993483791799121  0.3887190059277401  0.48521644461963104  1.0000
  H   H22       1.0  0.6006538381846126  0.6112781235722553  0.9852184875396045  1.0000
  H   H23       1.0  0.1006538396237744  0.6112784080302377  0.5147815850022467  1.0000
  H   H24       1.0  0.3993447668090794  0.38872175889088834  0.014781077961082195  1.0000
  H   H25       1.0  0.8239862115524373  0.3516281573780802  0.3607258978271445  1.0000
  H   H26       1.0  0.6760147564566168  0.6483682376958628  0.860727105050621  1.0000
  H   H27       1.0  0.17601383452871036  0.6483667809393271  0.6392728997348768  1.0000
  H   H28       1.0  0.323983510065922  0.3516308200297758  0.13927169251138588  1.0000
  H   H29       1.0  0.9028510487795386  0.0331395756639168  0.2792721733373042  1.0000
  H   H30       1.0  0.5971546224860093  0.9668651282383965  0.7792748716064605  1.0000
  H   H31       1.0  0.097153539328268  0.9668636114589052  0.7207250883438331  1.0000
  H   H32       1.0  0.40284132942063877  0.03313392663199719  0.22072776565107682  1.0000
  H   H33       1.0  0.8918547647437123  0.9476840907133881  0.10570400718857796  1.0000
  H   H34       1.0  0.6081374496204716  0.05231248087450521  0.6057023859328934  1.0000
  H   H35       1.0  0.108136361360188  0.052311660926228916  0.8942955583155479  1.0000
  H   H36       1.0  0.3918604784286402  0.9476857521127688  0.3942979475072476  1.0000
  H   H37       1.0  0.9820006263321871  0.7779646194114563  0.08497732949444978  1.0000
  H   H38       1.0  0.5179979506391632  0.22203609684533626  0.5849795596344334  1.0000
  H   H39       1.0  0.0179961444146812  0.22203361215032663  0.9150191642514468  1.0000
  H   H40       1.0  0.48200133129530814  0.7779654350922701  0.41502307762146967  1.0000
  H   H41       1.0  0.08968492565323065  0.7961204370672735  0.4089204090627162  1.0000
  H   H42       1.0  0.4103165691017169  0.2038827412127874  0.9089231228335347  1.0000
  H   H43       1.0  0.9103189855115231  0.2038811005802401  0.5910760846799972  1.0000
  H   H44       1.0  0.589688357471921  0.7961212706455641  0.09108028235881697  1.0000
  H   H45       1.0  0.20923396098933017  0.5757218139216322  0.14880489258975155  1.0000
  H   H46       1.0  0.2907650570944611  0.42427990371133023  0.6488060875209525  1.0000
  H   H47       1.0  0.7907643055347363  0.4242772438045677  0.8511923690943844  1.0000
  H   H48       1.0  0.7092372163997284  0.5757232805570995  0.35119271003890856  1.0000
  H   H49       1.0  0.21198620338294216  0.7065613726179409  0.09423052206224007  1.0000
  H   H50       1.0  0.2880100730657418  0.2934362601169412  0.5942279217173263  1.0000
  H   H51       1.0  0.7880072373307742  0.2934343818746471  0.9057713472578325  1.0000
  H   H52       1.0  0.7119909884311325  0.7065611524138405  0.4057708758439204  1.0000
  H   H53       1.0  0.033016974991433364  0.5959477143025894  0.09111200615391367  1.0000
  H   H54       1.0  0.4669856292095176  0.4040540501253461  0.5911138452302536  1.0000
  H   H55       1.0  0.9669839446173966  0.4040521710155147  0.9088844875901783  1.0000
  H   H56       1.0  0.5330179434795214  0.5959466627829644  0.4088864882073934  1.0000
  C   C1        1.0  0.07268653809963868  0.24644258685066237  0.4128193303447459  1.0000
  C   C2        1.0  0.42731557118808183  0.7535564677203158  0.91282415730965  1.0000
  C   C3        1.0  0.9273130276177568  0.7535539995148498  0.5871810030950539  1.0000
  C   C4        1.0  0.5726871826614969  0.24644506849688957  0.08718155170070928  1.0000
  C   C5        1.0  0.1579793178403079  0.3508003973529555  0.37591674434010247  1.0000
  C   C6        1.0  0.3420187156295569  0.6491970306547048  0.8759239720160746  1.0000
  C   C7        1.0  0.842017114432373  0.6491970094701787  0.6240820532228495  1.0000
  C   C8        1.0  0.6579817236117262  0.35080450271009067  0.12407789730046657  1.0000
  C   C9        1.0  0.32038084706305614  0.3664607721159073  0.3494396831576551  1.0000
  C   C10       1.0  0.17962023037313204  0.633538327732616  0.849446268090915  1.0000
  C   C11       1.0  0.679618915237448  0.6335391117744323  0.6505591144036698  1.0000
  C   C12       1.0  0.8203789096710138  0.36646567699145294  0.15055636916464005  1.0000
  C   C13       1.0  0.3883527574672172  0.2799422901866962  0.3607514125365156  1.0000
  C   C14       1.0  0.11164945488638275  0.7200568027538525  0.8607557159051564  1.0000
  C   C15       1.0  0.6116511536937351  0.7200592474594033  0.6392489209008758  1.0000
  C   C16       1.0  0.8883521416609527  0.2799447320378548  0.13924615341095856  1.0000
  C   C17       1.0  0.29357618083527365  0.1793053091146249  0.3990769922916399  1.0000
  C   C18       1.0  0.20642812838155317  0.8206962312254478  0.8990765853232927  1.0000
  C   C19       1.0  0.7064284072656974  0.8206978780056461  0.6009271808399033  1.0000
  C   C20       1.0  0.7935738066369282  0.17930612830377166  0.10092605193150206  1.0000
  C   C21       1.0  0.07728547050650998  0.4387160781714813  0.3666723110517011  1.0000
  C   C22       1.0  0.4227167301302401  0.5612830104071023  0.8666733640042137  1.0000
  C   C23       1.0  0.9227144336835522  0.5612813329321114  0.6333272544489075  1.0000
  C   C24       1.0  0.5772822133361258  0.4387176967941215  0.13332543355728174  1.0000
  C   C25       1.0  0.9079195773150132  0.41738298287767617  0.4051234776948363  1.0000
  C   C26       1.0  0.592081160920493  0.5826158522653914  0.9051255362397509  1.0000
  C   C27       1.0  0.09208100382038958  0.5826160777020706  0.5948745519273826  1.0000
  C   C28       1.0  0.40791676712937885  0.41738238072216677  0.09487402926144736  1.0000
  C   C29       1.0  0.9412708543594944  0.9590595820743035  0.2677137602645557  1.0000
  C   C30       1.0  0.5587401459559727  0.040946785529769214  0.7677137151149506  1.0000
  C   C31       1.0  0.05873638683080171  0.04094443263957001  0.7322850372933302  1.0000
  C   C32       1.0  0.44125879750734487  0.959053921670325  0.23228815420227986  1.0000
  C   C33       1.0  0.9355063165215186  0.9109344511652258  0.1712537285673505  1.0000
  C   C34       1.0  0.5644975377298993  0.08906538391065769  0.6712551994468752  1.0000
  C   C35       1.0  0.06449426461388442  0.08906460941451404  0.8287443010548682  1.0000
  C   C36       1.0  0.4355060349576192  0.9109353289970844  0.3287466698686428  1.0000
  C   C37       1.0  0.9859075695466825  0.8162871216783645  0.1602399450573273  1.0000
  C   C38       1.0  0.5140901815059848  0.18371188964218285  0.6602391187453305  1.0000
  C   C39       1.0  0.014088862726751488  0.1837102851450538  0.8397580845666963  1.0000
  C   C40       1.0  0.48591372965344687  0.8162896480033484  0.3397627505699247  1.0000
  C   C41       1.0  0.04016970237263713  0.7711633193802359  0.24693369639108903  1.0000
  C   C42       1.0  0.45982062716781513  0.22883172090458004  0.7469325257632916  1.0000
  C   C43       1.0  0.9598202664252113  0.22883243083246907  0.753065869113456  1.0000
  C   C44       1.0  0.5401809693802733  0.7711698138874113  0.2530685756138879  1.0000
  C   C45       1.0  0.04369840036660128  0.8265322958721842  0.34062070024953056  1.0000
  C   C46       1.0  0.4563055441987344  0.17347093559358484  0.8406203180993399  1.0000
  C   C47       1.0  0.9563005430997578  0.1734684113290399  0.659378097311965  1.0000
  C   C48       1.0  0.5436955719871294  0.8265322472470803  0.1593807832777543  1.0000
  C   C49       1.0  0.09391761477444756  0.6707358578286888  0.2403117553458784  1.0000
  C   C50       1.0  0.4060742236539736  0.3292600135014538  0.7403082881266483  1.0000
  C   C51       1.0  0.9060731728567786  0.3292590690728546  0.7596885780974315  1.0000
  C   C52       1.0  0.5939250582858194  0.6707415184381279  0.2596889735567131  1.0000
  C   C53       1.0  0.14000789737041697  0.6352579160959453  0.13770742300746963  1.0000
  C   C54       1.0  0.35998815112731103  0.36474215738658705  0.6377055142639845  1.0000
  C   C55       1.0  0.859987377595452  0.36473948929999284  0.8622921424948442  1.0000
  C   C56       1.0  0.6400122881177666  0.6352593759796222  0.3622925153578862  1.0000
  N   N1        1.0  0.13810111156944058  0.16269231677918586  0.4254204296920958  1.0000
  N   N2        1.0  0.3619047831712692  0.8373075575267067  0.9254191344016645  1.0000
  N   N3        1.0  0.8619032799491819  0.8373075728165421  0.5745845113789867  1.0000
  N   N4        1.0  0.6380972937360099  0.16269232921547436  0.07458503873134957  1.0000
  N   N5        1.0  0.16019674039539916  0.5307968223559385  0.3248395599567288  1.0000
  N   N6        1.0  0.3398035669072853  0.4692031189338337  0.8248399361250588  1.0000
  N   N7        1.0  0.8398008491840868  0.4692005858943916  0.6751584696668613  1.0000
  N   N8        1.0  0.6601919046401719  0.5307975839863702  0.17515962937665105  1.0000
  N   N9        1.0  0.09751560053504708  0.617591376065562  0.32529802862547536  1.0000
  N   N10       1.0  0.40248388702752175  0.38240938819781434  0.8252968506664043  1.0000
  N   N11       1.0  0.9024819890429185  0.38240603218419994  0.6747015368759859  1.0000
  N   N12       1.0  0.5975117811007564  0.6175946122463715  0.17470348277363706  1.0000
  N   N13       1.0  0.9952926411350446  0.9176092575306999  0.3513015962017646  1.0000
  N   N14       1.0  0.5047190125573735  0.08239622516575203  0.8513015775843795  1.0000
  N   N15       1.0  0.004709435778316604  0.08239062921374803  0.648696433419772  1.0000
  N   N16       1.0  0.49528441824134717  0.917606960529021  0.14869875585291933  1.0000
  N   N17       1.0  0.22910118534298368  0.9747733306969909  0.5320938939656655  1.0000
  N   N18       1.0  0.2709038502935143  0.025228480076030707  0.032095135551557484  1.0000
  N   N19       1.0  0.7709047019604326  0.025227385065989007  0.4679041356543222  1.0000
  N   N20       1.0  0.7291018951150222  0.9747747084717209  0.9679075017016954  1.0000
  N   N21       1.0  0.28025348775278763  0.9108460324816152  0.5794526794916164  1.0000
  N   N22       1.0  0.21974580950517722  0.08915326347317892  0.07944856263664946  1.0000
  N   N23       1.0  0.7197479122167535  0.08915220478724714  0.4205453501304318  1.0000
  N   N24       1.0  0.7802547716294653  0.9108457971062761  0.9205502349245048  1.0000
  N   N25       1.0  0.3350332696884735  0.8494159525999623  0.6249315487598747  1.0000
  N   N26       1.0  0.16495851335049141  0.15058494932903704  0.12492514871184567  1.0000
  N   N27       1.0  0.6649639814183386  0.15058063091228752  0.3750672488029067  1.0000
  N   N28       1.0  0.835032809338031  0.8494140998359754  0.875071345035934  1.0000
