data_image0
_chemical_formula_structural       Cd2H22C24N10Cl2O4
_chemical_formula_sum              "Cd2 H22 C24 N10 Cl2 O4"
_cell_length_a       8.26569874435462
_cell_length_b       9.220275462433527
_cell_length_c       11.616052863573854
_cell_angle_alpha    115.57871527866085
_cell_angle_beta     98.15861057508764
_cell_angle_gamma    103.98545156327465

_space_group_name_H-M_alt    "P 1"
_space_group_IT_number       1

loop_
  _space_group_symop_operation_xyz
  'x, y, z'

loop_
  _atom_site_type_symbol
  _atom_site_label
  _atom_site_symmetry_multiplicity
  _atom_site_fract_x
  _atom_site_fract_y
  _atom_site_fract_z
  _atom_site_occupancy
  Cd  Cd1       1.0  0.6618817650265997  0.5020036187783246  0.6353101179846874  1.0000
  Cd  Cd2       1.0  0.33812391452541846  0.49799842461770516  0.36469078076168415  1.0000
  H   H1        1.0  0.8308461526935602  0.4619657022429278  0.8875381608996021  1.0000
  H   H2        1.0  0.1691399569548436  0.5380222972337091  0.11245567266225716  1.0000
  H   H3        1.0  0.9035017902710932  0.4719028213609277  0.10809101960222016  1.0000
  H   H4        1.0  0.09648491402879235  0.5280903507762459  0.8919053551431445  1.0000
  H   H5        1.0  0.7846767175432278  0.6272766463926016  0.2900481879212435  1.0000
  H   H6        1.0  0.21531099035155413  0.3727265693193187  0.7099488478248972  1.0000
  H   H7        1.0  0.5705911357026279  0.7642446132833097  0.25346979785590656  1.0000
  H   H8        1.0  0.4294010894019564  0.2357678366833368  0.7465348617051716  1.0000
  H   H9        1.0  0.49443560513047646  0.9461433872753698  0.8596166912892967  1.0000
  H   H10       1.0  0.5055592434340497  0.053866252378242094  0.1403838780470537  1.0000
  H   H11       1.0  0.43386331576186166  0.7514276760142662  0.706037213043345  1.0000
  H   H12       1.0  0.566126876031646  0.2485860006131445  0.2939667837456668  1.0000
  H   H13       1.0  0.9351908489044618  0.8804261488262736  0.9138726366425869  1.0000
  H   H14       1.0  0.0648023238716107  0.11956084497014527  0.0861258373017648  1.0000
  H   H15       1.0  0.11039797188745834  0.544107529444659  0.6229809743867065  1.0000
  H   H16       1.0  0.8896083749698461  0.4558961528487584  0.3770256717590569  1.0000
  H   H17       1.0  0.8804933584809403  0.04005927855098428  0.4711157578953901  1.0000
  H   H18       1.0  0.11950750509893025  0.959929393334505  0.5288718805194533  1.0000
  H   H19       1.0  0.8939251581088141  0.08619447378394088  0.6399136815626534  1.0000
  H   H20       1.0  0.10609938239729627  0.913813157972029  0.3600803565153043  1.0000
  H   H21       1.0  0.6970753812997045  0.9525902948420747  0.5152337426395306  1.0000
  H   H22       1.0  0.30294021382165687  0.047418705430793295  0.4847788684150061  1.0000
  C   C1        1.0  0.6684987792166054  0.6164005612701755  0.9495549709357006  1.0000
  C   C2        1.0  0.3315005400252175  0.38360053259103194  0.05044935677020846  1.0000
  C   C3        1.0  0.7815758598717223  0.534971869628748  0.9676837992010546  1.0000
  C   C4        1.0  0.21840770059996825  0.465019060859447  0.032315893132022176  1.0000
  C   C5        1.0  0.8168177821087498  0.5372853047941104  0.09127474061438076  1.0000
  C   C6        1.0  0.18318238277061027  0.4627078715469322  0.9087237298271873  1.0000
  C   C7        1.0  0.7489840533469233  0.6254518802396942  0.1954256711692181  1.0000
  C   C8        1.0  0.25101138373704396  0.3745525212999822  0.8045715828397418  1.0000
  C   C9        1.0  0.6305500593036584  0.7018917089745357  0.17691225177292577  1.0000
  C   C10       1.0  0.3694475951700297  0.29810811318901625  0.8230915240437183  1.0000
  C   C11       1.0  0.5899304786172266  0.6989708342628161  0.05228916175779831  1.0000
  C   C12       1.0  0.41005848347284507  0.30102512777087737  0.9477117437297266  1.0000
  C   C13       1.0  0.5050689945423981  0.7320983996501762  0.8833011911809193  1.0000
  C   C14       1.0  0.4949282620082016  0.26791792575870926  0.11670600832119497  1.0000
  C   C15       1.0  0.42489488540502407  0.8066177482470848  0.8086015655311626  1.0000
  C   C16       1.0  0.5751088722607562  0.19338570285751894  0.19140132326289458  1.0000
  C   C17       1.0  0.020718780051751533  0.8238103872743492  0.8607796746544734  1.0000
  C   C18       1.0  0.9792848335501957  0.17619957874597958  0.13922697122688282  1.0000
  C   C19       1.0  0.10293153345064343  0.6492044705928278  0.710839873479962  1.0000
  C   C20       1.0  0.8970674853994113  0.35078883155087925  0.2891602553787394  1.0000
  C   C21       1.0  0.7549052345720996  0.21723197011663584  0.5731086508557439  1.0000
  C   C22       1.0  0.2451131949804405  0.7827579674621173  0.42688185540328755  1.0000
  C   C23       1.0  0.8114927431224571  0.06556948544478297  0.54752982465925  1.0000
  C   C24       1.0  0.188520733769927  0.9344234537030541  0.4524672043855346  1.0000
  N   N1        1.0  0.6097929378822257  0.6442011248741079  0.8431647166799721  1.0000
  N   N2        1.0  0.39019602583727664  0.3557984916212645  0.1568347511381631  1.0000
  N   N3        1.0  0.48454319317247035  0.7664713530502636  0.010423077720453502  1.0000
  N   N4        1.0  0.5154573096259227  0.23353388242982473  0.9895688686531087  1.0000
  N   N5        1.0  0.24261625422702335  0.7816430880062907  0.8038824859316661  1.0000
  N   N6        1.0  0.7573940911012613  0.21836843104152587  0.1961295737226365  1.0000
  N   N7        1.0  0.1924708827787496  0.8952917530190442  0.9007827465655608  1.0000
  N   N8        1.0  0.807518008286948  0.10471139723949106  0.0992135150366948  1.0000
  N   N9        1.0  0.9599565134045064  0.6719787164012555  0.7450501709135082  1.0000
  N   N10       1.0  0.04003858738985135  0.3280172804610685  0.25495216949406085  1.0000
  Cl  Cl1       1.0  0.6719819757450978  0.6481156970173243  0.4898645033815042  1.0000
  Cl  Cl2       1.0  0.32802854628601347  0.35188261115123237  0.5101373892784479  1.0000
  O   O1        1.0  0.7656118162730009  0.28149285979871747  0.49561089394536134  1.0000
  O   O2        1.0  0.23441009425546608  0.7185029644235286  0.5043929850348688  1.0000
  O   O3        1.0  0.6962293289310182  0.278930937163011  0.6738730787568272  1.0000
  O   O4        1.0  0.3037816363119176  0.721069200417922  0.3261190861439616  1.0000
