data_image0
_chemical_formula_structural       Zn4H44C38N4O20
_chemical_formula_sum              "Zn4 H44 C38 N4 O20"
_cell_length_a       7.285521149786514
_cell_length_b       7.285499016576018
_cell_length_c       26.48046586146922
_cell_angle_alpha    90.00001198517974
_cell_angle_beta     89.99932349724676
_cell_angle_gamma    89.32294009396908

_space_group_name_H-M_alt    "P 1"
_space_group_IT_number       1

loop_
  _space_group_symop_operation_xyz
  'x, y, z'

loop_
  _atom_site_type_symbol
  _atom_site_label
  _atom_site_symmetry_multiplicity
  _atom_site_fract_x
  _atom_site_fract_y
  _atom_site_fract_z
  _atom_site_occupancy
  Zn  Zn1       1.0  0.035693249670345  0.31341808551782424  0.7200741397818574  1.0000
  Zn  Zn2       1.0  0.6865807923185653  0.9643108467813235  0.2799263937721079  1.0000
  Zn  Zn3       1.0  0.1865753979321809  0.4643136072345797  0.22007250037432163  1.0000
  Zn  Zn4       1.0  0.5356889519226442  0.8134235768598329  0.7799276555586019  1.0000
  H   H1        1.0  0.7688662113607873  0.2026520366857767  0.7702552298710188  1.0000
  H   H2        1.0  0.7973476439066615  0.2311372830415763  0.2297454339923917  1.0000
  H   H3        1.0  0.297342617376941  0.7311399387576145  0.2702542248817537  1.0000
  H   H4        1.0  0.26886568283386936  0.7026546312734252  0.7297458086392865  1.0000
  H   H5        1.0  0.7693794579947522  0.42438532550592356  0.7703020613318188  1.0000
  H   H6        1.0  0.575615496771576  0.23062644532130613  0.229698586691633  1.0000
  H   H7        1.0  0.07560908166785647  0.7306304760270947  0.2702991433404378  1.0000
  H   H8        1.0  0.26938030408771135  0.9243879177866176  0.7296997414301103  1.0000
  H   H9        1.0  0.30780706884395664  0.314611299904307  0.8668902271291187  1.0000
  H   H10       1.0  0.6853869465609391  0.6921895686951843  0.1331087304326672  1.0000
  H   H11       1.0  0.18539029826137468  0.19219250978306954  0.36688977685965796  1.0000
  H   H12       1.0  0.8078174711524325  0.8146055910307978  0.6331114465010614  1.0000
  H   H13       1.0  0.08421071767215688  0.31580421392028774  0.8368616595846701  1.0000
  H   H14       1.0  0.6841963690488199  0.915789733722555  0.1631361550620269  1.0000
  H   H15       1.0  0.18419827479745268  0.4157926373062111  0.3368616115199429  1.0000
  H   H16       1.0  0.584218448061385  0.8157985492783412  0.6631403571166317  1.0000
  H   H17       1.0  0.6839169385070035  0.3158650072785747  0.6398769985667768  1.0000
  H   H18       1.0  0.6841183961424874  0.3160854908943238  0.3601217235900194  1.0000
  H   H19       1.0  0.18412992187405305  0.8160948097841539  0.13987603844610416  1.0000
  H   H20       1.0  0.18390529222820354  0.8158664204592796  0.8601228086334203  1.0000
  H   H21       1.0  0.44979269522622894  0.34827027048136466  0.7075019422048924  1.0000
  H   H22       1.0  0.6517171709881422  0.5502113443779422  0.2924975934832332  1.0000
  H   H23       1.0  0.1517204863411195  0.050220937217638095  0.2074998826064629  1.0000
  H   H24       1.0  0.9497809484956788  0.8482799086643953  0.7925004083694347  1.0000
  H   H25       1.0  0.024128341162196393  0.2615791503294104  0.6076274949592743  1.0000
  H   H26       1.0  0.7384226641957381  0.9758718973673483  0.3923741056335004  1.0000
  H   H27       1.0  0.2384193201753178  0.47588136848565904  0.10762499961582249  1.0000
  H   H28       1.0  0.524121825288617  0.7615944032098978  0.8923769786302954  1.0000
  H   H29       1.0  0.240233108233319  0.2215164164199663  0.5350476069253105  1.0000
  H   H30       1.0  0.778477776340061  0.7597634443761551  0.46495244181488726  1.0000
  H   H31       1.0  0.27848713906330846  0.2597769163631227  0.0350453910421322  1.0000
  H   H32       1.0  0.7402234938783748  0.7215276527380327  0.9649554129727844  1.0000
  H   H33       1.0  0.6017611010742313  0.10783649031570522  0.5208376794396727  1.0000
  H   H34       1.0  0.8921526421285221  0.39824268050005424  0.4791597039363893  1.0000
  H   H35       1.0  0.39215972427705725  0.898250475945744  0.020834748098963  1.0000
  H   H36       1.0  0.10175253974703216  0.6078380564989699  0.9791627602019801  1.0000
  H   H37       1.0  0.7595283205797185  0.2396521180416471  0.5558560720982441  1.0000
  H   H38       1.0  0.7603404678150836  0.240470195800782  0.444141646465944  1.0000
  H   H39       1.0  0.2603542563878917  0.7404793994463432  0.05585586627785231  1.0000
  H   H40       1.0  0.25952268904780595  0.7396495149640998  0.9441423548324863  1.0000
  H   H41       1.0  0.471064201271872  0.38886613383225915  0.4811267374253916  1.0000
  H   H42       1.0  0.6111233723840781  0.5289274347344843  0.5188743404109601  1.0000
  H   H43       1.0  0.11112043661564287  0.028927792433357503  0.9811253099889967  1.0000
  H   H44       1.0  0.9710725575874188  0.8888726305832934  0.0188757678387788  1.0000
  C   C1        1.0  0.280467392677096  0.13930536527846732  0.8017490414072412  1.0000
  C   C2        1.0  0.8606897858919067  0.71953630802998  0.19824967416536768  1.0000
  C   C3        1.0  0.3606836166666624  0.2195378055245456  0.3017482694563469  1.0000
  C   C4        1.0  0.7804707467645428  0.6393107356866209  0.6982515790315417  1.0000
  C   C5        1.0  0.23391950502509218  0.31413073770249866  0.830997473116021  1.0000
  C   C6        1.0  0.6858786437124991  0.7660804902917279  0.169001226845964  1.0000
  C   C7        1.0  0.18589315671061968  0.2660833654966694  0.33099728238743603  1.0000
  C   C8        1.0  0.7339272333116396  0.8141003729554013  0.6690036833592146  1.0000
  C   C9        1.0  0.2802553901761867  0.48576940255745865  0.8008298819379007  1.0000
  C   C10       1.0  0.5142273749208924  0.7197480695869347  0.1991697782470965  1.0000
  C   C11       1.0  0.014226777867669696  0.2197454387766555  0.30082890438009  1.0000
  C   C12       1.0  0.7802628782043256  0.9857692767916079  0.6991722663411792  1.0000
  C   C13       1.0  0.5390785694957854  0.3022926112129767  0.6306734660756987  1.0000
  C   C14       1.0  0.697692286951863  0.46092433264469435  0.36932660367081377  1.0000
  C   C15       1.0  0.19770283835061517  0.9609336409054735  0.1306714992018243  1.0000
  C   C16       1.0  0.039067869633384995  0.8022967803885878  0.8693268072832154  1.0000
  C   C17       1.0  0.40883002305741184  0.3207754974595148  0.6687575985500445  1.0000
  C   C18       1.0  0.6792121334784723  0.5911733274496955  0.3312427144378205  1.0000
  C   C19       1.0  0.17921852584953504  0.091180118502642  0.16875505263254098  1.0000
  C   C20       1.0  0.9088193730698463  0.8207824399684114  0.8312452603625218  1.0000
  C   C21       1.0  0.1718212210141842  0.2727804139840658  0.6126838147882907  1.0000
  C   C22       1.0  0.7272166308396846  0.8281795470216977  0.3873171849474204  1.0000
  C   C23       1.0  0.22721581323160928  0.3281890207271799  0.11268194933134619  1.0000
  C   C24       1.0  0.6718108340836294  0.7727929211519536  0.8873190504229455  1.0000
  C   C25       1.0  0.2933853267817241  0.25053552180787614  0.5727001828088447  1.0000
  C   C26       1.0  0.7494528833869649  0.7066188515099726  0.4272998264718879  1.0000
  C   C27       1.0  0.24946477667241138  0.2066282513708799  0.0726988526525076  1.0000
  C   C28       1.0  0.7933705205080555  0.750542598634773  0.9273022895438955  1.0000
  C   C29       1.0  0.4826092613232402  0.2638185383221909  0.5814240449528967  1.0000
  C   C30       1.0  0.7361717584229978  0.5173945464860097  0.4185760542155919  1.0000
  C   C31       1.0  0.2361805290362823  0.01740396302898261  0.08142190336972989  1.0000
  C   C32       1.0  0.982596233101617  0.7638228553408056  0.9185778181690907  1.0000
  C   C33       1.0  0.6204513154596325  0.24153470277922648  0.5396020505024453  1.0000
  C   C34       1.0  0.7584543966051382  0.3795485292753753  0.46039665387625917  1.0000
  C   C35       1.0  0.25846063888238285  0.8795590963267229  0.03960049399182  1.0000
  C   C36       1.0  0.12044351012377054  0.741541733458597  0.960398712948951  1.0000
  C   C37       1.0  0.6055064163169489  0.3944831036230169  0.5000004335732413  1.0000
  C   C38       1.0  0.10550755102210017  0.8944895084573757  0.9999998514254642  1.0000
  N   N1        1.0  0.2280561458756409  0.3056997104717282  0.6601534336306898  1.0000
  N   N2        1.0  0.694296406724682  0.7719487055518998  0.3398475279746052  1.0000
  N   N3        1.0  0.19429769491454602  0.2719541208583607  0.1601520873419133  1.0000
  N   N4        1.0  0.7280478688277583  0.8057066605275478  0.8398488742749493  1.0000
  O   O1        1.0  0.19877407039613357  0.1136190253591778  0.7594927406274364  1.0000
  O   O2        1.0  0.8863807751981482  0.8012349478134979  0.24050455598808182  1.0000
  O   O3        1.0  0.38638339520391435  0.301226766227117  0.2594929310990963  1.0000
  O   O4        1.0  0.6987825709918595  0.6136134621758059  0.740507386593059  1.0000
  O   O5        1.0  0.3963127944322763  0.028430285092241495  0.8207330346935463  1.0000
  O   O6        1.0  0.9715643852011763  0.6036851907002613  0.1792671982695211  1.0000
  O   O7        1.0  0.47157100892173526  0.10369767378610112  0.3207296271553446  1.0000
  O   O8        1.0  0.8963088460386928  0.5284246609403099  0.6792706058035733  1.0000
  O   O9        1.0  0.19565155854417776  0.5133841158850956  0.7589753927463931  1.0000
  O   O10       1.0  0.48661729144419735  0.8043532156016936  0.2410248285980714  1.0000
  O   O11       1.0  0.9866155069015502  0.304356100459671  0.2589746014069405  1.0000
  O   O12       1.0  0.695651965191807  0.0133828553516366  0.7410266279280934  1.0000
  O   O13       1.0  0.3994799016380952  0.5923265012485501  0.8187670656147077  1.0000
  O   O14       1.0  0.40767046950643493  0.6005212109615741  0.18123257385275338  1.0000
  O   O15       1.0  0.9076772324696946  0.10050906197224659  0.3187667231694959  1.0000
  O   O16       1.0  0.8995007952461832  0.09231963722734092  0.6812350571518307  1.0000
  O   O17       1.0  0.8424578696914292  0.3124435311233782  0.7799955014619613  1.0000
  O   O18       1.0  0.6875573150306947  0.1575470726464587  0.2200052216033441  1.0000
  O   O19       1.0  0.18754774924802578  0.6575497487075594  0.2799932770532862  1.0000
  O   O20       1.0  0.3424591212431948  0.8124474825327682  0.720005682763542  1.0000
