data_image0
_chemical_formula_structural       CdH8C10S2N6
_chemical_formula_sum              "Cd1 H8 C10 S2 N6"
_cell_length_a       6.889687439909505
_cell_length_b       7.566520232572213
_cell_length_c       7.566481838193098
_cell_angle_alpha    89.11143451382276
_cell_angle_beta     70.60586429606023
_cell_angle_gamma    70.60641691478408

_space_group_name_H-M_alt    "P 1"
_space_group_IT_number       1

loop_
  _space_group_symop_operation_xyz
  'x, y, z'

loop_
  _atom_site_type_symbol
  _atom_site_label
  _atom_site_symmetry_multiplicity
  _atom_site_fract_x
  _atom_site_fract_y
  _atom_site_fract_z
  _atom_site_occupancy
  Cd  Cd1       1.0  0.9999941385207053  0.5000073859223733  0.500005637197475  1.0000
  H   H1        1.0  0.32490677545758456  0.2999446789311406  0.06096183119876031  1.0000
  H   H2        1.0  0.6750866203101891  0.939048958497395  0.7000463652100493  1.0000
  H   H3        1.0  0.6750847651511905  0.7000423579757252  0.9390550607909843  1.0000
  H   H4        1.0  0.32490546447193946  0.06095800192008481  0.29994094843942776  1.0000
  H   H5        1.0  0.695399517199661  0.6968636469692343  0.2679699806665069  1.0000
  H   H6        1.0  0.30460971171085294  0.7320382659787724  0.30310889688695397  1.0000
  H   H7        1.0  0.3046027489858857  0.30311213064378245  0.7320436891591342  1.0000
  H   H8        1.0  0.695401631891329  0.2679701873569583  0.6968656677494353  1.0000
  C   C1        1.0  0.5299201843251283  0.28181400147299474  0.2818059049283619  1.0000
  C   C2        1.0  0.47009598933608016  0.7181956631911248  0.7182014742081079  1.0000
  C   C3        1.0  0.17913715032301522  0.3894197932755645  0.033785270656799996  1.0000
  C   C4        1.0  0.8208627103558327  0.9662160347429493  0.6105743871057284  1.0000
  C   C5        1.0  0.820864941566505  0.6105786141048596  0.9662175106750651  1.0000
  C   C6        1.0  0.17913754025769887  0.0337824492215404  0.38941575919711363  1.0000
  C   C7        1.0  0.8311866434826882  0.609671935634914  0.14692515248892585  1.0000
  C   C8        1.0  0.1688180127133095  0.8530811758907288  0.3903203361649047  1.0000
  C   C9        1.0  0.1688140024895048  0.3903264443860834  0.8530820539623463  1.0000
  C   C10       1.0  0.8311926971225319  0.1469215943299602  0.609661131633295  1.0000
  S   S1        1.0  0.7410448849961851  0.1282539489233443  0.12824492526335263  1.0000
  S   S2        1.0  0.2589431669778364  0.8717599576636629  0.871759417824883  1.0000
  N   N1        1.0  0.37231660096945507  0.3943147132360636  0.39431501411608844  1.0000
  N   N2        1.0  0.6276909186214538  0.605689339402879  0.6056872734823812  1.0000
  N   N3        1.0  0.01012963743403353  0.49900061061713075  0.17969679798127908  1.0000
  N   N4        1.0  0.9898577142757289  0.8203164456557558  0.5009899753228665  1.0000
  N   N5        1.0  0.9898502092973729  0.5009920904207236  0.8203157838241705  1.0000
  N   N6        1.0  0.010146064383775378  0.17968485063073564  0.4990016485109052  1.0000
