data_image0
_chemical_formula_structural       Al2H16C28Br2N2O10
_chemical_formula_sum              "Al2 H16 C28 Br2 N2 O10"
_cell_length_a       6.655400752875346
_cell_length_b       11.175454560505122
_cell_length_c       17.746548631889713
_cell_angle_alpha    85.19634207511349
_cell_angle_beta     79.82039759036631
_cell_angle_gamma    72.16192490855953

_space_group_name_H-M_alt    "P 1"
_space_group_IT_number       1

loop_
  _space_group_symop_operation_xyz
  'x, y, z'

loop_
  _atom_site_type_symbol
  _atom_site_label
  _atom_site_symmetry_multiplicity
  _atom_site_fract_x
  _atom_site_fract_y
  _atom_site_fract_z
  _atom_site_occupancy
  Al  Al1       1.0  0.4875283089808137  0.5029256414272537  0.5032881554119017  1.0000
  Al  Al2       1.0  0.9856364784517455  0.5070437925112898  0.5022106306078342  1.0000
  H   H1        1.0  0.29092294716493666  0.3529866184610739  0.5406407887282257  1.0000
  H   H2        1.0  0.7371311225189744  0.5855071042160985  0.4144553957493073  1.0000
  H   H3        1.0  0.6943543198413592  0.4494417973935255  0.2772035527107946  1.0000
  H   H4        1.0  0.7835859202247094  0.4288957281116765  0.1349464761169088  1.0000
  H   H5        1.0  0.02473274828245292  0.5468348412012676  0.2626641367445117  1.0000
  H   H6        1.0  0.9168150791528974  0.5482436746241744  0.7352247649478728  1.0000
  H   H7        1.0  0.3579903854060049  0.4341812760291147  0.730946328877394  1.0000
  H   H8        1.0  0.2963323266992217  0.4175200863848049  0.8743942553628514  1.0000
  H   H9        1.0  0.23170155429370004  0.23225062489990472  0.3969849639607119  1.0000
  H   H10       1.0  0.4577082249180292  0.7654276448810363  0.4151111645375209  1.0000
  H   H11       1.0  0.747500094474226  0.8891396393580494  0.5561269179125008  1.0000
  H   H12       1.0  0.6340788380744299  0.12420270449398169  0.5485057607644279  1.0000
  H   H13       1.0  0.11827367518307598  0.5584934046814354  0.053142480052919404  1.0000
  H   H14       1.0  0.9279919711074386  0.5951104227942849  0.13342516649426978  1.0000
  H   H15       1.0  0.8275013620444084  0.55908521153399  0.9446377355219227  1.0000
  H   H16       1.0  0.9799347949687772  0.5922275831852631  0.8615024540637605  1.0000
  C   C1        1.0  0.8566312855831979  0.2761489220806652  0.4907065548555067  1.0000
  C   C2        1.0  0.6788317876587016  0.5013280779884964  0.6404165329769854  1.0000
  C   C3        1.0  0.1250155764174678  0.730633822063581  0.505943722720879  1.0000
  C   C4        1.0  0.3016291969642849  0.5065403393495131  0.3624406153852959  1.0000
  C   C5        1.0  0.3539358302559279  0.5001647213956134  0.2775395980826971  1.0000
  C   C6        1.0  0.5689412333889122  0.4685353641845751  0.2420005194509187  1.0000
  C   C7        1.0  0.617662890462405  0.4575725698242509  0.16319472936059043  1.0000
  C   C8        1.0  0.45458314485869505  0.483188151271314  0.11774480350621275  1.0000
  C   C9        1.0  0.23612309344620278  0.5181453329206464  0.1537415234318757  1.0000
  C   C10       1.0  0.19025605019503905  0.5232212340381891  0.2338694177852503  1.0000
  C   C11       1.0  0.5014268897669182  0.4779194332699959  0.03713271169483082  1.0000
  C   C12       1.0  0.5263569243244247  0.4764169581018151  0.967065217541034  1.0000
  C   C13       1.0  0.5660573876482928  0.47882667274519974  0.8862321816772082  1.0000
  C   C14       1.0  0.7451965226008923  0.5160286764031882  0.8470630210132271  1.0000
  C   C15       1.0  0.7800779839139977  0.521327657715446  0.7667110375668288  1.0000
  C   C16       1.0  0.6399843807687728  0.49352417883962135  0.7257296481007742  1.0000
  C   C17       1.0  0.46364865444626013  0.4566203544029293  0.7642252286194022  1.0000
  C   C18       1.0  0.429950806590604  0.4479510144121335  0.8435618244518466  1.0000
  C   C19       1.0  0.9321572790567034  0.13624063597117697  0.48552736971277705  1.0000
  C   C20       1.0  0.13995813320116918  0.0690580390925959  0.44754226547463116  1.0000
  C   C21       1.0  0.7934775713382578  0.0709903687835265  0.5218183876924627  1.0000
  C   C22       1.0  0.27962676222495025  0.13014251025033022  0.40193061629648963  1.0000
  C   C23       1.0  0.47476633969224474  0.0624825021804085  0.3629017637440199  1.0000
  C   C24       1.0  0.062136296482492345  0.8705577850006351  0.4951340311886767  1.0000
  C   C25       1.0  0.857438070811  0.9390537390158897  0.5265419200527364  1.0000
  C   C26       1.0  0.20561957074892215  0.9338599033894753  0.4525931488148771  1.0000
  C   C27       1.0  0.4068977340282414  0.8673595649557913  0.4117358509089187  1.0000
  C   C28       1.0  0.5387221011128246  0.9292399145943548  0.36784090112684  1.0000
  Br  Br1       1.0  0.6491398419162024  0.1516671983411655  0.30220554860186166  1.0000
  Br  Br2       1.0  0.8039691231634691  0.8312276492564693  0.3143827062215366  1.0000
  N   N1        1.0  0.0754665807158617  0.5422222209376812  0.1099885282349433  1.0000
  N   N2        1.0  0.8830520483626713  0.5420079573277263  0.8883239832876271  1.0000
  O   O1        1.0  0.6581137419791644  0.3292763479512003  0.48979357696317294  1.0000
  O   O2        1.0  0.8560233088280428  0.5160826396988015  0.607164211601031  1.0000
  O   O3        1.0  0.9817865717917367  0.6781450808372683  0.5034705848248039  1.0000
  O   O4        1.0  0.44746740634045795  0.5171771245945749  0.39717635935764406  1.0000
  O   O5        1.0  0.3154282907892067  0.6740648302254686  0.5168664041999236  1.0000
  O   O6        1.0  0.11666006545384984  0.501175315292663  0.3942718914964729  1.0000
  O   O7        1.0  0.9930693768967345  0.3312753124720587  0.49883016026185345  1.0000
  O   O8        1.0  0.5316141402386946  0.4910752467609072  0.6065046429256284  1.0000
  O   O9        1.0  0.252352855505201  0.4435492380370079  0.5324894730503971  1.0000
  O   O10       1.0  0.7242049766353632  0.5595747265435946  0.46820780984629107  1.0000
