data_image0
_chemical_formula_structural       Zn2H32C40N8O8
_chemical_formula_sum              "Zn2 H32 C40 N8 O8"
_cell_length_a       7.0418477803479265
_cell_length_b       7.041786294671939
_cell_length_c       19.623965854133687
_cell_angle_alpha    89.4520902223384
_cell_angle_beta     89.45252485478859
_cell_angle_gamma    114.6068791387112

_space_group_name_H-M_alt    "P 1"
_space_group_IT_number       1

loop_
  _space_group_symop_operation_xyz
  'x, y, z'

loop_
  _atom_site_type_symbol
  _atom_site_label
  _atom_site_symmetry_multiplicity
  _atom_site_fract_x
  _atom_site_fract_y
  _atom_site_fract_z
  _atom_site_occupancy
  Zn  Zn1       1.0  0.3531526665361897  0.6468544602776877  0.7500019397214573  1.0000
  Zn  Zn2       1.0  0.6468507017102284  0.35314087928946963  0.2500002407190323  1.0000
  H   H1        1.0  0.8203030487524785  0.9079273137962859  0.8138959306130715  1.0000
  H   H2        1.0  0.09206536512130008  0.17971296087021216  0.6861016191783307  1.0000
  H   H3        1.0  0.17969369748291084  0.0920726646927363  0.1861098200087952  1.0000
  H   H4        1.0  0.9079184475519214  0.8203030736354365  0.3138913866232188  1.0000
  H   H5        1.0  0.3143910355745945  0.345768762297908  0.8745487131089363  1.0000
  H   H6        1.0  0.6542445346619843  0.6856134884338659  0.6254545071601356  1.0000
  H   H7        1.0  0.685603702287814  0.6542297277077582  0.125454494667558  1.0000
  H   H8        1.0  0.34576795320595716  0.3143833283331078  0.3745491863827866  1.0000
  H   H9        1.0  0.6441813473087308  0.4289916374794416  0.9652942898166614  1.0000
  H   H10       1.0  0.5710011489688896  0.3558158264792156  0.5347072767375636  1.0000
  H   H11       1.0  0.35581223071433493  0.5710006496449794  0.03470689046097421  1.0000
  H   H12       1.0  0.42900009553910223  0.6441811430178391  0.4652928660062443  1.0000
  H   H13       1.0  0.15469261567501044  0.9027002507157391  0.8306779264725251  1.0000
  H   H14       1.0  0.09729098046994988  0.8453006441856203  0.6693217971916995  1.0000
  H   H15       1.0  0.845289173518978  0.0972842714407705  0.1693232828151068  1.0000
  H   H16       1.0  0.9027163224215825  0.1547072916594345  0.3306767914683135  1.0000
  H   H17       1.0  0.4996358789905245  0.0471088876928007  0.8798908558667052  1.0000
  H   H18       1.0  0.9528937164017817  0.5003656823677218  0.6201043952559928  1.0000
  H   H19       1.0  0.5003614279701621  0.9528851840589565  0.12010114331118872  1.0000
  H   H20       1.0  0.04711865953323278  0.4996374900579001  0.37989572177153264  1.0000
  H   H21       1.0  0.2211245408585755  0.8437384496889635  0.0805457594503736  1.0000
  H   H22       1.0  0.15626548763404463  0.7788906432724545  0.4194539021108454  1.0000
  H   H23       1.0  0.7788959282325151  0.15627720397515088  0.9194543270469921  1.0000
  H   H24       1.0  0.843718703869804  0.2211096011133478  0.5805442226352326  1.0000
  H   H25       1.0  0.879132629713098  0.6965825525313891  0.0305088706290491  1.0000
  H   H26       1.0  0.3034084139777277  0.12089107609367744  0.46948988040599465  1.0000
  H   H27       1.0  0.12088971437707127  0.30341738269616764  0.969493274847416  1.0000
  H   H28       1.0  0.6965728448533782  0.8791155522306158  0.5305041623592999  1.0000
  H   H29       1.0  0.7776065703063535  0.3576753790539441  0.8070973132180725  1.0000
  H   H30       1.0  0.6423326000000813  0.2223932541708536  0.6928983967236491  1.0000
  H   H31       1.0  0.22238379357035146  0.6423156383823782  0.19289317197061004  1.0000
  H   H32       1.0  0.3576605943836953  0.7775945109438072  0.3070961659486429  1.0000
  C   C1        1.0  0.7262237954723645  0.763282976956333  0.8410269439920982  1.0000
  C   C2        1.0  0.23671231836742382  0.27379068105658183  0.6589722034345229  1.0000
  C   C3        1.0  0.2737722175948392  0.23671859751731011  0.15897778613457092  1.0000
  C   C4        1.0  0.7632714679062431  0.7262253270419239  0.3410218216587566  1.0000
  C   C5        1.0  0.4675673556082884  0.4745954321003154  0.876795553223282  1.0000
  C   C6        1.0  0.5254125771481384  0.5324447456633552  0.6232066783369703  1.0000
  C   C7        1.0  0.532434645034904  0.525396730573874  0.12320867238808832  1.0000
  C   C8        1.0  0.47460138048869993  0.467552116379764  0.37679497453225963  1.0000
  C   C9        1.0  0.6277485139369928  0.5141883764051729  0.9212977286254828  1.0000
  C   C10       1.0  0.48580662328590307  0.3722605400053355  0.5787031658696122  1.0000
  C   C11       1.0  0.37225498287465797  0.4858038579522984  0.078703437020458  1.0000
  C   C12       1.0  0.5141973265964525  0.6277395196251377  0.4212979874882663  1.0000
  C   C13       1.0  0.9930959165918621  0.787585137610705  0.9270197931279968  1.0000
  C   C14       1.0  0.21241145971892184  0.0069175559227048  0.5729796916739147  1.0000
  C   C15       1.0  0.006905505847932141  0.21240554224555555  0.07298137790189681  1.0000
  C   C16       1.0  0.7875893399595668  0.9930951376763417  0.42701788035468985  1.0000
  C   C17       1.0  0.16937188632127237  0.8907404651157976  0.8855208394472739  1.0000
  C   C18       1.0  0.10925256890421052  0.8306376372476406  0.6144794041064401  1.0000
  C   C19       1.0  0.8306246146072949  0.10924866211195192  0.1144808507929227  1.0000
  C   C20       1.0  0.8907482043747164  0.16937502994426978  0.38551918721388745  1.0000
  C   C21       1.0  0.3664317411845631  0.9725097554414505  0.9143494600654307  1.0000
  C   C22       1.0  0.027491262495935656  0.6335762922286392  0.5856504248128973  1.0000
  C   C23       1.0  0.6335711016575514  0.02748415412205671  0.08564762721013612  1.0000
  C   C24       1.0  0.9725173649669684  0.36643154365328456  0.4143517292779251  1.0000
  C   C25       1.0  0.39467462061025316  0.9572685004238649  0.9848628225902304  1.0000
  C   C26       1.0  0.04274219677561326  0.6053366620864367  0.5151365940615662  1.0000
  C   C27       1.0  0.6053347962524709  0.04274102953311142  0.0151342317482346  1.0000
  C   C28       1.0  0.9572651158831675  0.394668049716799  0.48486556661666924  1.0000
  C   C29       1.0  0.21314246565757602  0.856367247475454  0.025445781087412904  1.0000
  C   C30       1.0  0.14362905100647802  0.7868737886970083  0.474554371116767  1.0000
  C   C31       1.0  0.786878527461674  0.14363276130808345  0.9745538182499729  1.0000
  C   C32       1.0  0.8563578458717414  0.2131295458222056  0.5254447642433817  1.0000
  C   C33       1.0  0.015462200968094985  0.7713218211387344  0.9972203881718757  1.0000
  C   C34       1.0  0.22866717566572708  0.984559552563205  0.5027772471470868  1.0000
  C   C35       1.0  0.9845572466161342  0.22868130039262982  0.0027802280503053  1.0000
  C   C36       1.0  0.7713110942610084  0.015450169639912296  0.49721883388497196  1.0000
  C   C37       1.0  0.944651015555088  0.3894082730997114  0.7983700111806159  1.0000
  C   C38       1.0  0.6105989272644904  0.055354239338733194  0.7016345436105739  1.0000
  C   C39       1.0  0.055345462406450045  0.6105840649662896  0.2016286166872163  1.0000
  C   C40       1.0  0.38940505878466775  0.9446426226570566  0.2983691624738043  1.0000
  N   N1        1.0  0.79111681750814  0.6965260683245519  0.8980104538361431  1.0000
  N   N2        1.0  0.3034664698237819  0.20889317648661895  0.6019909261029923  1.0000
  N   N3        1.0  0.20887798292061888  0.3034692504535741  0.10199428737512051  1.0000
  N   N4        1.0  0.6965209329242441  0.791118036119883  0.398006158385634  1.0000
  N   N5        1.0  0.5304055012501221  0.6314355047279391  0.8275162137685541  1.0000
  N   N6        1.0  0.3685632221289055  0.46960967756692906  0.6724833480439614  1.0000
  N   N7        1.0  0.4695927773205142  0.3685613478096884  0.1724890296143826  1.0000
  N   N8        1.0  0.6314313808335611  0.5303983789356296  0.3275132208447644  1.0000
  O   O1        1.0  0.049783680324850435  0.5632816222966639  0.7663686199731147  1.0000
  O   O2        1.0  0.43670689078674496  0.950217875055671  0.7336253067184018  1.0000
  O   O3        1.0  0.9502146135019488  0.43670140580570677  0.23362645177495983  1.0000
  O   O4        1.0  0.5632812799201262  0.04977146904730741  0.2663697706670121  1.0000
  O   O5        1.0  0.011221156632458922  0.2607976674335006  0.8191813690025783  1.0000
  O   O6        1.0  0.7392256213009532  0.9887798781331298  0.6808403932000502  1.0000
  O   O7        1.0  0.9887677945527783  0.7392007338925809  0.1808264339476651  1.0000
  O   O8        1.0  0.26079631359616673  0.011219647783754299  0.3191775512982034  1.0000
