data_image0
_chemical_formula_structural       Na2H18C14S2O16
_chemical_formula_sum              "Na2 H18 C14 S2 O16"
_cell_length_a       6.553465096550387
_cell_length_b       7.0347620300151865
_cell_length_c       11.617545583958774
_cell_angle_alpha    78.07452436411013
_cell_angle_beta     83.73551355037114
_cell_angle_gamma    78.44275101134461

_space_group_name_H-M_alt    "P 1"
_space_group_IT_number       1

loop_
  _space_group_symop_operation_xyz
  'x, y, z'

loop_
  _atom_site_type_symbol
  _atom_site_label
  _atom_site_symmetry_multiplicity
  _atom_site_fract_x
  _atom_site_fract_y
  _atom_site_fract_z
  _atom_site_occupancy
  Na  Na1       1.0  0.2397612170918676  0.9406850150733846  0.5773588970966799  1.0000
  Na  Na2       1.0  0.7602386926831954  0.05931424735745591  0.42264108508755527  1.0000
  H   H1        1.0  0.7492897060182743  0.3683111998636689  0.1964138819969179  1.0000
  H   H2        1.0  0.2507111359387579  0.631691014292265  0.8035830836416268  1.0000
  H   H3        1.0  0.7456858231720886  0.8222747510706867  0.18914348522319094  1.0000
  H   H4        1.0  0.2543181298488406  0.17772748024644608  0.8108575805915876  1.0000
  H   H5        1.0  0.7387630912262325  0.3524184982940355  0.9017668706940966  1.0000
  H   H6        1.0  0.2612365131898571  0.6475822373988719  0.09823122313678573  1.0000
  H   H7        1.0  0.7811087386540335  0.6302921445365398  0.9266837102859496  1.0000
  H   H8        1.0  0.21888811900660696  0.36970711650475613  0.07331819138185117  1.0000
  H   H9        1.0  0.782746287867127  0.8570053011157129  0.7301976643294381  1.0000
  H   H10       1.0  0.21724960392612053  0.1429909991881217  0.2698038140784504  1.0000
  H   H11       1.0  0.0925849204581084  0.5384398901265898  0.6791380020067947  1.0000
  H   H12       1.0  0.907414700800686  0.46156085007250164  0.32086181172688544  1.0000
  H   H13       1.0  0.3392362090807239  0.507947947820199  0.6598704279774593  1.0000
  H   H14       1.0  0.6607652435942556  0.4920513198116013  0.3401303143677978  1.0000
  H   H15       1.0  0.4382884994621748  0.26342056337053066  0.5214925054365693  1.0000
  H   H16       1.0  0.5617101559292339  0.7365772160910993  0.4785068850372055  1.0000
  H   H17       1.0  0.30321192016943854  0.32348896204933186  0.4124714467972908  1.0000
  H   H18       1.0  0.696787981184265  0.6765102981284131  0.5875276754355454  1.0000
  C   C1        1.0  0.7625960308343167  0.11819762926567988  0.8047936627048173  1.0000
  C   C2        1.0  0.2374023444621827  0.8818016302172963  0.1952064192698018  1.0000
  C   C3        1.0  0.7464300073983807  0.1951378415601042  0.9068155323943188  1.0000
  C   C4        1.0  0.2535714284338937  0.8048614215655191  0.09318349004814044  1.0000
  C   C5        1.0  0.7424445238624033  0.0695516122935445  0.017525231113992772  1.0000
  C   C6        1.0  0.25755665713901266  0.9304491376126977  0.9824770626835075  1.0000
  C   C7        1.0  0.7563888539027771  0.863498619202723  0.02375407403114585  1.0000
  C   C8        1.0  0.2436153792130682  0.1365021320930637  0.9762463002827955  1.0000
  C   C9        1.0  0.7700017951479269  0.7885727189251169  0.9193744732434863  1.0000
  C   C10       1.0  0.2299981314698414  0.21142654801191446  0.08062722884354659  1.0000
  C   C11       1.0  0.7719272661652495  0.9147526106613242  0.8110703031486465  1.0000
  C   C12       1.0  0.2280726520311589  0.08524665402261176  0.18893053898698747  1.0000
  C   C13       1.0  0.7323893795584197  0.14411038979663002  0.1275053855622161  1.0000
  C   C14       1.0  0.26761147924131734  0.8558918288654808  0.8724932999791264  1.0000
  S   S1        1.0  0.7693160970211322  0.27406678234566334  0.6644556611264179  1.0000
  S   S2        1.0  0.23068102389171224  0.7259309941681025  0.335543829137734  1.0000
  O   O1        1.0  0.8997419107916046  0.1544331982360418  0.5848494693511199  1.0000
  O   O2        1.0  0.10025579557512294  0.8455616249943176  0.4151512177655404  1.0000
  O   O3        1.0  0.8506544229577743  0.44900517801371354  0.6774472643444013  1.0000
  O   O4        1.0  0.14934547839592938  0.5509940821640386  0.32255185788843477  1.0000
  O   O5        1.0  0.5505942188067651  0.33267019688665306  0.6297134832976141  1.0000
  O   O6        1.0  0.4494056825469457  0.6673290632910919  0.370285638935222  1.0000
  O   O7        1.0  0.7278861374181603  0.33499003208592626  0.1161005056074274  1.0000
  O   O8        1.0  0.2721162558601479  0.6650121895240558  0.8838980801435382  1.0000
  O   O9        1.0  0.730790391620296  0.029729935470264493  0.22645240640178338  1.0000
  O   O10       1.0  0.2692104671794482  0.9702722831918466  0.7735462791395661  1.0000
  O   O11       1.0  0.7591614550413298  0.7371129599236639  0.12706111096801453  1.0000
  O   O12       1.0  0.24084278649586122  0.2628877936252181  0.8729401232973187  1.0000
  O   O13       1.0  0.21287151287431527  0.6039046123950912  0.6788686768439405  1.0000
  O   O14       1.0  0.7871281083844794  0.3960961278040002  0.3211311368897469  1.0000
  O   O15       1.0  0.38625279006934937  0.20838922543974545  0.46077623376220334  1.0000
  O   O16       1.0  0.6137455683844452  0.7916100295370395  0.5392221283096106  1.0000
