data_image0
_chemical_formula_structural       Gd4H32C36N4O32
_chemical_formula_sum              "Gd4 H32 C36 N4 O32"
_cell_length_a       8.348324632
_cell_length_b       9.805500158962952
_cell_length_c       14.8211
_cell_angle_alpha    90.0
_cell_angle_beta     90.0
_cell_angle_gamma    96.35412768084275

_space_group_name_H-M_alt    "P 1"
_space_group_IT_number       1

loop_
  _space_group_symop_operation_xyz
  'x, y, z'

loop_
  _atom_site_type_symbol
  _atom_site_label
  _atom_site_symmetry_multiplicity
  _atom_site_fract_x
  _atom_site_fract_y
  _atom_site_fract_z
  _atom_site_occupancy
  Gd  Gd1       1.0  0.004945650724906197  0.1125664796214139  0.3873207791594382  1.0000
  Gd  Gd2       1.0  0.4950561594520905  0.8874341920895219  0.8873207791594382  1.0000
  Gd  Gd3       1.0  0.9950558820311598  0.8874341920895219  0.612679895554308  1.0000
  Gd  Gd4       1.0  0.5049441754588457  0.1125664796214139  0.11267922084056177  1.0000
  H   H1        1.0  0.3403538764450929  0.5372014850815745  0.1774072099911592  1.0000
  H   H2        1.0  0.1596456714304963  0.4628002127688831  0.6774058605636526  1.0000
  H   H3        1.0  0.6596475229221141  0.4627981604898324  0.8225934647225939  1.0000
  H   H4        1.0  0.8403558613255625  0.5372004589420527  0.3225927900088408  1.0000
  H   H5        1.0  0.288747870069038  0.7699555825676683  0.239570612167789  1.0000
  H   H6        1.0  0.21125154441769914  0.23004508914326044  0.7395692627402823  1.0000
  H   H7        1.0  0.711253529298169  0.2300440630037386  0.760429387832211  1.0000
  H   H8        1.0  0.7887487904932369  0.7699555825676683  0.260429387832211  1.0000
  H   H9        1.0  0.12689890982513666  0.5593250532147209  0.484002536923711  1.0000
  H   H10       1.0  0.3730990400387526  0.4406735662171641  0.9840018622099578  1.0000
  H   H11       1.0  0.8731002272406698  0.4406756184962148  0.5159981377900422  1.0000
  H   H12       1.0  0.6268963701028056  0.5593260793542427  0.0159981377900422  1.0000
  H   H13       1.0  0.5351844840491609  0.8628253140297275  0.5297184419510046  1.0000
  H   H14       1.0  0.9648157068296969  0.1371763838207229  0.029719791378511193  1.0000
  H   H15       1.0  0.4648171820957572  0.1371763838207229  0.4702815580489953  1.0000
  H   H16       1.0  0.0351844946923805  0.862823261750684  0.9702815580489954  1.0000
  H   H17       1.0  0.6219145761692388  0.7224658454061768  0.482471611418859  1.0000
  H   H18       1.0  0.8780842834756368  0.277534826304759  0.982471611418859  1.0000
  H   H19       1.0  0.3780857587416975  0.277534826304759  0.5175297380086477  1.0000
  H   H20       1.0  0.1219147202013104  0.7224648192666479  0.017530412722401  1.0000
  H   H21       1.0  0.4859964127624536  0.8136568126072916  0.4164893294020046  1.0000
  H   H22       1.0  0.014004199569413298  0.186343859103637  0.9164900041157509  1.0000
  H   H23       1.0  0.5140049866047535  0.1863428329641152  0.5835113453117486  1.0000
  H   H24       1.0  0.9859961353415229  0.8136568126072916  0.0835113453117486  1.0000
  H   H25       1.0  0.8593262647035471  0.026930005662627803  0.2136413626518916  1.0000
  H   H26       1.0  0.64067472385387  0.9730686137692572  0.7136406879381454  1.0000
  H   H27       1.0  0.14067380342967073  0.9730686137692572  0.7863593120618546  1.0000
  H   H28       1.0  0.3593254776682073  0.026931031802149598  0.2863593120618545  1.0000
  H   H29       1.0  0.045378916707612384  0.0019147763514127  0.19992578148720233  1.0000
  H   H30       1.0  0.4546215622353955  0.9980848692199942  0.6999251067734489  1.0000
  H   H31       1.0  0.9546212848144647  0.9980848692199942  0.8000755679403042  1.0000
  H   H32       1.0  0.5453786392866817  0.0019147763514127  0.3000748932265508  1.0000
  C   C1        1.0  0.2953662102248771  0.2906478632794105  0.2587480011605052  1.0000
  C   C2        1.0  0.2046342687181308  0.7093517822920035  0.758748001160505  1.0000
  C   C3        1.0  0.7046338579083411  0.7093507561524746  0.7412526735532481  1.0000
  C   C4        1.0  0.7953660661928056  0.2906488894189323  0.24125199883949475  1.0000
  C   C5        1.0  0.2568422027721482  0.42732143873347184  0.2945860968484126  1.0000
  C   C6        1.0  0.24315827617085967  0.572678206837935  0.7945860968484124  1.0000
  C   C7        1.0  0.7431578653610701  0.5726771806984132  0.7054139031515874  1.0000
  C   C8        1.0  0.7568455188866068  0.42732143873347184  0.2054125537240807  1.0000
  C   C9        1.0  0.28998758399964686  0.5479697932443415  0.2444845524286308  1.0000
  C   C10       1.0  0.21000810356284919  0.4520298523270654  0.7444852271423841  1.0000
  C   C11       1.0  0.7100088905981892  0.45202882618754364  0.7555147728576159  1.0000
  C   C12       1.0  0.7899922313480872  0.5479708193838633  0.2555140981438626  1.0000
  C   C13       1.0  0.2617703104517943  0.675644125074669  0.2782506021820267  1.0000
  C   C14       1.0  0.2382303018800656  0.3243565466362597  0.7782492527545202  1.0000
  C   C15       1.0  0.7382322867605352  0.3243555204967379  0.7217493978179732  1.0000
  C   C16       1.0  0.7617676373406042  0.675644125074669  0.2217487231042199  1.0000
  C   C17       1.0  0.2036838311080729  0.6810580372022415  0.3667001774497152  1.0000
  C   C18       1.0  0.29631438553353456  0.31894263450868726  0.8667001774497152  1.0000
  C   C19       1.0  0.7963127768786151  0.3189416083691654  0.6332984731227782  1.0000
  C   C20       1.0  0.7036859493774016  0.6810580372022415  0.1332984731227782  1.0000
  C   C21       1.0  0.16997735097648095  0.8105332438968489  0.4155109944605968  1.0000
  C   C22       1.0  0.3300219301213971  0.1894664016745651  0.9155109944605966  1.0000
  C   C23       1.0  0.8300217860893254  0.1894674278140869  0.5844883308256499  1.0000
  C   C24       1.0  0.6699772069444023  0.8105342700363707  0.08448833082564987  1.0000
  C   C25       1.0  0.17178852238671988  0.560599518503281  0.415220192833189  1.0000
  C   C26       1.0  0.3282084964097578  0.4394011532076547  0.9152208675469424  1.0000
  C   C27       1.0  0.8282094168339567  0.4394011532076547  0.5847791324530576  1.0000
  C   C28       1.0  0.6717881115769302  0.5605984923637521  0.0847784577393043  1.0000
  C   C29       1.0  0.7226520088447259  0.9187499180768697  0.43447112562495244  1.0000
  C   C30       1.0  0.7773480486452725  0.0812507536340661  0.9344711256249523  1.0000
  C   C31       1.0  0.27734832606621046  0.0812507536340661  0.5655288743750473  1.0000
  C   C32       1.0  0.2226521528768046  0.918748891937348  0.0655288743750475  1.0000
  C   C33       1.0  0.5821377843030786  0.822659134649598  0.4668223006389524  1.0000
  C   C34       1.0  0.9178622731869268  0.1773415370613307  0.9668223006389522  1.0000
  C   C35       1.0  0.4178637484529872  0.1773415370613307  0.5331783740748008  1.0000
  C   C36       1.0  0.08213792833515039  0.8226581085100761  0.0331783740748008  1.0000
  N   N1        1.0  0.1930793683209586  0.4358609718505377  0.3801728616634392  1.0000
  N   N2        1.0  0.30692124401090837  0.564139699860391  0.8801721869496859  1.0000
  N   N3        1.0  0.8069209665899778  0.564139699860391  0.6198278130503141  1.0000
  N   N4        1.0  0.6930777596660391  0.4358599457110159  0.1198271383365608  1.0000
  O   O1        1.0  0.15440054330985478  0.3298043213681154  0.43248679247829347  1.0000
  O   O2        1.0  0.34560113347828286  0.6701953242032914  0.9324874671920469  1.0000
  O   O3        1.0  0.8455996582122226  0.6701953242032914  0.5675138822354595  1.0000
  O   O4        1.0  0.6543990680437943  0.3298043213681154  0.0675125328079531  1.0000
  O   O5        1.0  0.2287992053119439  0.1810623189746323  0.2939424199283422  1.0000
  O   O6        1.0  0.27120020917479337  0.8189383527362963  0.7939430946420953  1.0000
  O   O7        1.0  0.7712011295989853  0.8189383527362963  0.706058254785404  1.0000
  O   O8        1.0  0.7287999923472838  0.1810612928351105  0.20605623064415104  1.0000
  O   O9        1.0  0.3963180773346408  0.2957703517822239  0.19461983253604834  1.0000
  O   O10       1.0  0.1036825349972261  0.7042303199287119  0.6946205072498015  1.0000
  O   O11       1.0  0.6036822575762955  0.7042303199287119  0.805379492750198  1.0000
  O   O12       1.0  0.8963191311476919  0.2957713779217457  0.3053781433226987  1.0000
  O   O13       1.0  0.16483108809160288  0.918694506542586  0.36949214295835014  1.0000
  O   O14       1.0  0.33517058869653477  0.081305139028828  0.8694907935308434  1.0000
  O   O15       1.0  0.8351703112756039  0.081305139028828  0.6305078570416496  1.0000
  O   O16       1.0  0.6648285483692716  0.9186955326821078  0.1305085317554031  1.0000
  O   O17       1.0  0.1487177141133031  0.7965890339079209  0.4997969111604377  1.0000
  O   O18       1.0  0.3512814335957231  0.2034095855239642  0.9997962364466844  1.0000
  O   O19       1.0  0.8512814229525034  0.2034116378030149  0.5002037635533156  1.0000
  O   O20       1.0  0.6487186345375021  0.7965890339079209  0.0002030888395623  1.0000
  O   O21       1.0  0.7074939864479572  0.0048741627380551  0.3719190883267771  1.0000
  O   O22       1.0  0.7925072688871778  0.9951265089728806  0.8719190883267769  1.0000
  O   O23       1.0  0.2925063484629788  0.9951265089728806  0.6280809116732229  1.0000
  O   O24       1.0  0.2074941304800291  0.0048731365985262  0.1280809116732229  1.0000
  O   O25       1.0  0.9549977081536482  0.9991284531157021  0.24425717389397755  1.0000
  O   O26       1.0  0.545003413792621  0.0008711924557048  0.7442571738939776  1.0000
  O   O27       1.0  0.045002493368429  0.0008711924557048  0.7557435008197757  1.0000
  O   O28       1.0  0.4549969211183082  0.9991294792552239  0.2557435008197757  1.0000
  O   O29       1.0  0.8618964177576345  0.9149419143040447  0.4710446593032884  1.0000
  O   O30       1.0  0.6381047041886418  0.0850577312673622  0.9710446593032884  1.0000
  O   O31       1.0  0.1381051149984316  0.0850587574068911  0.5289560154104649  1.0000
  O   O32       1.0  0.36189536394458344  0.914940888164523  0.028955340696711594  1.0000
