data_image0
_chemical_formula_structural       Zn2H16C12N4O10
_chemical_formula_sum              "Zn2 H16 C12 N4 O10"
_cell_length_a       4.765666402399854
_cell_length_b       9.454350632648302
_cell_length_c       9.059438898028107
_cell_angle_alpha    90.0009139414287
_cell_angle_beta     92.91941969614284
_cell_angle_gamma    89.99898461278188

_space_group_name_H-M_alt    "P 1"
_space_group_IT_number       1

loop_
  _space_group_symop_operation_xyz
  'x, y, z'

loop_
  _atom_site_type_symbol
  _atom_site_label
  _atom_site_symmetry_multiplicity
  _atom_site_fract_x
  _atom_site_fract_y
  _atom_site_fract_z
  _atom_site_occupancy
  Zn  Zn1       1.0  0.8178784891738787  0.9905524991486772  0.7645114822052436  1.0000
  Zn  Zn2       1.0  0.18212406286123434  0.4905550328285955  0.2354901361019444  1.0000
  H   H1        1.0  0.7011322266938933  0.0898101196534427  0.49755059184668227  1.0000
  H   H2        1.0  0.29887321563117547  0.5898124351703589  0.5024486832660031  1.0000
  H   H3        1.0  0.420024144537102  0.008306507155332099  0.5600613286440534  1.0000
  H   H4        1.0  0.5799841554875087  0.5083074963297278  0.4399344512824328  1.0000
  H   H5        1.0  0.25615283663042726  0.1968234810479004  0.6812374356532089  1.0000
  H   H6        1.0  0.743851269309026  0.6968211762583464  0.318759206233814  1.0000
  H   H7        1.0  0.41112187872761286  0.2813668681797168  0.5325505870676892  1.0000
  H   H8        1.0  0.5888856155889926  0.7813681965247881  0.46744873968140865  1.0000
  H   H9        1.0  0.4033864404138114  0.46637007197686836  0.7390350304018155  1.0000
  H   H10       1.0  0.5966169788437128  0.9663724249026656  0.2609651026998421  1.0000
  H   H11       1.0  0.9646917355774035  0.4470020675802076  0.9007379518617782  1.0000
  H   H12       1.0  0.0352997845753364  0.947001650308202  0.0992602846812929  1.0000
  H   H13       1.0  0.5759250658786143  0.7015983074054971  0.842693116250004  1.0000
  H   H14       1.0  0.42406828037189837  0.20160068145681723  0.1573053995047573  1.0000
  H   H15       1.0  0.8948976256159611  0.7048692221788357  0.9504563159817323  1.0000
  H   H16       1.0  0.10509355680738959  0.2048706706986181  0.0495410680360706  1.0000
  C   C1        1.0  0.456922351722703  0.21395187825404344  0.6295320599684047  1.0000
  C   C2        1.0  0.5430789779634111  0.7139521388851263  0.3704669764415555  1.0000
  C   C3        1.0  0.6505190119579538  0.2877073439915847  0.742937829153739  1.0000
  C   C4        1.0  0.349475521594698  0.7877086551757344  0.2570644172210521  1.0000
  C   C5        1.0  0.75561876706778  0.494933245132465  0.8923575068963244  1.0000
  C   C6        1.0  0.24437953050329497  0.9949374481911591  0.10764181374306499  1.0000
  C   C7        1.0  0.6224441106388382  0.4809454504361312  0.04184040913845169  1.0000
  C   C8        1.0  0.3775608200439676  0.9809455317116188  0.958162240543345  1.0000
  C   C9        1.0  0.7840523330336637  0.6519219441191452  0.8561202552304366  1.0000
  C   C10       1.0  0.2159362051351295  0.1519270167913191  0.1438816391688462  1.0000
  C   C11       1.0  0.9456794351546731  0.6825209070256548  0.7182601075032125  1.0000
  C   C12       1.0  0.0543288333692118  0.18252739185984979  0.2817485953956194  1.0000
  N   N1        1.0  0.5785669721671951  0.0772954246268966  0.5887234996635939  1.0000
  N   N2        1.0  0.4214368413564671  0.5772984413697628  0.4112743937525991  1.0000
  N   N3        1.0  0.590329842929485  0.4212886994566246  0.7770492191258569  1.0000
  N   N4        1.0  0.40966889780793275  0.9212953049775336  0.22294775181114798  1.0000
  O   O1        1.0  0.8568952186865174  0.22264160337395816  0.8031022698009735  1.0000
  O   O2        1.0  0.14310352565560439  0.722644887382472  0.1969012320337242  1.0000
  O   O3        1.0  0.3560089560535928  0.4665310271138098  0.0393808551292452  1.0000
  O   O4        1.0  0.643996558213871  0.966537245700856  0.9606193618136843  1.0000
  O   O5        1.0  0.7704671027472115  0.488307393854086  0.1615193034379701  1.0000
  O   O6        1.0  0.22954402268968715  0.9883059108461723  0.8384803998041549  1.0000
  O   O7        1.0  0.9111912213264546  0.8055454563308827  0.6595179490975838  1.0000
  O   O8        1.0  0.08880490304087368  0.30555887437123624  0.3404824565812277  1.0000
  O   O9        1.0  0.10269512649985299  0.5887177086311652  0.6674262961988688  1.0000
  O   O10       1.0  0.8972893949795804  0.0887270129322033  0.3325710467874927  1.0000
