data_image0
_chemical_formula_structural       Zn4H32C48N12O8
_chemical_formula_sum              "Zn4 H32 C48 N12 O8"
_cell_length_a       11.26546585340969
_cell_length_b       10.788206493024402
_cell_length_c       11.81185714595772
_cell_angle_alpha    90.00001429731518
_cell_angle_beta     104.58691539183982
_cell_angle_gamma    90.00022820804547

_space_group_name_H-M_alt    "P 1"
_space_group_IT_number       1

loop_
  _space_group_symop_operation_xyz
  'x, y, z'

loop_
  _atom_site_type_symbol
  _atom_site_label
  _atom_site_symmetry_multiplicity
  _atom_site_fract_x
  _atom_site_fract_y
  _atom_site_fract_z
  _atom_site_occupancy
  Zn  Zn1       1.0  0.3496664271996366  0.4485999807000881  0.9201960336355838  1.0000
  Zn  Zn2       1.0  0.15033256667722128  0.9485992205991994  0.5798000794140563  1.0000
  Zn  Zn3       1.0  0.6503326385624103  0.5514034662096848  0.07980092805684075  1.0000
  Zn  Zn4       1.0  0.8496655907241646  0.051400518556668814  0.4202000525577105  1.0000
  H   H1        1.0  0.4393649532925323  0.31644192954947675  0.7263821062838147  1.0000
  H   H2        1.0  0.060636241172168995  0.8164427166105385  0.7736161960113392  1.0000
  H   H3        1.0  0.5606322802205735  0.6835587365422172  0.27361526600694924  1.0000
  H   H4        1.0  0.9393646657095116  0.18355980336532  0.22638374363086192  1.0000
  H   H5        1.0  0.8041689499975602  0.3767502308037721  0.9516809903819733  1.0000
  H   H6        1.0  0.6958309882911705  0.8767450121062272  0.5483236345697191  1.0000
  H   H7        1.0  0.1958301224214054  0.6232522891682707  0.04831851272266619  1.0000
  H   H8        1.0  0.30416808411220586  0.12325009236073477  0.45167586853043656  1.0000
  H   H9        1.0  0.21279660311817847  0.417034620099301  0.5494815691303997  1.0000
  H   H10       1.0  0.28720318417182256  0.9170308248690802  0.9505181125602105  1.0000
  H   H11       1.0  0.787202460416452  0.5829651190578037  0.4505145454221945  1.0000
  H   H12       1.0  0.7127949754491922  0.08296891428692281  0.04948286654914122  1.0000
  H   H13       1.0  0.9133467182038684  0.5821552645916913  0.6586759889145596  1.0000
  H   H14       1.0  0.5866510511701221  0.08215678051973191  0.8413229786525704  1.0000
  H   H15       1.0  0.08665326256406299  0.4178454015054529  0.34132034390737687  1.0000
  H   H16       1.0  0.41334710845478617  0.9178448125125416  0.15867800045790392  1.0000
  H   H17       1.0  0.6067670032292583  0.10094301745601802  0.4550195039659925  1.0000
  H   H18       1.0  0.8932360293490973  0.6009441653198382  0.04498601646032088  1.0000
  H   H19       1.0  0.3932348275309678  0.8990539408933387  0.5449831953544048  1.0000
  H   H20       1.0  0.106767638109055  0.3990602085385434  0.9550179665397136  1.0000
  H   H21       1.0  0.9506994621576155  0.24834822514689148  0.602536524540035  1.0000
  H   H22       1.0  0.5493063592291421  0.7483517847775051  0.8974703201417851  1.0000
  H   H23       1.0  0.049302373039907386  0.7516478062646006  0.3974678690549779  1.0000
  H   H24       1.0  0.4506963843368297  0.25165166214043216  0.102530903176131  1.0000
  H   H25       1.0  0.8813236154935068  0.34268816424540927  0.7664230552613488  1.0000
  H   H26       1.0  0.6186816830127596  0.8426901029321885  0.7335828381114168  1.0000
  H   H27       1.0  0.118676383021679  0.6573078671621388  0.23358005465851758  1.0000
  H   H28       1.0  0.38132105610812056  0.15731056317107325  0.2664166909296383  1.0000
  H   H29       1.0  0.5227959173319477  0.18377591632042112  0.6160449788073166  1.0000
  H   H30       1.0  0.9772087064943519  0.6837747302750048  0.8839581809562913  1.0000
  H   H31       1.0  0.4772049895419456  0.8162228959028967  0.3839549608326464  1.0000
  H   H32       1.0  0.02279587375006289  0.3162268627706127  0.11604432603565579  1.0000
  C   C1        1.0  0.645769085062909  0.32311260882799087  0.7987655456560816  1.0000
  C   C2        1.0  0.8542324622210201  0.8231108646071804  0.7012394509639036  1.0000
  C   C3        1.0  0.35422815289139453  0.6768889842021083  0.20123352091043495  1.0000
  C   C4        1.0  0.14576844909016978  0.17688702067827222  0.298762182950675  1.0000
  C   C5        1.0  0.520612871601777  0.3389333328129923  0.7948610827573716  1.0000
  C   C6        1.0  0.9793924044568383  0.8389330277231013  0.7051422646600185  1.0000
  C   C7        1.0  0.4793889547269927  0.6610673332886353  0.2051399222900798  1.0000
  C   C8        1.0  0.020608502419001695  0.16106671143835172  0.2948576749804985  1.0000
  C   C9        1.0  0.6943572745782021  0.2722858950526686  0.7059959101413893  1.0000
  C   C10       1.0  0.8056486474289457  0.7722867617604765  0.7940109634899244  1.0000
  C   C11       1.0  0.3056427239408777  0.7277119902311499  0.2940071997795926  1.0000
  C   C12       1.0  0.1943550133625394  0.2277139043449595  0.20599047809509588  1.0000
  C   C13       1.0  0.0705843285507868  0.5003438318071148  0.616277367389408  1.0000
  C   C14       1.0  0.4294137071172627  0.00034397936522620004  0.8837218103419743  1.0000
  C   C15       1.0  0.9294147349799429  0.4996540534737194  0.3837187471620566  1.0000
  C   C16       1.0  0.5705844547253278  0.9996566867290468  0.1162800159055379  1.0000
  C   C17       1.0  0.7069601961820808  0.3697516429640758  0.9094432931006935  1.0000
  C   C18       1.0  0.7930406210425787  0.8697477610561252  0.59055815310586  1.0000
  C   C19       1.0  0.2930388717976413  0.6302508770076971  0.09055451572876189  1.0000
  C   C20       1.0  0.20695936193328632  0.13024734341234281  0.4094390268503005  1.0000
  C   C21       1.0  0.11954621184742109  0.4533342505508317  0.5268874289760888  1.0000
  C   C22       1.0  0.3804537258173609  0.9533317699172983  0.973111449479873  1.0000
  C   C23       1.0  0.8804546861460238  0.5466636347338111  0.4731091221129446  1.0000
  C   C24       1.0  0.6195444338036535  0.046667969238704615  0.02688952962948584  1.0000
  C   C25       1.0  0.9504586541799611  0.546650818204185  0.5884077570842265  1.0000
  C   C26       1.0  0.549536209815386  0.04665405805437932  0.9115888184619932  1.0000
  C   C27       1.0  0.0495385726703717  0.4533479940108338  0.41158707379264564  1.0000
  C   C28       1.0  0.4504601131271855  0.9533475349739505  0.08841087697332742  1.0000
  C   C29       1.0  0.1448748190981846  0.5003551258824928  0.7411070081500596  1.0000
  C   C30       1.0  0.35512229716368887  0.00035400486489580005  0.7588911041878389  1.0000
  C   C31       1.0  0.8551233272031381  0.4996436863345651  0.25888888813318534  1.0000
  C   C32       1.0  0.6448731063278927  0.9996475881613879  0.24110752584110878  1.0000
  C   C33       1.0  0.6629367840673551  0.15690054423728134  0.5255066769693784  1.0000
  C   C34       1.0  0.8370631450709279  0.6569015946262341  0.9744970532227554  1.0000
  C   C35       1.0  0.33706321223404956  0.8430982679845374  0.47449558581457285  1.0000
  C   C36       1.0  0.16293684679902037  0.34310092534784803  0.025503515288249904  1.0000
  C   C37       1.0  0.8562040604498902  0.2372905881695289  0.6085967657769088  1.0000
  C   C38       1.0  0.6438007994432908  0.7372945317428049  0.8914106944004275  1.0000
  C   C39       1.0  0.14379686417709786  0.7627063701785987  0.39140995096265385  1.0000
  C   C40       1.0  0.35620286135403484  0.2627089151770363  0.10859074718627677  1.0000
  C   C41       1.0  0.8168369591967701  0.28873744224353004  0.7004731113573538  1.0000
  C   C42       1.0  0.6831690341936038  0.7887415183406219  0.7995346293106137  1.0000
  C   C43       1.0  0.18316487155955488  0.7112576622295637  0.2995295879619206  1.0000
  C   C44       1.0  0.3168337115861419  0.21125914776304466  0.2004674411432106  1.0000
  C   C45       1.0  0.6170620400663864  0.2044329248397149  0.6144815503769862  1.0000
  C   C46       1.0  0.8829399233434072  0.7044332082763277  0.8855226738397163  1.0000
  C   C47       1.0  0.3829388668075069  0.7955658873836031  0.3855183892629697  1.0000
  C   C48       1.0  0.11706190298730948  0.2955683847634347  0.11447833120830349  1.0000
  N   N1        1.0  0.5094323209498341  0.3918837392195017  0.8941551408258802  1.0000
  N   N2        1.0  0.9905667459693815  0.8918797415279163  0.6058425070600746  1.0000
  N   N3        1.0  0.4905667425925913  0.6081197076901363  0.1058409737289523  1.0000
  N   N4        1.0  0.00943231978097  0.10811814375304613  0.3941544546289819  1.0000
  N   N5        1.0  0.7812762089633267  0.17164466327216843  0.5221954389960216  1.0000
  N   N6        1.0  0.7187292899885377  0.6716489392868255  0.9778113129180355  1.0000
  N   N7        1.0  0.21872470456359136  0.8283513681371489  0.47780704205502633  1.0000
  N   N8        1.0  0.2812752924813466  0.32835543457332517  0.02219204121318799  1.0000
  N   N9        1.0  0.6244511702207233  0.4100510455261742  0.9658929930425656  1.0000
  N   N10       1.0  0.8755452302492797  0.9100456292697743  0.534107410558775  1.0000
  N   N11       1.0  0.37554606551979924  0.5899533283181884  0.034105226388035696  1.0000
  N   N12       1.0  0.12445200769333548  0.08995040213151381  0.4658916560043733  1.0000
  O   O1        1.0  0.2541085756805757  0.4531556616542432  0.7579497919123881  1.0000
  O   O2        1.0  0.24588952677530065  0.9531553415046048  0.7420486497913216  1.0000
  O   O3        1.0  0.7458914073069849  0.5468450044430356  0.24204738804713338  1.0000
  O   O4        1.0  0.7541077156279953  0.04685088621643273  0.25795211105317145  1.0000
  O   O5        1.0  0.10126106191673759  0.542378716401814  0.8211827613003563  1.0000
  O   O6        1.0  0.39873623099678907  0.042376821928925806  0.6788154018619961  1.0000
  O   O7        1.0  0.8987343304689402  0.45761916887126114  0.17881163303839284  1.0000
  O   O8        1.0  0.6012619263987559  0.9576201364125441  0.3211847301080865  1.0000
