data_image0
_chemical_formula_structural       Mn2H16C32N4O8F12
_chemical_formula_sum              "Mn2 H16 C32 N4 O8 F12"
_cell_length_a       7.42276620789817
_cell_length_b       11.261270815272514
_cell_length_c       11.261322962315909
_cell_angle_alpha    61.71952140884563
_cell_angle_beta     81.3514314009674
_cell_angle_gamma    81.35178058071232

_space_group_name_H-M_alt    "P 1"
_space_group_IT_number       1

loop_
  _space_group_symop_operation_xyz
  'x, y, z'

loop_
  _atom_site_type_symbol
  _atom_site_label
  _atom_site_symmetry_multiplicity
  _atom_site_fract_x
  _atom_site_fract_y
  _atom_site_fract_z
  _atom_site_occupancy
  Mn  Mn1       1.0  0.24999770615049496  0.12957276249710503  0.870426976906451  1.0000
  Mn  Mn2       1.0  0.7500013322203857  0.8704268316274693  0.12957267708998194  1.0000
  H   H1        1.0  0.9955292568490111  0.3447516875759078  0.9519562594976348  1.0000
  H   H2        1.0  0.5044773171738299  0.048051376330036505  0.655246189579003  1.0000
  H   H3        1.0  0.004464073162573398  0.6552499153290087  0.04804302786205042  1.0000
  H   H4        1.0  0.49552653716678907  0.9519533000921356  0.34475232580713566  1.0000
  H   H5        1.0  0.8783949854299208  0.5908098258919453  0.8369549920115843  1.0000
  H   H6        1.0  0.6216078484083951  0.1630541997672807  0.4091870286997761  1.0000
  H   H7        1.0  0.1216024559379889  0.4091917941976462  0.16304652701378333  1.0000
  H   H8        1.0  0.37839724653196777  0.836951494921671  0.5908117622906274  1.0000
  H   H9        1.0  0.9696325527392274  0.7295312384664713  0.5896545736496108  1.0000
  H   H10       1.0  0.5303613164784552  0.41035255471783205  0.27046845299619093  1.0000
  H   H11       1.0  0.030365869523727402  0.27047342496700816  0.4103462844114246  1.0000
  H   H12       1.0  0.46963845137121757  0.5896521094817614  0.7295304898388366  1.0000
  H   H13       1.0  0.1444946051935361  0.7390443965000771  0.37391244058662215  1.0000
  H   H14       1.0  0.3554911529335243  0.6260965088682582  0.2609595443572701  1.0000
  H   H15       1.0  0.8554972659558898  0.2609582214853319  0.6260900664578273  1.0000
  H   H16       1.0  0.6445030612745909  0.3739091565352268  0.7390421592398796  1.0000
  C   C1        1.0  0.0043840552262039995  0.04431568627794041  0.2866359328922456  1.0000
  C   C2        1.0  0.49561254197606525  0.7133667243960107  0.9556800056408645  1.0000
  C   C3        1.0  0.9956327409074247  0.9556728155048191  0.7133653896928749  1.0000
  C   C4        1.0  0.5043735157316647  0.28662776463985307  0.044322528235163375  1.0000
  C   C5        1.0  0.057782578045689086  0.0188024892375367  0.16061022928999338  1.0000
  C   C6        1.0  0.44221341648693635  0.8393911919793594  0.9811943155439025  1.0000
  C   C7        1.0  0.9422236663213681  0.9812042055238096  0.8393790872179068  1.0000
  C   C8        1.0  0.5577801234985955  0.1606083759242338  0.018800590155237353  1.0000
  C   C9        1.0  0.03156818641635083  0.40852029548509705  0.8445096798056183  1.0000
  C   C10       1.0  0.46843163258647275  0.1554975058510237  0.5914772274745417  1.0000
  C   C11       1.0  0.9684277380701758  0.5914823281067497  0.15548885430384032  1.0000
  C   C12       1.0  0.5315692460106051  0.8445091891538968  0.40852152268045205  1.0000
  C   C13       1.0  0.9672355770018372  0.5462153016789699  0.7795834482405013  1.0000
  C   C14       1.0  0.5327655909300476  0.22042260631707933  0.45378370062569917  1.0000
  C   C15       1.0  0.03276431241173579  0.4537883483280398  0.2204150765073009  1.0000
  C   C16       1.0  0.46723690124692024  0.7795820660309046  0.5462149572434001  1.0000
  C   C17       1.0  0.017496514102077768  0.6225571804569371  0.6430552542676438  1.0000
  C   C18       1.0  0.48250101395122164  0.35695153392087053  0.3774423752287674  1.0000
  C   C19       1.0  0.9825035300292342  0.3774454619736289  0.3569463978790282  1.0000
  C   C20       1.0  0.5175001243505619  0.643053136006948  0.6225573114948162  1.0000
  C   C21       1.0  0.13252974595440042  0.5611223952341788  0.5718415201678653  1.0000
  C   C22       1.0  0.3674620542865554  0.4281637915494939  0.4388762207316291  1.0000
  C   C23       1.0  0.8674676871250498  0.43887922320137573  0.4281591124859786  1.0000
  C   C24       1.0  0.6325351107997219  0.5718398503091323  0.5611225889820942  1.0000
  C   C25       1.0  0.19112238649319832  0.4215991274958312  0.6461434915918858  1.0000
  C   C26       1.0  0.3088765894611285  0.3538582644041243  0.578402848336182  1.0000
  C   C27       1.0  0.8088764170383557  0.5784024966679481  0.35385788495052845  1.0000
  C   C28       1.0  0.6911250682500737  0.6461423553694985  0.42159871152460254  1.0000
  C   C29       1.0  0.19262078701918026  0.6326177045303538  0.43084658771475387  1.0000
  C   C30       1.0  0.30736664053083734  0.5691574671364066  0.36738649460291845  1.0000
  C   C31       1.0  0.8073765244963695  0.3673849280977847  0.5691544630263224  1.0000
  C   C32       1.0  0.6926278416704434  0.43084617484400667  0.6326170319343518  1.0000
  N   N1        1.0  0.14018381308060412  0.34794004188253075  0.7799426169941127  1.0000
  N   N2        1.0  0.3598167779790699  0.22005979564291064  0.6520603910193329  1.0000
  N   N3        1.0  0.8598136117103864  0.6520615748989942  0.2200571292882074  1.0000
  N   N4        1.0  0.6401847415913122  0.7799418350152223  0.34793981418562947  1.0000
  O   O1        1.0  0.1503034350673929  0.10905255040590592  0.06677761243612677  1.0000
  O   O2        1.0  0.34969379077057283  0.9332225764605865  0.8909511943304622  1.0000
  O   O3        1.0  0.8496950756056094  0.8909510922188417  0.9332192820515886  1.0000
  O   O4        1.0  0.6503097568021587  0.0667739988870579  0.10905298255607931  1.0000
  O   O5        1.0  0.9910787200304938  0.0859098893912389  0.8335539737642462  1.0000
  O   O6        1.0  0.5089269129880164  0.16643095651936327  0.9140949787063802  1.0000
  O   O7        1.0  0.00891954475170561  0.9140947426155748  0.1664300432378314  1.0000
  O   O8        1.0  0.4910847909896746  0.8335656399653639  0.08590657053932935  1.0000
  F   F1        1.0  0.92074517840436  0.17144013880919567  0.2515619884115168  1.0000
  F   F2        1.0  0.579253750601886  0.748443951899624  0.8285560567129195  1.0000
  F   F3        1.0  0.07928120536857357  0.8285494404202256  0.7484573686820964  1.0000
  F   F4        1.0  0.42073567240645804  0.2515454809378355  0.17144764724714892  1.0000
  F   F5        1.0  0.8896230689958387  0.9554491953357814  0.3828076503878463  1.0000
  F   F6        1.0  0.6103731075191093  0.6171914461774364  0.044543524594232164  1.0000
  F   F7        1.0  0.11038721470355742  0.044536230265976  0.6171860393782109  1.0000
  F   F8        1.0  0.3896121074343953  0.38279898863003586  0.9554610249019576  1.0000
  F   F9        1.0  0.1568634599654217  0.0324082950765074  0.34796964226767096  1.0000
  F   F10       1.0  0.34313230300131187  0.6520349908404413  0.9675869870003809  1.0000
  F   F11       1.0  0.843158679740398  0.967570085273138  0.6520315038539195  1.0000
  F   F12       1.0  0.6568489139667263  0.347965566166252  0.03241582373330946  1.0000
