data_image0
_chemical_formula_structural       Cu2H12C12N16O8
_chemical_formula_sum              "Cu2 H12 C12 N16 O8"
_cell_length_a       4.7601993273882695
_cell_length_b       9.426082037076268
_cell_length_c       11.88302025100821
_cell_angle_alpha    90.0001167876676
_cell_angle_beta     89.9999062073132
_cell_angle_gamma    103.2574425424306

_space_group_name_H-M_alt    "P 1"
_space_group_IT_number       1

loop_
  _space_group_symop_operation_xyz
  'x, y, z'

loop_
  _atom_site_type_symbol
  _atom_site_label
  _atom_site_symmetry_multiplicity
  _atom_site_fract_x
  _atom_site_fract_y
  _atom_site_fract_z
  _atom_site_occupancy
  Cu  Cu1       1.0  3.8177456215268625e-07  0.5000009080789808  0.49999955352321007  1.0000
  Cu  Cu2       1.0  0.9999966677793138  0.9999995705808188  0.9999996169331595  1.0000
  H   H1        1.0  0.8429690412052153  0.22780650848996234  0.6736072736424175  1.0000
  H   H2        1.0  0.15702881682114617  0.2721925340094557  0.1736058646295646  1.0000
  H   H3        1.0  0.15703593089464363  0.7721974112585243  0.3263931848284115  1.0000
  H   H4        1.0  0.8429663457938049  0.7278037667879858  0.826393752301442  1.0000
  H   H5        1.0  0.5008315795560137  0.9529775921381898  0.6916328542177722  1.0000
  H   H6        1.0  0.4991633037053518  0.5470200289726108  0.19163421907649078  1.0000
  H   H7        1.0  0.4991786865369293  0.047024137210293304  0.30836760424952553  1.0000
  H   H8        1.0  0.5008271588949214  0.4529751889285192  0.8083670809289955  1.0000
  H   H9        1.0  0.1609408331475777  0.9243544078945121  0.6221438759129042  1.0000
  H   H10       1.0  0.839055766268686  0.5756463294920877  0.1221450617648898  1.0000
  H   H11       1.0  0.8390694329453725  0.075647321453971  0.3778565825543936  1.0000
  H   H12       1.0  0.16093620149850105  0.4243521581905512  0.8778545551689516  1.0000
  C   C1        1.0  0.6759901186146706  0.23085985178758514  0.611136681417399  1.0000
  C   C2        1.0  0.3240058299442268  0.2691390562252423  0.11113683976785178  1.0000
  C   C3        1.0  0.32401485348518827  0.7691440679609015  0.3888637770534302  1.0000
  C   C4        1.0  0.6759846326573253  0.730856161674957  0.888863618700732  1.0000
  C   C5        1.0  0.32189588095901206  0.0031201918861824985  0.6703875440098344  1.0000
  C   C6        1.0  0.678101986839586  0.4968788435033745  0.1703886785299176  1.0000
  C   C7        1.0  0.6781122859885967  0.9968815409771066  0.3296129144581669  1.0000
  C   C8        1.0  0.321891076630024  0.5031174608088734  0.8296109384017922  1.0000
  C   C9        1.0  0.1799442218956671  0.04442867751928499  0.7784662083996563  1.0000
  C   C10       1.0  0.8200585194761417  0.455572769451514  0.2784671817413056  1.0000
  C   C11       1.0  0.8200634433317687  0.9555719654152807  0.22153340853073186  1.0000
  C   C12       1.0  0.1799396534688072  0.5444300709117514  0.7215315936571044  1.0000
  N   N1        1.0  0.6807138443834474  0.32846030694996375  0.5300681435036694  1.0000
  N   N2        1.0  0.31928654861832934  0.17153841494355496  0.03006646355684949  1.0000
  N   N3        1.0  0.3192885268483466  0.6715425263864674  0.4699331565040409  1.0000
  N   N4        1.0  0.6807070165752905  0.8284589792946304  0.9699314703017731  1.0000
  N   N5        1.0  0.43395912465468467  0.28555465040992084  0.46906770541309567  1.0000
  N   N6        1.0  0.5660404371275335  0.2144461312015409  0.9690667518239947  1.0000
  N   N7        1.0  0.5660427448556504  0.7144470929987247  0.5309335945938969  1.0000
  N   N8        1.0  0.43395153064221154  0.7855523564792435  0.030931182036049196  1.0000
  N   N9        1.0  0.28036121398233865  0.1654565532010679  0.510488946577965  1.0000
  N   N10       1.0  0.7196392384667263  0.3345421254411818  0.010488107085180299  1.0000
  N   N11       1.0  0.7196427546720514  0.8345451866936953  0.48951319496522655  1.0000
  N   N12       1.0  0.2803543267256216  0.6654552687979345  0.9895106683103447  1.0000
  N   N13       1.0  0.430416509850744  0.12913915883356708  0.5993147699997152  1.0000
  N   N14       1.0  0.5695841746152867  0.370860805961776  0.0993149305007393  1.0000
  N   N15       1.0  0.569589557950259  0.8708625775454591  0.40068653000587756  1.0000
  N   N16       1.0  0.43041098799838556  0.6291354948366035  0.9006855279671697  1.0000
  O   O1        1.0  0.18417527661037522  0.9545987543324587  0.859634862242835  1.0000
  O   O2        1.0  0.8158174991195396  0.5454003313531288  0.3596368559720986  1.0000
  O   O3        1.0  0.8158208894500449  0.04539972631871338  0.14036307161580908  1.0000
  O   O4        1.0  0.1841822712492984  0.4546014155675379  0.6403619194248975  1.0000
  O   O5        1.0  0.07157051556043112  0.1524968999476073  0.7802495486978955  1.0000
  O   O6        1.0  0.9284374221318359  0.3475067237875109  0.2802494332796144  1.0000
  O   O7        1.0  0.928433954819248  0.8475059298721632  0.21975006823532078  1.0000
  O   O8        1.0  0.07157074481833807  0.6524950090739168  0.7197493421145892  1.0000
