data_image0
_chemical_formula_structural       Fe2H20C16O8
_chemical_formula_sum              "Fe2 H20 C16 O8"
_cell_length_a       5.171458184598517
_cell_length_b       6.562079711225544
_cell_length_c       13.138843450743742
_cell_angle_alpha    99.7556595362517
_cell_angle_beta     99.14460556776548
_cell_angle_gamma    103.38198266550752

_space_group_name_H-M_alt    "P 1"
_space_group_IT_number       1

loop_
  _space_group_symop_operation_xyz
  'x, y, z'

loop_
  _atom_site_type_symbol
  _atom_site_label
  _atom_site_symmetry_multiplicity
  _atom_site_fract_x
  _atom_site_fract_y
  _atom_site_fract_z
  _atom_site_occupancy
  Fe  Fe1       1.0  0.2639830710710314  0.11216324452598062  0.04385826729057379  1.0000
  Fe  Fe2       1.0  0.736303226796174  0.887820386380305  0.9561573085048207  1.0000
  H   H1        1.0  0.4153099694870689  0.5262658684259875  0.8208171329921254  1.0000
  H   H2        1.0  0.5846839314140482  0.47379583766616673  0.17914789350579238  1.0000
  H   H3        1.0  0.025308409082278285  0.6517157588953355  0.6566761056942169  1.0000
  H   H4        1.0  0.9746658364525158  0.34843411773680094  0.3433117919672596  1.0000
  H   H5        1.0  0.3624234153967762  0.8047618401269008  0.7162292182306871  1.0000
  H   H6        1.0  0.6375966920788584  0.19522841579566116  0.28376875240122246  1.0000
  H   H7        1.0  0.3403872551366547  0.5796296534087091  0.5389272374117339  1.0000
  H   H8        1.0  0.659679789686635  0.420354436475357  0.4610730212262907  1.0000
  H   H9        1.0  0.5493081844719896  0.5157060346727036  0.6420393970134696  1.0000
  H   H10       1.0  0.45054003928045466  0.48423445662252373  0.35800357564961155  1.0000
  H   H11       1.0  0.2614094336483603  0.17919347267475416  0.5233418727288138  1.0000
  H   H12       1.0  0.7386064219862193  0.8208065968119057  0.4766749239882983  1.0000
  H   H13       1.0  0.9649515303379488  0.2647579131747194  0.5319334820030759  1.0000
  H   H14       1.0  0.03496623242776311  0.7351636623845863  0.4679796329540763  1.0000
  H   H15       1.0  0.3364206501271383  0.16309757100477645  0.7125897003548615  1.0000
  H   H16       1.0  0.6635233809892044  0.8371423854626413  0.28744952020043957  1.0000
  H   H17       1.0  0.0037279047279597  0.010529275086611299  0.6483969611787115  1.0000
  H   H18       1.0  0.9963015876085066  0.9894468280088445  0.3516171425483775  1.0000
  H   H19       1.0  0.8178262810846634  0.31233893606767543  0.718353571308377  1.0000
  H   H20       1.0  0.18207380129125283  0.687697170931756  0.2816433220602476  1.0000
  C   C1        1.0  0.21153225649187854  0.5374481888276677  0.7875183347332566  1.0000
  C   C2        1.0  0.7884423160358054  0.46253661356031717  0.21244297969243317  1.0000
  C   C3        1.0  0.22944198298169027  0.640635629073742  0.690861619281371  1.0000
  C   C4        1.0  0.7704503233505449  0.3593891449882634  0.30912702220688  1.0000
  C   C5        1.0  0.33682155259788965  0.5079299345919421  0.6086752698514812  1.0000
  C   C6        1.0  0.6630777355072723  0.49205012962214306  0.39131693743379253  1.0000
  C   C7        1.0  0.16812102093132353  0.27400174006540823  0.576838313099607  1.0000
  C   C8        1.0  0.8318044469792198  0.7259814593764915  0.4231397306319165  1.0000
  C   C9        1.0  0.137301331284263  0.17452426737845886  0.6729144464936991  1.0000
  C   C10       1.0  0.8625553663800289  0.8254925202459161  0.3270873948646197  1.0000
  C   C11       1.0  0.0238572881554191  0.30913548936391066  0.7541761613767972  1.0000
  C   C12       1.0  0.9760115506299627  0.690823577243215  0.24581020912869883  1.0000
  C   C13       1.0  0.12596232563750215  0.6840320872843363  0.869683025692616  1.0000
  C   C14       1.0  0.874176921641535  0.31594451611689334  0.13033309614525723  1.0000
  C   C15       1.0  0.002835411896576514  0.2013621204951619  0.8470230208418883  1.0000
  C   C16       1.0  0.9971526835488831  0.7986136676131397  0.15298021624439428  1.0000
  O   O1        1.0  0.3131749494070988  0.8358235477613293  0.9354149040990476  1.0000
  O   O2        1.0  0.6870957290437332  0.1641057470795673  0.06460970462393328  1.0000
  O   O3        1.0  0.8762043917124416  0.6634472876379577  0.8682364462474792  1.0000
  O   O4        1.0  0.12394621994135956  0.33654284884340785  0.1318347528928072  1.0000
  O   O5        1.0  0.2128610433536693  0.24878516609069126  0.9208969397390375  1.0000
  O   O6        1.0  0.7871900354518572  0.7511154137433425  0.07908175431368389  1.0000
  O   O7        1.0  0.7824555703582234  0.0627166912990802  0.8448438143076089  1.0000
  O   O8        1.0  0.2175284580006079  0.9372703315105826  0.15516391589811457  1.0000
