data_image0
_chemical_formula_structural       Y4Cu6H48C48O60
_chemical_formula_sum              "Y4 Cu6 H48 C48 O60"
_cell_length_a       12.724135820616352
_cell_length_b       12.722909963552897
_cell_length_c       16.39551308861527
_cell_angle_alpha    90.00447962628286
_cell_angle_beta     89.996704182993
_cell_angle_gamma    120.00369452201818

_space_group_name_H-M_alt    "P 1"
_space_group_IT_number       1

loop_
  _space_group_symop_operation_xyz
  'x, y, z'

loop_
  _atom_site_type_symbol
  _atom_site_label
  _atom_site_symmetry_multiplicity
  _atom_site_fract_x
  _atom_site_fract_y
  _atom_site_fract_z
  _atom_site_occupancy
  Y   Y1        1.0  0.3333704989652731  0.6666453121759376  0.24995359400607944  1.0000
  Y   Y2        1.0  0.6667170886064041  0.3333782346804666  0.2500354480823859  1.0000
  Y   Y3        1.0  0.6665690473086128  0.33330743331539725  0.7500283398521503  1.0000
  Y   Y4        1.0  0.33334178051836705  0.666707822970018  0.7499885722442768  1.0000
  Cu  Cu1       1.0  0.4999867619166024  0.499993363819925  0.9999927041333265  1.0000
  Cu  Cu2       1.0  0.9999936851221064  0.4999850261391927  0.9999979331980741  1.0000
  Cu  Cu3       1.0  0.4999627893978626  1.9033055515543418e-05  5.8390547366e-06  1.0000
  Cu  Cu4       1.0  9.61976027014644e-06  0.49997612671010927  0.5000189787887238  1.0000
  Cu  Cu5       1.0  0.5000089376744796  0.5000233992213905  0.49998334350839  1.0000
  Cu  Cu6       1.0  0.5000001842536645  0.9999944400019626  0.49999052147069983  1.0000
  H   H1        1.0  0.8509442124125216  0.19711117408925813  0.8571400849823689  1.0000
  H   H2        1.0  0.7651031648518652  0.06317769023264926  0.7962650795307624  1.0000
  H   H3        1.0  0.34600190187165225  0.14891368705659852  0.8571551149306345  1.0000
  H   H4        1.0  0.2979069423554462  0.2348538997460777  0.7962786982558542  1.0000
  H   H5        1.0  0.8029698127574388  0.6539526315942863  0.8571423756555349  1.0000
  H   H6        1.0  0.9369152368162968  0.7018183450104086  0.7961791726713513  1.0000
  H   H7        1.0  0.14896021282809366  0.8028820422623183  0.857118369108228  1.0000
  H   H8        1.0  0.23479567510054256  0.9368466887087264  0.7962698279820088  1.0000
  H   H9        1.0  0.6538682361742899  0.8509763944524522  0.8571515219476638  1.0000
  H   H10       1.0  0.7018975339735222  0.7649745275016359  0.7962433986061582  1.0000
  H   H11       1.0  0.1970913674516055  0.34614517076033013  0.8571447464890978  1.0000
  H   H12       1.0  0.06312152636656526  0.29817643037460334  0.7962008147278398  1.0000
  H   H13       1.0  0.6538940778686568  0.80289402766568  0.6428839073800674  1.0000
  H   H14       1.0  0.7019665877020033  0.9368490809545236  0.703728862177627  1.0000
  H   H15       1.0  0.1971149938354345  0.8509636949407237  0.6428274787781658  1.0000
  H   H16       1.0  0.06308626421672864  0.7650704051755424  0.7037317684005016  1.0000
  H   H17       1.0  0.14907406518416624  0.34609776832078865  0.6428401724357542  1.0000
  H   H18       1.0  0.23508325704519703  0.29816776468380357  0.7038025038233613  1.0000
  H   H19       1.0  0.3460351795676715  0.1970774800143217  0.6428768239998705  1.0000
  H   H20       1.0  0.2979251090402356  0.06310861467812856  0.7037121112256699  1.0000
  H   H21       1.0  0.8028548091778162  0.14901259816389972  0.6428765299877099  1.0000
  H   H22       1.0  0.9368874813431559  0.2350173264748461  0.7037598301992817  1.0000
  H   H23       1.0  0.8509814457734706  0.653836780822253  0.6428467584649552  1.0000
  H   H24       1.0  0.7650253685444426  0.7019038131821418  0.7037750943499572  1.0000
  H   H25       1.0  0.1489978535373595  0.802868051245902  0.1428833238997171  1.0000
  H   H26       1.0  0.2348364751314946  0.9367871041224589  0.2037729673552491  1.0000
  H   H27       1.0  0.6539677906959582  0.8510322738540664  0.1428231594568885  1.0000
  H   H28       1.0  0.7020137132342583  0.7650693806380315  0.203723972621745  1.0000
  H   H29       1.0  0.1970121809723437  0.3459985810747169  0.1428133316855096  1.0000
  H   H30       1.0  0.06306942982674006  0.2980970109929046  0.20378263357122248  1.0000
  H   H31       1.0  0.8509889365564687  0.19711638632482215  0.14288491252873567  1.0000
  H   H32       1.0  0.7651388014257775  0.06315324298184069  0.20371759560804034  1.0000
  H   H33       1.0  0.34624007688678654  0.14905005158221474  0.14282675380687238  1.0000
  H   H34       1.0  0.29811126879155836  0.23498210425114513  0.20371962797873516  1.0000
  H   H35       1.0  0.8029821759216347  0.6539393822004841  0.14286829527382847  1.0000
  H   H36       1.0  0.9369704378105581  0.7019380243803467  0.2037847808651421  1.0000
  H   H37       1.0  0.34610017570135904  0.19710191563056154  0.35710046681790425  1.0000
  H   H38       1.0  0.29808062791606454  0.06316437775438996  0.29625063303344484  1.0000
  H   H39       1.0  0.8029166685148611  0.1490080948162671  0.3571587251228721  1.0000
  H   H40       1.0  0.9369254463010035  0.23496088677075702  0.2962416275951155  1.0000
  H   H41       1.0  0.8510223830901893  0.6539927989607007  0.35719177709605526  1.0000
  H   H42       1.0  0.7650656446026642  0.701980230682089  0.2962202976368076  1.0000
  H   H43       1.0  0.6538909559196852  0.8028422233454363  0.3570984003340882  1.0000
  H   H44       1.0  0.702042231471822  0.9368395326954156  0.2962838509384298  1.0000
  H   H45       1.0  0.19717320146399686  0.850939832675216  0.357160297320398  1.0000
  H   H46       1.0  0.06309281933651079  0.7649597317509134  0.2962995642841264  1.0000
  H   H47       1.0  0.14901412598366195  0.3460502357592148  0.3571211467862625  1.0000
  H   H48       1.0  0.2350254843801736  0.29806834139228755  0.2961836631045642  1.0000
  C   C1        1.0  0.12026695485282336  0.6577700072951201  0.3657403574861604  1.0000
  C   C2        1.0  0.8518190181736642  0.22902061800829884  0.682909185845368  1.0000
  C   C3        1.0  0.5375934184284431  0.87981838574418  0.3657028062386019  1.0000
  C   C4        1.0  0.37707309481391604  0.14808911589904025  0.6828996402751386  1.0000
  C   C5        1.0  0.3422467547488991  0.462390298032254  0.3656797009985908  1.0000
  C   C6        1.0  0.7709701369644791  0.6228239441926106  0.6828893884919864  1.0000
  C   C7        1.0  0.879847005942267  0.34220729074588246  0.3657437274682565  1.0000
  C   C8        1.0  0.14812028096756794  0.770989456996503  0.6828777089897287  1.0000
  C   C9        1.0  0.4624503091847743  0.12019537326700198  0.3657532222986219  1.0000
  C   C10       1.0  0.6228291331887591  0.851876537560102  0.6828964028219175  1.0000
  C   C11       1.0  0.6577977195378751  0.5376940615613106  0.3657238748356093  1.0000
  C   C12       1.0  0.22908672261591065  0.3772027609353897  0.6828914077834725  1.0000
  C   C13       1.0  0.4624827058166048  0.34223817302716947  0.1342889499665958  1.0000
  C   C14       1.0  0.622828812302643  0.7709764564276399  0.8171091855331767  1.0000
  C   C15       1.0  0.6577211077148418  0.1201821963811369  0.1342834270881426  1.0000
  C   C16       1.0  0.22899261732157336  0.851888685471323  0.8170978669303466  1.0000
  C   C17       1.0  0.8798641606423486  0.5376028871516921  0.1343054292174983  1.0000
  C   C18       1.0  0.14816205410385655  0.37722056042802166  0.8170948458503844  1.0000
  C   C19       1.0  0.5376877609000418  0.6578241203162563  0.1342337160406117  1.0000
  C   C20       1.0  0.3770158936264138  0.2289272860218715  0.8171420120153172  1.0000
  C   C21       1.0  0.34226213926450555  0.8798463027667083  0.1342685140852282  1.0000
  C   C22       1.0  0.7709145277841359  0.14813601490897813  0.8171142969666149  1.0000
  C   C23       1.0  0.1201790880644324  0.4623759073472229  0.13425871020574928  1.0000
  C   C24       1.0  0.8518659435731096  0.6228177098782696  0.8171008507818058  1.0000
  C   C25       1.0  0.8797276412059744  0.34218769512819575  0.6342854911128057  1.0000
  C   C26       1.0  0.14816372490899013  0.7709359667119742  0.3171294710736916  1.0000
  C   C27       1.0  0.4623622344085446  0.12012697313694079  0.6342858367724986  1.0000
  C   C28       1.0  0.6228817370154187  0.8518645906560632  0.3170835135047696  1.0000
  C   C29       1.0  0.6577441791682046  0.5375829431090151  0.6342869852036443  1.0000
  C   C30       1.0  0.2290310903806017  0.3771184922059731  0.31707851730911324  1.0000
  C   C31       1.0  0.12016915928771973  0.6577743535017789  0.6342839512205316  1.0000
  C   C32       1.0  0.8518839657295274  0.2290047823155134  0.31712252323285384  1.0000
  C   C33       1.0  0.5375711840010453  0.8798450289877237  0.6342573791271066  1.0000
  C   C34       1.0  0.37719823570605365  0.14814323372069535  0.3170934610529486  1.0000
  C   C35       1.0  0.3422926976920308  0.46244913585519487  0.6342806286350751  1.0000
  C   C36       1.0  0.771029817167509  0.6229267738105689  0.31712956359177724  1.0000
  C   C37       1.0  0.5375488721075784  0.6577822367586778  0.865710062777211  1.0000
  C   C38       1.0  0.37721764931792723  0.229031635529516  0.1828770187764093  1.0000
  C   C39       1.0  0.3422335550726885  0.8798687504479971  0.8657290039151208  1.0000
  C   C40       1.0  0.7709567704219465  0.14812469074274046  0.18290480492634487  1.0000
  C   C41       1.0  0.12019947894016524  0.46246508390438373  0.8657082222680684  1.0000
  C   C42       1.0  0.8519279766607895  0.6228744548001756  0.1829096571619857  1.0000
  C   C43       1.0  0.4622590766766448  0.34213701709059297  0.8657567568505016  1.0000
  C   C44       1.0  0.622925839054389  0.7710249441925258  0.18284907069210019  1.0000
  C   C45       1.0  0.6576758142723164  0.12014432961047562  0.8657457460424922  1.0000
  C   C46       1.0  0.2290244557343329  0.8518354571959748  0.1829127713663752  1.0000
  C   C47       1.0  0.8797678845752656  0.5375578000184545  0.8657360318867829  1.0000
  C   C48       1.0  0.14811458716162207  0.37711362596419207  0.1828701044387202  1.0000
  O   O1        1.0  0.1788133130509166  0.604559143503117  0.34971743199528754  1.0000
  O   O2        1.0  0.039039676052539114  0.6290267954661388  0.420122902655919  1.0000
  O   O3        1.0  0.42583799392730987  0.8212207724654733  0.3496912858109625  1.0000
  O   O4        1.0  0.5900800348653873  0.9610667864521005  0.4200894163675457  1.0000
  O   O5        1.0  0.39547819501328246  0.5741501472335101  0.3496650249475195  1.0000
  O   O6        1.0  0.3709820983563148  0.40992369589701383  0.4200759189699639  1.0000
  O   O7        1.0  0.8213471850288627  0.39545949397232494  0.3497310595090681  1.0000
  O   O8        1.0  0.961073465577023  0.3709297017587402  0.4201220360779843  1.0000
  O   O9        1.0  0.5742306752077438  0.1788149604859439  0.3498053893697204  1.0000
  O   O10       1.0  0.40990694971993946  0.03890837527321614  0.4201079480017071  1.0000
  O   O11       1.0  0.6046007842581885  0.4259154413958584  0.34975845980471837  1.0000
  O   O12       1.0  0.629034125970719  0.5901972154428847  0.4200836316839371  1.0000
  O   O13       1.0  0.5742319847050509  0.39547008793894617  0.1502967599780121  1.0000
  O   O14       1.0  0.4099703853929882  0.3709781688291258  0.07992350956189398  1.0000
  O   O15       1.0  0.6045519801210943  0.17876754112960896  0.1503113063369454  1.0000
  O   O16       1.0  0.6289803180295692  0.03895412244916215  0.0798822825085637  1.0000
  O   O17       1.0  0.8213341377774128  0.4258442261541332  0.1503115432617577  1.0000
  O   O18       1.0  0.9610645585330461  0.5900820483872309  0.07990115165320329  1.0000
  O   O19       1.0  0.42592767342431875  0.6045828829343876  0.1502407625574591  1.0000
  O   O20       1.0  0.590179091695191  0.6290660373211947  0.0798614792750527  1.0000
  O   O21       1.0  0.3954650026710453  0.821267873482057  0.1502243856413088  1.0000
  O   O22       1.0  0.37097341520539107  0.9611082031944418  0.0799088048765455  1.0000
  O   O23       1.0  0.17880331127871327  0.574156576014957  0.15020463137856405  1.0000
  O   O24       1.0  0.0389089041064494  0.4098709235314217  0.0799070126246875  1.0000
  O   O25       1.0  0.8211727461646205  0.3953898076459976  0.6502827997188092  1.0000
  O   O26       1.0  0.9609829975717261  0.37093211317933583  0.5799188040740687  1.0000
  O   O27       1.0  0.5741226893258612  0.1787168768141  0.6503046762246286  1.0000
  O   O28       1.0  0.4098877538642895  0.03888549494068629  0.5798961771472051  1.0000
  O   O29       1.0  0.604480145012502  0.42582001817848425  0.6503022710064599  1.0000
  O   O30       1.0  0.6290438095340036  0.5900761962860273  0.5798907676372949  1.0000
  O   O31       1.0  0.17871289530955184  0.6045708287078355  0.6502893007568531  1.0000
  O   O32       1.0  0.038910964994826686  0.6290010437497742  0.5799202801413657  1.0000
  O   O33       1.0  0.42580773462295685  0.8212749454250311  0.6502411980541042  1.0000
  O   O34       1.0  0.590104260995389  0.9610975937476952  0.5798770362881598  1.0000
  O   O35       1.0  0.39551103117328523  0.574223035359708  0.6502533627901387  1.0000
  O   O36       1.0  0.37101186867686653  0.4099372148429054  0.5799007440520327  1.0000
  O   O37       1.0  0.4258008227338762  0.6045855852224519  0.8497175011795832  1.0000
  O   O38       1.0  0.5900417364878693  0.6290011656914984  0.9200675737092254  1.0000
  O   O39       1.0  0.3954365282091177  0.8213171735574181  0.8497236922837388  1.0000
  O   O40       1.0  0.3709482440251008  0.9611059161640938  0.9201277087752117  1.0000
  O   O41       1.0  0.17874800929127602  0.5742353638353991  0.8497423633305843  1.0000
  O   O42       1.0  0.03895387660129762  0.40994602683073106  0.9200777336479717  1.0000
  O   O43       1.0  0.5740140529244114  0.3953390147624275  0.8497484900935603  1.0000
  O   O44       1.0  0.4097852251238051  0.37092587730853666  0.9201228947542431  1.0000
  O   O45       1.0  0.6044688108687312  0.17870840365706891  0.8497538888771246  1.0000
  O   O46       1.0  0.6289560057349063  0.038904012805502965  0.9201219233387121  1.0000
  O   O47       1.0  0.8211377577204357  0.42577200044112107  0.8497907205625735  1.0000
  O   O48       1.0  0.9610231335680338  0.5900539123962928  0.9200956583172655  1.0000
  O   O49       1.0  0.7777540761761088  0.22221549482699737  0.7500186228261185  1.0000
  O   O50       1.0  0.44427634938583077  0.2221537794521139  0.7500183884585994  1.0000
  O   O51       1.0  0.7777460479351248  0.5555735280375557  0.7500095836211784  1.0000
  O   O52       1.0  0.22219464411305262  0.7778358349695791  0.7499885310098477  1.0000
  O   O53       1.0  0.5555886600635278  0.7778191182339923  0.7500021825744838  1.0000
  O   O54       1.0  0.22223726033593044  0.44445627007172567  0.7499884213169565  1.0000
  O   O55       1.0  0.22218767807257922  0.7777321647893983  0.24999136745012862  1.0000
  O   O56       1.0  0.555665509675407  0.7778362561019206  0.2499574465334149  1.0000
  O   O57       1.0  0.22222124219280912  0.44435342905989467  0.24996442111498138  1.0000
  O   O58       1.0  0.7777903449363633  0.22217175402283112  0.2500281691754793  1.0000
  O   O59       1.0  0.4444513881360877  0.2222237567470842  0.2500017098029019  1.0000
  O   O60       1.0  0.7778740103248009  0.5556660270454254  0.2500325499667255  1.0000
