data_image0
_chemical_formula_structural       Cs4H16C56Br4N16O4
_chemical_formula_sum              "Cs4 H16 C56 Br4 N16 O4"
_cell_length_a       5.435766371818312
_cell_length_b       15.641873688466667
_cell_length_c       18.18700330420758
_cell_angle_alpha    90.00039844017641
_cell_angle_beta     90.00034750750969
_cell_angle_gamma    94.05923301663258

_space_group_name_H-M_alt    "P 1"
_space_group_IT_number       1

loop_
  _space_group_symop_operation_xyz
  'x, y, z'

loop_
  _atom_site_type_symbol
  _atom_site_label
  _atom_site_symmetry_multiplicity
  _atom_site_fract_x
  _atom_site_fract_y
  _atom_site_fract_z
  _atom_site_occupancy
  Cs  Cs1       1.0  0.838456582326053  0.8967446036638761  0.6143954838860637  1.0000
  Cs  Cs2       1.0  0.161544465509607  0.6032555311486972  0.11439573083315221  1.0000
  Cs  Cs3       1.0  0.1615466153554053  0.1032581742384622  0.3856054884128781  1.0000
  Cs  Cs4       1.0  0.8384612183072663  0.396741477111945  0.8856052414507617  1.0000
  H   H1        1.0  0.245425656109866  0.808169468709245  0.9102053706698143  1.0000
  H   H2        1.0  0.7545649540631346  0.6918312973462262  0.41020282569341765  1.0000
  H   H3        1.0  0.7545638696485357  0.1918294685599733  0.0897978009779976  1.0000
  H   H4        1.0  0.2454208925856918  0.30816764128776686  0.5897948475191086  1.0000
  H   H5        1.0  0.0873503334007495  0.9421081112148427  0.9562203559530643  1.0000
  H   H6        1.0  0.9126490460806024  0.5578949711385802  0.4562189448364151  1.0000
  H   H7        1.0  0.9126473457253539  0.057894668777272784  0.043782265870469  1.0000
  H   H8        1.0  0.08734639580440273  0.4421058867658942  0.5437765290177907  1.0000
  H   H9        1.0  0.6962705989867574  0.08912953070390728  0.8525217753747611  1.0000
  H   H10       1.0  0.30372888275198323  0.41086855664217126  0.352520824417752  1.0000
  H   H11       1.0  0.3037296988086026  0.9108681205588095  0.14747974674939  1.0000
  H   H12       1.0  0.6962622174026762  0.5891290980845552  0.6474790481684777  1.0000
  H   H13       1.0  0.8572330123910703  0.954373464383593  0.807111314592774  1.0000
  H   H14       1.0  0.1427603153483332  0.54562384799123  0.3071089827822533  1.0000
  H   H15       1.0  0.142763341269422  0.0456229064358809  0.1928907573671594  1.0000
  H   H16       1.0  0.8572286801838516  0.4543725255933068  0.692890339955035  1.0000
  C   C1        1.0  0.6568432709564433  0.7946156946594126  0.8235443675708467  1.0000
  C   C2        1.0  0.3431550256226358  0.7053862442820671  0.3235422569468511  1.0000
  C   C3        1.0  0.34314862449211603  0.20538580557658284  0.1764571545572124  1.0000
  C   C4        1.0  0.6568444929734767  0.29461653499451057  0.676455416289592  1.0000
  C   C5        1.0  0.5623144117705295  0.8724181139211353  0.8549817995526254  1.0000
  C   C6        1.0  0.43767300992031727  0.6275815362742279  0.3549777447409355  1.0000
  C   C7        1.0  0.4376695954204096  0.12758082543312096  0.1450219219333846  1.0000
  C   C8        1.0  0.5623128367103477  0.37241740235265997  0.6450182789420111  1.0000
  C   C9        1.0  0.34505910896613295  0.8692595571915614  0.8971969039400705  1.0000
  C   C10       1.0  0.6549385727829674  0.6307410940521478  0.397195461668602  1.0000
  C   C11       1.0  0.6549360678814652  0.13074001890016965  0.1028035184988099  1.0000
  C   C12       1.0  0.34505476452195444  0.3692584827267068  0.602803311239029  1.0000
  C   C13       1.0  0.2547614395956188  0.944544560827154  0.9232673127947565  1.0000
  C   C14       1.0  0.745235241969816  0.5554575974857626  0.423266133134554  1.0000
  C   C15       1.0  0.7452322953713948  0.05545693871225409  0.07673365949177222  1.0000
  C   C16       1.0  0.25475822784473223  0.4445426201959108  0.5767293407159501  1.0000
  C   C17       1.0  0.38193094877753714  0.022867281559300096  0.9064966488769102  1.0000
  C   C18       1.0  0.6180630264697201  0.47713447801950076  0.4064944659784189  1.0000
  C   C19       1.0  0.6180626536556275  0.9771335770678176  0.0935054230939656  1.0000
  C   C20       1.0  0.3819270294058939  0.5228670228917808  0.5935026574024178  1.0000
  C   C21       1.0  0.5995983552629269  0.027511448007892597  0.8651222595588735  1.0000
  C   C22       1.0  0.4004035086215581  0.47248802899662207  0.3651196538563681  1.0000
  C   C23       1.0  0.4004005006518483  0.9724881267024941  0.13487981241292601  1.0000
  C   C24       1.0  0.5995952146988232  0.5275109047777988  0.6348780193678323  1.0000
  C   C25       1.0  0.6893021101344489  0.9520122031805938  0.8398548672475171  1.0000
  C   C26       1.0  0.3106939109186087  0.5479860314351724  0.3398534041596477  1.0000
  C   C27       1.0  0.31069464115785916  0.047986090387595895  0.1601466548753407  1.0000
  C   C28       1.0  0.6892974543219098  0.45201290512324727  0.6601459185874674  1.0000
  C   C29       1.0  0.5016865314770911  0.710520449463921  0.8341048131008081  1.0000
  C   C30       1.0  0.49832394656659335  0.7894770891550564  0.3341029380555369  1.0000
  C   C31       1.0  0.49831376631826885  0.289477201798796  0.1658967090233432  1.0000
  C   C32       1.0  0.5016846371242565  0.21052504574047495  0.6658963847167882  1.0000
  C   C33       1.0  0.32117537700111853  0.6939898568561061  0.7799115046801931  1.0000
  C   C34       1.0  0.6788431049862212  0.8060072115433599  0.2799117057717453  1.0000
  C   C35       1.0  0.6788358253771564  0.30600714931713197  0.22008836792233666  1.0000
  C   C36       1.0  0.32117179254782974  0.1939987667692975  0.7200870671746245  1.0000
  C   C37       1.0  0.1492838098583533  0.6219517041344388  0.7801178739475034  1.0000
  C   C38       1.0  0.8507341465292697  0.8780428023893732  0.2801215677947226  1.0000
  C   C39       1.0  0.8507267297598633  0.37804209744182055  0.2198792494288497  1.0000
  C   C40       1.0  0.1492606326441219  0.12195485093706537  0.7198755555788665  1.0000
  C   C41       1.0  0.30770776102061603  0.754076377753627  0.7221412975277062  1.0000
  C   C42       1.0  0.6923002508331779  0.7459201965438852  0.22213951349344543  1.0000
  C   C43       1.0  0.6922963483515403  0.24592191303056402  0.27785857507223  1.0000
  C   C44       1.0  0.3077114816986466  0.25407937328562  0.7778576099012682  1.0000
  C   C45       1.0  0.5571740009645866  0.6604857547233035  0.8952912642608837  1.0000
  C   C46       1.0  0.44283217369967093  0.8395116720502004  0.3952895883196703  1.0000
  C   C47       1.0  0.44283589209117485  0.33951381581936596  0.1047102578777199  1.0000
  C   C48       1.0  0.5571722007643986  0.1604879005680431  0.6047102842843514  1.0000
  C   C49       1.0  0.7607964824249793  0.6858035779953224  0.9406475401493921  1.0000
  C   C50       1.0  0.2392151656090391  0.8141980835351955  0.4406453430359036  1.0000
  C   C51       1.0  0.2391951478832297  0.31419664038767786  0.0593495832290216  1.0000
  C   C52       1.0  0.7607968320268057  0.1858027681331009  0.559352880049282  1.0000
  C   C53       1.0  0.42537437317396615  0.5828426819371089  0.914985195620929  1.0000
  C   C54       1.0  0.5746322352971448  0.9171549144621306  0.4149847739044077  1.0000
  C   C55       1.0  0.5746264386984592  0.41714855946584345  0.0850174261708716  1.0000
  C   C56       1.0  0.4253764809638839  0.0828478613599017  0.5850167482427295  1.0000
  Br  Br1       1.0  0.2566547624957849  0.12593733979500138  0.940368834326911  1.0000
  Br  Br2       1.0  0.7433471844292896  0.3740640678375086  0.4403695602488398  1.0000
  Br  Br3       1.0  0.743346065471286  0.8740628751310808  0.05963158811901081  1.0000
  Br  Br4       1.0  0.25665377608373774  0.6259367880056034  0.5596308621991213  1.0000
  N   N1        1.0  0.005603594508023858  0.5625543184159907  0.7817533491442461  1.0000
  N   N2        1.0  0.9944040234872631  0.9374434109446524  0.2817571097639515  1.0000
  N   N3        1.0  0.9944001172141628  0.437442049612379  0.2182454237631788  1.0000
  N   N4        1.0  0.005617320423830602  0.062567051697421  0.7182400136721157  1.0000
  N   N5        1.0  0.3090525117745315  0.8053081636601362  0.6750842220936875  1.0000
  N   N6        1.0  0.6909496077122415  0.6946912120072569  0.1750815788109819  1.0000
  N   N7        1.0  0.6909517301738647  0.19469076805292215  0.3249183997242682  1.0000
  N   N8        1.0  0.30905700395659613  0.3053102826844167  0.8249221427031869  1.0000
  N   N9        1.0  0.9315320799972543  0.7054060966073408  0.9780238947916898  1.0000
  N   N10       1.0  0.06847657972832621  0.7945952473134027  0.47802237009197773  1.0000
  N   N11       1.0  0.0684818897635537  0.2945953953050733  0.0219792768859506  1.0000
  N   N12       1.0  0.9315263528672805  0.20540624875724933  0.5219791520460859  1.0000
  N   N13       1.0  0.32041330646598704  0.518523514952271  0.9339759418021528  1.0000
  N   N14       1.0  0.6795942505055096  0.9814768086838511  0.4339766457838721  1.0000
  N   N15       1.0  0.6796009283503964  0.4814792587799914  0.0660239308204069  1.0000
  N   N16       1.0  0.3204080193421462  0.018521482794561492  0.5660232268144014  1.0000
  O   O1        1.0  0.8467375780673552  0.7944400328647561  0.786359193915743  1.0000
  O   O2        1.0  0.1532597669000069  0.7055609448912961  0.2863572896029325  1.0000
  O   O3        1.0  0.15325615691782704  0.2055614666817505  0.21364342790037233  1.0000
  O   O4        1.0  0.8467401493460827  0.29444375714110277  0.7136414833260148  1.0000
