data_image0
_chemical_formula_structural       AlH24C24N15O6
_chemical_formula_sum              "Al1 H24 C24 N15 O6"
_cell_length_a       3.8607341204819567
_cell_length_b       16.016383746722596
_cell_length_c       15.864976923270875
_cell_angle_alpha    59.717025185042665
_cell_angle_beta     88.31422765710995
_cell_angle_gamma    87.67050309815248

_space_group_name_H-M_alt    "P 1"
_space_group_IT_number       1

loop_
  _space_group_symop_operation_xyz
  'x, y, z'

loop_
  _atom_site_type_symbol
  _atom_site_label
  _atom_site_symmetry_multiplicity
  _atom_site_fract_x
  _atom_site_fract_y
  _atom_site_fract_z
  _atom_site_occupancy
  Al  Al1       1.0  0.9707064269267748  0.4993638451533401  0.503652704161837  1.0000
  H   H1        1.0  0.3291101604152615  0.439472050993416  0.8106405619081515  1.0000
  H   H2        1.0  0.024147076059144  0.48220858128541283  0.7250637296779701  1.0000
  H   H3        1.0  0.5317068479936252  0.799038237705254  0.4332552906358345  1.0000
  H   H4        1.0  0.8679535666890033  0.721056712262012  0.477167772005494  1.0000
  H   H5        1.0  0.12078787199963155  0.6264860905229812  0.9064231171263655  1.0000
  H   H6        1.0  0.019223047871740583  0.5347612548353241  0.8822942389265903  1.0000
  H   H7        1.0  0.6934838189754797  0.9090949148099414  0.6135576502715878  1.0000
  H   H8        1.0  0.8172548926673284  0.8834917735877288  0.5190528530619357  1.0000
  H   H9        1.0  0.402013469086313  0.2619093621813064  0.4360861754425898  1.0000
  H   H10       1.0  0.08851134246259561  0.30681096787098744  0.4782050056386851  1.0000
  H   H11       1.0  0.2432307452062546  0.9802948746408546  0.6161942741913008  1.0000
  H   H12       1.0  0.11228554427640353  0.09823674778199627  0.5250652424198138  1.0000
  H   H13       1.0  0.6892292695115501  0.3084807478445413  0.7410508093390576  1.0000
  H   H14       1.0  0.9888033970798205  0.22234597291080152  0.793943914076209  1.0000
  H   H15       1.0  0.7218373137086899  0.9700321152263743  0.9126611326302763  1.0000
  H   H16       1.0  0.7671832278810841  0.08267795819541851  0.9023703423267478  1.0000
  H   H17       1.0  0.27045798263390713  0.9135265962038376  0.9770348168066861  1.0000
  H   H18       1.0  0.24103215552865717  0.9035548346825595  0.08975169212900626  1.0000
  H   H19       1.0  0.2239411049669897  0.7304356770795267  0.31849166644941107  1.0000
  H   H20       1.0  0.9790188410152185  0.8020247078033051  0.22430915515093386  1.0000
  H   H21       1.0  0.5837086548243207  0.6090238376001199  0.9766321761562864  1.0000
  H   H22       1.0  0.6724887280504035  0.5096497045944729  0.08864804718574247  1.0000
  H   H23       1.0  0.7154823461693169  0.45426271287990977  0.3141595434547926  1.0000
  H   H24       1.0  0.9640001749209048  0.4804872485774042  0.2183862600249569  1.0000
  C   C1        1.0  0.47554524401071063  0.5748380591299522  0.3519021570326615  1.0000
  C   C2        1.0  0.44942487108497187  0.5762267980602475  0.578447207103693  1.0000
  C   C3        1.0  0.4845367948587196  0.3484339449672121  0.5797756827834631  1.0000
  C   C4        1.0  0.49544971788781567  0.9310943942438146  0.784993262448367  1.0000
  C   C5        1.0  0.4430848533885837  0.7873726778563962  0.7845153087621383  1.0000
  C   C6        1.0  0.45514185556024966  0.7862934233912143  0.9307453840274533  1.0000
  C   C7        1.0  0.5644651522674736  0.724914713544024  0.5829100284246493  1.0000
  C   C8        1.0  0.5587110701231949  0.7780805190525514  0.6322973094025527  1.0000
  C   C9        1.0  0.43259391527625024  0.735011303653408  0.7314629760214617  1.0000
  C   C10       1.0  0.30343059102134623  0.6386364040648332  0.7773449294568026  1.0000
  C   C11       1.0  0.30350970074114514  0.5877492396337302  0.7258747392618617  1.0000
  C   C12       1.0  0.4377212426211798  0.631625085485453  0.6308778124920524  1.0000
  C   C13       1.0  0.3867808008151172  0.09223366919837162  0.6334145486677228  1.0000
  C   C14       1.0  0.3701923691349478  0.19443831964302663  0.5856050290450483  1.0000
  C   C15       1.0  0.48813692757118343  0.24071053494076014  0.6334302597293444  1.0000
  C   C16       1.0  0.613223959676418  0.18959545135856357  0.7288341539880037  1.0000
  C   C17       1.0  0.6253076162338828  0.08743491967938159  0.7784511487285429  1.0000
  C   C18       1.0  0.5112524741379191  0.03672688916301331  0.7316857604080339  1.0000
  C   C19       1.0  0.3435561403563554  0.777988673491315  0.09207414143360632  1.0000
  C   C20       1.0  0.3455563462910193  0.7255331228675955  0.19496381202656474  1.0000
  C   C21       1.0  0.47266133333937443  0.6296681477990447  0.24340893320966467  1.0000
  C   C22       1.0  0.5891611948702221  0.5831865171242896  0.19269059047095996  1.0000
  C   C23       1.0  0.5692883210143763  0.6330137609188498  0.08998063825130495  1.0000
  C   C24       1.0  0.4536513179070383  0.7321519097758796  0.03814797376782051  1.0000
  N   N1        1.0  0.47700185046858223  0.8846875421771402  0.733817491219824  1.0000
  N   N2        1.0  0.42217094354829515  0.7370383829037406  0.883246772073143  1.0000
  N   N3        1.0  0.4939854881891678  0.8829343404067062  0.8838178123914133  1.0000
  N   N4        1.0  0.15217021832495453  0.49447117629294723  0.7729672037078856  1.0000
  N   N5        1.0  0.7145661399497953  0.7691490283687729  0.4866908881502356  1.0000
  N   N6        1.0  0.17419287144790738  0.5897048195182037  0.8706327095992563  1.0000
  N   N7        1.0  0.6818972297767445  0.8688744368180039  0.5806558148394885  1.0000
  N   N8        1.0  0.22211961922270976  0.24558007572901633  0.49033871994929973  1.0000
  N   N9        1.0  0.2744489577655571  0.0530310164898466  0.5801713160678759  1.0000
  N   N10       1.0  0.7288403507449248  0.235388231172621  0.7797735209241452  1.0000
  N   N11       1.0  0.7683810508931828  0.041887241478242715  0.8698693955702765  1.0000
  N   N12       1.0  0.2060538763617004  0.8717567325638387  0.049075917858125574  1.0000
  N   N13       1.0  0.22618126956302126  0.7745002895618784  0.24465587333811806  1.0000
  N   N14       1.0  0.6868516168641321  0.5825875693473038  0.044357978799318735  1.0000
  N   N15       1.0  0.7152349653228997  0.48544307864037245  0.240153817953889  1.0000
  O   O1        1.0  0.2440292978810561  0.39327675601449397  0.5996440603108085  1.0000
  O   O2        1.0  0.2483231457276531  0.5104315324918787  0.3969205217796983  1.0000
  O   O3        1.0  0.2181702610940022  0.5950367463371934  0.5146252170126075  1.0000
  O   O4        1.0  0.7237686391308032  0.3919301961734689  0.5165531385089608  1.0000
  O   O5        1.0  0.6917442877659282  0.512123714309304  0.5990416983970236  1.0000
  O   O6        1.0  0.703020041035444  0.5942132785457942  0.3960226194139197  1.0000
