data_image0
_chemical_formula_structural       Y4H28C24O32
_chemical_formula_sum              "Y4 H28 C24 O32"
_cell_length_a       8.057438481000126
_cell_length_b       9.542064399373386
_cell_length_c       12.277140367524423
_cell_angle_alpha    91.398037465138
_cell_angle_beta     89.99998643784225
_cell_angle_gamma    89.99998531029851

_space_group_name_H-M_alt    "P 1"
_space_group_IT_number       1

loop_
  _space_group_symop_operation_xyz
  'x, y, z'

loop_
  _atom_site_type_symbol
  _atom_site_label
  _atom_site_symmetry_multiplicity
  _atom_site_fract_x
  _atom_site_fract_y
  _atom_site_fract_z
  _atom_site_occupancy
  Y   Y1        1.0  0.4445257088070634  0.6916687295579461  0.41728473578670133  1.0000
  Y   Y2        1.0  0.9445258455289148  0.8083318017754235  0.08271510357327122  1.0000
  Y   Y3        1.0  0.5554741485917347  0.3083310984225277  0.5827156638991013  1.0000
  Y   Y4        1.0  0.05547401187003231  0.19166802809741765  0.9172844816278245  1.0000
  H   H1        1.0  0.8321502212267191  0.430360999649963  0.17988589301755556  1.0000
  H   H2        1.0  0.3321513974730195  0.0696383183150786  0.32011342848989705  1.0000
  H   H3        1.0  0.16784839508301994  0.5696388302230131  0.8201136921836394  1.0000
  H   H4        1.0  0.6678484599257856  0.9303615096653954  0.679886971195906  1.0000
  H   H5        1.0  0.6869266679813465  0.17088758306521606  0.292333676170614  1.0000
  H   H6        1.0  0.18692656497895396  0.32911176526002345  0.20766648307147767  1.0000
  H   H7        1.0  0.31307318941760803  0.8291122468076251  0.7076659090304745  1.0000
  H   H8        1.0  0.8130732924198512  0.6708880627204434  0.7923339166143252  1.0000
  H   H9        1.0  0.8912755881582229  0.8658554273671655  0.49893261361120284  1.0000
  H   H10       1.0  0.39127561845268133  0.6341440655984696  0.0010680274097722982  1.0000
  H   H11       1.0  0.10872426924044021  0.13414439872093445  0.5010686005593145  1.0000
  H   H12       1.0  0.608724238946266  0.36585576427437155  0.9989315577913164  1.0000
  H   H13       1.0  0.642727614312264  0.9632066573299907  0.4230158375112013  1.0000
  H   H14       1.0  0.14272764680119113  0.5367939410291739  0.07698405016569151  1.0000
  H   H15       1.0  0.3572722430863778  0.03679421895207469  0.5769845835234975  1.0000
  H   H16       1.0  0.8572722105977563  0.4632058888436743  0.923015535035397  1.0000
  H   H17       1.0  0.7090005689082163  0.874659084420116  0.32178450266018643  1.0000
  H   H18       1.0  0.20899929710893875  0.6253414992207595  0.17821537440672597  1.0000
  H   H19       1.0  0.2909992884905678  0.12534179375432325  0.6782151038897982  1.0000
  H   H20       1.0  0.7910005602900088  0.37465833065208887  0.8217842107943627  1.0000
  H   H21       1.0  0.4817844814016468  0.7518027413263935  0.18149614146225457  1.0000
  H   H22       1.0  0.9817833104972566  0.7481977798400192  0.31850450641753275  1.0000
  H   H23       1.0  0.5182166170863738  0.2481970866539385  0.818504258223456  1.0000
  H   H24       1.0  0.0182165469015416  0.2518020481404548  0.6814958932682773  1.0000
  H   H25       1.0  0.308162288788708  0.8185130597813808  0.21915395405419963  1.0000
  H   H26       1.0  0.8081623927103863  0.6814864535350932  0.2808458857882314  1.0000
  H   H27       1.0  0.6918375686102466  0.18148677009146036  0.7808456311468959  1.0000
  H   H28       1.0  0.1918374646884189  0.31851337444537353  0.7191545138975713  1.0000
  C   C1        1.0  0.15741830253405453  0.8563492474227629  0.46049883762136556  1.0000
  C   C2        1.0  0.6574185046576844  0.6436503012645287  0.039500211869977916  1.0000
  C   C3        1.0  0.8425815548647507  0.14365058055770416  0.5395015620644373  1.0000
  C   C4        1.0  0.3425813527414051  0.35634953050068663  0.9604985588464036  1.0000
  C   C5        1.0  0.6988609318111473  0.44841217133716077  0.3370818263618532  1.0000
  C   C6        1.0  0.19886092893369778  0.051588224531577985  0.16291753783377774  1.0000
  C   C7        1.0  0.3011389255876367  0.551588706837279  0.6629177801881313  1.0000
  C   C8        1.0  0.8011389284652566  0.9484116053412633  0.837082047367318  1.0000
  C   C9        1.0  0.7707460891011806  0.36990150549672757  0.24262158135947948  1.0000
  C   C10       1.0  0.2707460284978326  0.13009887440717446  0.257377771327569  1.0000
  C   C11       1.0  0.2292537682977667  0.6300983243761137  0.7573780038416162  1.0000
  C   C12       1.0  0.7292538289009514  0.8699020037672582  0.7426218352224155  1.0000
  C   C13       1.0  0.7489798898013902  0.23095888006838547  0.2297301800567482  1.0000
  C   C14       1.0  0.2489797824892293  0.26904045447557207  0.270269969250819  1.0000
  C   C15       1.0  0.2510199675975571  0.769040949804463  0.7702694051443403  1.0000
  C   C16       1.0  0.7510200749095759  0.7309593735048947  0.7297304304349836  1.0000
  C   C17       1.0  0.0029039194079202996  0.9302676202284059  0.49246575420183814  1.0000
  C   C18       1.0  0.5029041554051688  0.5697319589899549  0.007534948996195101  1.0000
  C   C19       1.0  0.9970959379907356  0.0697322058596939  0.507535459968679  1.0000
  C   C20       1.0  0.49709570199377845  0.4302678708828863  0.9924646362049006  1.0000
  C   C21       1.0  0.8154675507273695  0.1495814412751101  0.13416651967770582  1.0000
  C   C22       1.0  0.31546738442443  0.35041892680433046  0.36583364033430155  1.0000
  C   C23       1.0  0.1845323066714357  0.8504183867053638  0.8658338800081042  1.0000
  C   C24       1.0  0.684532472974361  0.6495819513701091  0.6341659662156831  1.0000
  O   O1        1.0  0.3012903168500216  0.902595324610807  0.4874956077849364  1.0000
  O   O2        1.0  0.8012893015922274  0.5974062944046492  0.012501017916697802  1.0000
  O   O3        1.0  0.6987095405487765  0.09740450336965979  0.5125047919008665  1.0000
  O   O4        1.0  0.19870931471761824  0.4025956377486322  0.9874961665281392  1.0000
  O   O5        1.0  0.385901644829609  0.7383204177761582  0.23226367798824304  1.0000
  O   O6        1.0  0.8859017291786416  0.7616790763829611  0.2677369638930784  1.0000
  O   O7        1.0  0.6140982125691965  0.26167941020430857  0.7677367216975599  1.0000
  O   O8        1.0  0.114099369309379  0.23832075159737792  0.7322634357926249  1.0000
  O   O9        1.0  0.6649059548629879  0.5787603445482005  0.3224815377893223  1.0000
  O   O10       1.0  0.16490583479768617  0.9212402488854321  0.17751834633690325  1.0000
  O   O11       1.0  0.3350939025359594  0.4212394853246406  0.6775180474117661  1.0000
  O   O12       1.0  0.8350940226009486  0.0787606273966333  0.8224820746977956  1.0000
  O   O13       1.0  0.14441667938194772  0.7429889735085238  0.403178960234925  1.0000
  O   O14       1.0  0.6444180676645176  0.7570095278721779  0.096820884473658  1.0000
  O   O15       1.0  0.8555831780170068  0.25701085636431736  0.5968206249661635  1.0000
  O   O16       1.0  0.3555830308236665  0.24298925180656272  0.9031794938631496  1.0000
  O   O17       1.0  0.6082390069654978  0.8938168987188531  0.365451913027087  1.0000
  O   O18       1.0  0.10823775666276698  0.606182658998371  0.13454795882253734  1.0000
  O   O19       1.0  0.39176209152267216  0.10618293115385309  0.6345476721739091  1.0000
  O   O20       1.0  0.8917621007361803  0.39381717087447743  0.8654516263785583  1.0000
  O   O21       1.0  0.8536496658054703  0.2156240162117483  0.0486083735722502  1.0000
  O   O22       1.0  0.3536494887508113  0.28437634528026473  0.451390965842208  1.0000
  O   O23       1.0  0.14635019159347706  0.7843758136610929  0.9513912116288453  1.0000
  O   O24       1.0  0.6463503686479797  0.7156245328941749  0.5486086407077764  1.0000
  O   O25       1.0  0.8332784395357608  0.018777985550563894  0.14709102300412982  1.0000
  O   O26       1.0  0.33327823826762437  0.4812223804656595  0.3529083196716984  1.0000
  O   O27       1.0  0.16672141786319372  0.9812218443222774  0.8529085621969588  1.0000
  O   O28       1.0  0.6667216191311596  0.5187784977087728  0.6470912868782862  1.0000
  O   O29       1.0  0.6667924211779591  0.387191296501399  0.4243012370996695  1.0000
  O   O30       1.0  0.16679243110961292  0.1128080562954068  0.07569892536584183  1.0000
  O   O31       1.0  0.3332074362208459  0.6128085314790752  0.5756991625861332  1.0000
  O   O32       1.0  0.8332074262893343  0.8871917735774344  0.9243006598352469  1.0000
