data_image0
_chemical_formula_structural       CuH22C12N6Cl2O8
_chemical_formula_sum              "Cu1 H22 C12 N6 Cl2 O8"
_cell_length_a       7.580073199269858
_cell_length_b       8.153052617711745
_cell_length_c       9.241674863926402
_cell_angle_alpha    64.64667631289969
_cell_angle_beta     74.72490403392077
_cell_angle_gamma    67.021948370624

_space_group_name_H-M_alt    "P 1"
_space_group_IT_number       1

loop_
  _space_group_symop_operation_xyz
  'x, y, z'

loop_
  _atom_site_type_symbol
  _atom_site_label
  _atom_site_symmetry_multiplicity
  _atom_site_fract_x
  _atom_site_fract_y
  _atom_site_fract_z
  _atom_site_occupancy
  Cu  Cu1       1.0  0.500000178448822  0.5000016691333257  0.999998672160885  1.0000
  H   H1        1.0  0.38341467248012134  0.9478271931076636  0.947956767608112  1.0000
  H   H2        1.0  0.616580870751463  0.0521712447345166  0.052045446688438766  1.0000
  H   H3        1.0  0.164963896536257  0.8956232128431623  0.012197741971412792  1.0000
  H   H4        1.0  0.835035118640526  0.10436811480890637  0.9878020019838872  1.0000
  H   H5        1.0  0.0754301705630809  0.098862695421424  0.7221124853545433  1.0000
  H   H6        1.0  0.9245717594523841  0.9011370992503557  0.27788455125193656  1.0000
  H   H7        1.0  0.07312927302516671  0.22158181888897133  0.8399810471812615  1.0000
  H   H8        1.0  0.9268666479437045  0.7784152421068457  0.16001834629292944  1.0000
  H   H9        1.0  0.4049286409684426  0.12397214685359613  0.5844490152070848  1.0000
  H   H10       1.0  0.5950764430090343  0.8760175186819127  0.41555756283731443  1.0000
  H   H11       1.0  0.21875418083441636  0.34565676684415786  0.5554333207828392  1.0000
  H   H12       1.0  0.781253704692638  0.6543414748692128  0.44456404164729707  1.0000
  H   H13       1.0  0.6817714134409556  0.23729003415993333  0.542336464903876  1.0000
  H   H14       1.0  0.31822432504914383  0.7627255684127903  0.45765393391629056  1.0000
  H   H15       1.0  0.7835531696496006  0.4004070299457894  0.7042121622242875  1.0000
  H   H16       1.0  0.2164393297995274  0.5996057690879724  0.2957810820756919  1.0000
  H   H17       1.0  0.22336635530110974  0.3657000368695123  0.8966314798760922  1.0000
  H   H18       1.0  0.7766400695849357  0.6342852980036042  0.10337856752118313  1.0000
  H   H19       1.0  0.46106796555525875  0.7974476844035223  0.7564907884079375  1.0000
  H   H20       1.0  0.5389322804678329  0.20256212260442646  0.24350183226574987  1.0000
  H   H21       1.0  0.2492165892463731  0.7557301220778141  0.8116181136559535  1.0000
  H   H22       1.0  0.750789864074072  0.24426820004962474  0.1883762926908616  1.0000
  C   C1        1.0  0.26905161447686493  0.933543147050763  0.9064887095124445  1.0000
  C   C2        1.0  0.730944832171893  0.06645673276793218  0.09351060400253901  1.0000
  C   C3        1.0  0.168874721849825  0.1224681170222794  0.7792894927837679  1.0000
  C   C4        1.0  0.8311212935266427  0.8775288530084069  0.22071532424495627  1.0000
  C   C5        1.0  0.3034111957995975  0.2191638957989143  0.6459649648143113  1.0000
  C   C6        1.0  0.6965912094702985  0.7808300898479248  0.3540406113484309  1.0000
  C   C7        1.0  0.6024164032541178  0.28978905713638164  0.637928990847776  1.0000
  C   C8        1.0  0.3975820548161479  0.7102178477255165  0.36207051609995483  1.0000
  C   C9        1.0  0.6520176756397973  0.3698224077031753  0.7186928833839518  1.0000
  C   C10       1.0  0.34797658021822286  0.630184647435776  0.28130317886835593  1.0000
  C   C11       1.0  0.3615864040994764  0.3536159671627531  0.8228323314178071  1.0000
  C   C12       1.0  0.6384186987595227  0.6463736801797282  0.17717533133749447  1.0000
  N   N1        1.0  0.3547648741727089  0.7713725310954941  0.8504027951701615  1.0000
  N   N2        1.0  0.6452389193216632  0.2286300929502403  0.14959169400589897  1.0000
  N   N3        1.0  0.4195486415801995  0.2801746843313282  0.7050322689878284  1.0000
  N   N4        1.0  0.5804524794256807  0.7198235773988202  0.294973091954752  1.0000
  N   N5        1.0  0.5006917351347441  0.40826787760821753  0.8340236710428641  1.0000
  N   N6        1.0  0.4993097636084229  0.5917290072755536  0.16597886907734954  1.0000
  Cl  Cl1       1.0  0.8849747861249567  0.7275428738351338  0.735160151930515  1.0000
  Cl  Cl2       1.0  0.11502443052943076  0.2724569361205695  0.26483965019657774  1.0000
  O   O1        1.0  0.8454008755846728  0.5536235029125365  0.8580651567401105  1.0000
  O   O2        1.0  0.15460663531463578  0.44637177443375015  0.14194096333648784  1.0000
  O   O3        1.0  0.7070059836476472  0.8633687491442361  0.6645321066960079  1.0000
  O   O4        1.0  0.2929908785014348  0.13662971744203392  0.33546655541842096  1.0000
  O   O5        1.0  0.031511489495237376  0.6777859937821018  0.6094379485918965  1.0000
  O   O6        1.0  0.9684954926146361  0.32221080595476076  0.3905623146198066  1.0000
  O   O7        1.0  0.9517913487393272  0.8141848607658134  0.8109670199718907  1.0000
  O   O8        1.0  0.04820435509728329  0.1858264369795037  0.1890271462505524  1.0000
