data_image0
_chemical_formula_structural       Zn2H42C38N10O8
_chemical_formula_sum              "Zn2 H42 C38 N10 O8"
_cell_length_a       9.137821224168704
_cell_length_b       9.549597276101142
_cell_length_c       11.101696249396555
_cell_angle_alpha    90.00017970816062
_cell_angle_beta     89.23046326850046
_cell_angle_gamma    90.00050728052005

_space_group_name_H-M_alt    "P 1"
_space_group_IT_number       1

loop_
  _space_group_symop_operation_xyz
  'x, y, z'

loop_
  _atom_site_type_symbol
  _atom_site_label
  _atom_site_symmetry_multiplicity
  _atom_site_fract_x
  _atom_site_fract_y
  _atom_site_fract_z
  _atom_site_occupancy
  Zn  Zn1       1.0  0.25000031628857766  0.8471827467939904  0.7500024501979398  1.0000
  Zn  Zn2       1.0  0.7499987194473193  0.1528195624069113  0.2499963630239534  1.0000
  H   H1        1.0  0.9477366881198105  0.742322393200574  0.6047873320010098  1.0000
  H   H2        1.0  0.5522705121101268  0.742318119117769  0.8952115877681877  1.0000
  H   H3        1.0  0.0522668861983604  0.25767886885023467  0.39520891484029624  1.0000
  H   H4        1.0  0.4477217989440875  0.2576831428945924  0.10478972469316261  1.0000
  H   H5        1.0  0.6897635231464888  0.80429540520759  0.4884607470393405  1.0000
  H   H6        1.0  0.8102372225643107  0.8042876700874473  0.011540701900102602  1.0000
  H   H7        1.0  0.3102333265138526  0.19571004547756127  0.5115379990478033  1.0000
  H   H8        1.0  0.18975831212222263  0.19570626178860107  0.9884616114789821  1.0000
  H   H9        1.0  0.6286638458444997  0.9802303392608351  0.5028524346998964  1.0000
  H   H10       1.0  0.8713430588967485  0.9802187196126367  0.9971514990321068  1.0000
  H   H11       1.0  0.3713372650573987  0.019775111446293205  0.49714824610202873  1.0000
  H   H12       1.0  0.1286535133608595  0.019774165105083303  0.002851748133807101  1.0000
  H   H13       1.0  0.5994446455165701  0.8586525422754933  0.6219466835725457  1.0000
  H   H14       1.0  0.9005587988311844  0.8586417601210672  0.8780595872733912  1.0000
  H   H15       1.0  0.40055318625528713  0.14135395558198383  0.3780538965228004  1.0000
  H   H16       1.0  0.0994366803910296  0.1413532189210684  0.1219436263257876  1.0000
  H   H17       1.0  0.8114756285100881  0.16579805641087833  0.6229867101864315  1.0000
  H   H18       1.0  0.6885346741160916  0.16579487897445228  0.8770173741118299  1.0000
  H   H19       1.0  0.1885174427697223  0.834202158450651  0.3770200371558303  1.0000
  H   H20       1.0  0.31146495542380137  0.8342032415863941  0.1229895746435901  1.0000
  H   H21       1.0  0.0345978570617049  0.3461668278053267  0.6715015138436655  1.0000
  H   H22       1.0  0.4654234608586521  0.3461605983507924  0.8285011367307362  1.0000
  H   H23       1.0  0.9653987707031674  0.6538344342275196  0.3285008331136439  1.0000
  H   H24       1.0  0.5345767233912895  0.6538417108533566  0.1714968098416207  1.0000
  H   H25       1.0  0.25001491382319335  0.47688545601126014  0.7500043027850437  1.0000
  H   H26       1.0  0.7499851040146835  0.5231158060328128  0.2499963444424864  1.0000
  H   H27       1.0  0.0816303763501551  0.7031883181798407  0.10358710942535511  1.0000
  H   H28       1.0  0.4183695761691411  0.7031987027559481  0.3964200529968949  1.0000
  H   H29       1.0  0.9183709563470186  0.2967993307234664  0.8964099704795956  1.0000
  H   H30       1.0  0.5816368890288003  0.29680884230706545  0.6035825960916412  1.0000
  H   H31       1.0  0.23397065837113468  0.5943142923794086  0.1399573715866396  1.0000
  H   H32       1.0  0.26603782290033706  0.5943159017727241  0.3600371908824087  1.0000
  H   H33       1.0  0.766030896226276  0.40567859234078446  0.8600361074494316  1.0000
  H   H34       1.0  0.7339769592174576  0.40568640748260515  0.6399548905589398  1.0000
  H   H35       1.0  0.1355757513054812  0.4059224262955823  0.008283281438146203  1.0000
  H   H36       1.0  0.36443412595350816  0.4059274811168693  0.491713623102676  1.0000
  H   H37       1.0  0.8644336210137806  0.5940704584533238  0.9917077319264748  1.0000
  H   H38       1.0  0.6355732658963903  0.5940832054491239  0.5082917602154282  1.0000
  H   H39       1.0  0.0179305547273643  0.44719405455689554  0.1297353052726962  1.0000
  H   H40       1.0  0.48207510459714337  0.4472048836795536  0.3702651664929419  1.0000
  H   H41       1.0  0.982076576009071  0.5527935943611267  0.8702565411657872  1.0000
  H   H42       1.0  0.5179320653477505  0.5527995199049728  0.6297438176927699  1.0000
  C   C1        1.0  0.677217465199661  0.8920803266790289  0.5513724425852473  1.0000
  C   C2        1.0  0.8227918044712579  0.8920722925421318  0.9486331773881248  1.0000
  C   C3        1.0  0.3227815705410109  0.10792302968645368  0.4486263706379177  1.0000
  C   C4        1.0  0.1772058608455964  0.10792373367406334  0.051370103350905104  1.0000
  C   C5        1.0  0.8203258047182089  0.9358619388562346  0.6008727301324868  1.0000
  C   C6        1.0  0.6796828263384568  0.935852488029859  0.8991320627900093  1.0000
  C   C7        1.0  0.17967087853007513  0.06414246466884069  0.3991287166098374  1.0000
  C   C8        1.0  0.3203136904739097  0.0641456325122505  0.10087208460110018  1.0000
  C   C9        1.0  0.871270067755681  0.0687303604669509  0.6311346480117734  1.0000
  C   C10       1.0  0.6287394612445779  0.0687234980037346  0.8688673991946699  1.0000
  C   C11       1.0  0.12872541150470337  0.9312729958918027  0.3688685655976228  1.0000
  C   C12       1.0  0.3712580931484055  0.9312756697091945  0.1311376819858197  1.0000
  C   C13       1.0  0.014425011502488894  0.0489311733427371  0.6730570871568561  1.0000
  C   C14       1.0  0.48558387134708164  0.0489272049062137  0.8269427362027244  1.0000
  C   C15       1.0  0.9855725983643566  0.951069041533273  0.3269470938060977  1.0000
  C   C16       1.0  0.5144139603961478  0.9510730099637926  0.1730578438849619  1.0000
  C   C17       1.0  0.1306412396694299  0.14336923680771463  0.7121900897478427  1.0000
  C   C18       1.0  0.36937282048419456  0.14336726353420204  0.7878109983488102  1.0000
  C   C19       1.0  0.8693574077875754  0.8566341195682695  0.2878150250070419  1.0000
  C   C20       1.0  0.630623751821119  0.856636092829291  0.21219224882986512  1.0000
  C   C21       1.0  0.12789177288347992  0.2900717387868426  0.7081607987677785  1.0000
  C   C22       1.0  0.3721300159767864  0.2900677103284082  0.7918435490571838  1.0000
  C   C23       1.0  0.8721081340209763  0.7099305704248167  0.2918416488986679  1.0000
  C   C24       1.0  0.6278701128040539  0.7099345988772471  0.2081552977339882  1.0000
  C   C25       1.0  0.2500145045721283  0.362717290742914  0.7500023631772166  1.0000
  C   C26       1.0  0.7499876438960699  0.6372860656413053  0.2499992514102587  1.0000
  C   C27       1.0  0.23616093659827445  0.6714112791066924  0.9580980732331384  1.0000
  C   C28       1.0  0.26382432836096104  0.6714032638234714  0.5418987604733303  1.0000
  C   C29       1.0  0.76383689514973  0.3285899829278875  0.04190250685581991  1.0000
  C   C30       1.0  0.7361629612070287  0.32859485665942867  0.4580951823872256  1.0000
  C   C31       1.0  0.1538980396798166  0.6192164352886493  0.0700073801335321  1.0000
  C   C32       1.0  0.34610596351751616  0.6192169061763408  0.42999251008097167  1.0000
  C   C33       1.0  0.8461066831237576  0.38077854377793596  0.9299880000505851  1.0000
  C   C34       1.0  0.6539053730486302  0.3807833087400995  0.5700021713064274  1.0000
  C   C35       1.0  0.0623458373997678  0.48784919685540734  0.0440431659584775  1.0000
  C   C36       1.0  0.4376571351292711  0.48785683500844373  0.4559537033368173  1.0000
  C   C37       1.0  0.9376591072563372  0.5121405463822838  0.9559486133439847  1.0000
  C   C38       1.0  0.5623450688271133  0.5121507100325857  0.5440470110369446  1.0000
  N   N1        1.0  0.931231752824097  0.8455110101169795  0.6270189132832229  1.0000
  N   N2        1.0  0.5687751837292226  0.8455026028743546  0.87298202492169  1.0000
  N   N3        1.0  0.06876837597582859  0.15449548774698482  0.3729799335130579  1.0000
  N   N4        1.0  0.4312215549499853  0.1544934233325961  0.1270185215916015  1.0000
  N   N5        1.0  0.04853211319836251  0.9117498975343563  0.6699972494239219  1.0000
  N   N6        1.0  0.45147381272431614  0.9117435544881973  0.8300025413422674  1.0000
  N   N7        1.0  0.9514677937108614  0.0882534588418764  0.3300051982437964  1.0000
  N   N8        1.0  0.5485229259739768  0.0882566603770627  0.1699980051761258  1.0000
  N   N9        1.0  0.25000554134776826  0.0747868240532199  0.7500017772069896  1.0000
  N   N10       1.0  0.7499932170426505  0.9252154851551851  0.2500015371089859  1.0000
  O   O1        1.0  0.16015314196893368  0.75569919653622  0.8916398597828632  1.0000
  O   O2        1.0  0.33983337395422814  0.7556889473230514  0.6083671153899246  1.0000
  O   O3        1.0  0.8398504877610761  0.24428949953814785  0.1083554868243084  1.0000
  O   O4        1.0  0.6601570838485458  0.24431755049370452  0.39162872862633685  1.0000
  O   O5        1.0  0.36416640852566223  0.6306111109348862  0.9359168405062802  1.0000
  O   O6        1.0  0.13582248489635163  0.6306094152480314  0.564068291600897  1.0000
  O   O7        1.0  0.6358412051767672  0.3693943398022128  0.0640849419301759  1.0000
  O   O8        1.0  0.8641793470560869  0.3693855637938128  0.4359206863436428  1.0000
