data_image0
_chemical_formula_structural       Hg4H28C28I8N8
_chemical_formula_sum              "Hg4 H28 C28 I8 N8"
_cell_length_a       4.353692683724178
_cell_length_b       12.520776507113723
_cell_length_c       20.026297413005913
_cell_angle_alpha    89.99991851721768
_cell_angle_beta     89.99996939673885
_cell_angle_gamma    95.66090099363191

_space_group_name_H-M_alt    "P 1"
_space_group_IT_number       1

loop_
  _space_group_symop_operation_xyz
  'x, y, z'

loop_
  _atom_site_type_symbol
  _atom_site_label
  _atom_site_symmetry_multiplicity
  _atom_site_fract_x
  _atom_site_fract_y
  _atom_site_fract_z
  _atom_site_occupancy
  Hg  Hg1       1.0  0.5959211874170691  0.5204910727706249  0.6889508440416066  1.0000
  Hg  Hg2       1.0  0.40407897416348254  0.9795067447324187  0.1889515702912519  1.0000
  Hg  Hg3       1.0  0.4041033407104138  0.4794990315820442  0.31105325901692277  1.0000
  Hg  Hg4       1.0  0.5958996671833177  0.0204907783528583  0.811051534079091  1.0000
  H   H1        1.0  0.05403110259384662  0.8396510522411804  0.4292756580577403  1.0000
  H   H2        1.0  0.9459694750045528  0.660357468769874  0.9292697728743774  1.0000
  H   H3        1.0  0.9459569743197205  0.16034000393088385  0.5707289443454968  1.0000
  H   H4        1.0  0.05403515012343262  0.3396640556609185  0.0707178518371165  1.0000
  H   H5        1.0  0.7107586292494759  0.9829574104634274  0.6072845003684151  1.0000
  H   H6        1.0  0.2892306054072193  0.5170414401716101  0.10727618720690658  1.0000
  H   H7        1.0  0.2892284253910802  0.0170376676999595  0.39272110071982513  1.0000
  H   H8        1.0  0.7107722439743328  0.48296723441206524  0.8927099394804613  1.0000
  H   H9        1.0  0.03601567906351738  0.731886148728222  0.6897671972409538  1.0000
  H   H10       1.0  0.9639781108720629  0.7681060678712796  0.1897670714174993  1.0000
  H   H11       1.0  0.9639917632919436  0.26811527505167015  0.31023740515645665  1.0000
  H   H12       1.0  0.035999517834483206  0.23188101297024838  0.8102290421498423  1.0000
  H   H13       1.0  0.8234563856334489  0.8451926683503075  0.6912741247160951  1.0000
  H   H14       1.0  0.17653459613690364  0.654797949121182  0.19127368153112198  1.0000
  H   H15       1.0  0.1765418803300278  0.1548087927531654  0.3087289796514554  1.0000
  H   H16       1.0  0.8234336018095333  0.34518836650984513  0.8087224320370225  1.0000
  H   H17       1.0  0.15748698868043226  0.8471925855970214  0.6406337410238976  1.0000
  H   H18       1.0  0.8425097780714738  0.652801337400483  0.140633236410693  1.0000
  H   H19       1.0  0.8425082200879359  0.1528064772397357  0.35936936334493197  1.0000
  H   H20       1.0  0.1574854355221191  0.34719049332436214  0.8593608797798494  1.0000
  H   H21       1.0  0.3217772668656522  0.5651933216337072  0.5275640387069132  1.0000
  H   H22       1.0  0.6782372307806597  0.9348048033705825  0.0275712726156456  1.0000
  H   H23       1.0  0.678231202572114  0.43479684803283186  0.47243956500891926  1.0000
  H   H24       1.0  0.3217872829056603  0.06520699733974308  0.9724403205840416  1.0000
  H   H25       1.0  0.490441223555912  0.7474924743629001  0.45088926181005456  1.0000
  H   H26       1.0  0.509564379232927  0.752510352242396  0.9508898224626492  1.0000
  H   H27       1.0  0.5095588325836785  0.2525001402227147  0.5491143419050175  1.0000
  H   H28       1.0  0.49045707246754944  0.24750628233505978  0.0491112845229154  1.0000
  C   C1        1.0  0.8702920570120226  0.8997092106021538  0.5208147287408167  1.0000
  C   C2        1.0  0.12971302899331502  0.6002953965332695  0.0208058527007822  1.0000
  C   C3        1.0  0.12969627426879526  0.10028264810343049  0.47918887497517193  1.0000
  C   C4        1.0  0.8703127565716997  0.3997204168716522  0.9791767785781288  1.0000
  C   C5        1.0  0.028853247550287574  0.9100012417229308  0.4601150761137943  1.0000
  C   C6        1.0  0.971154871051617  0.5900023573166777  0.9601052602972401  1.0000
  C   C7        1.0  0.9711315129933877  0.0899938457720495  0.5398895262876948  1.0000
  C   C8        1.0  0.028870151416065058  0.4100110484904961  0.039877870326272095  1.0000
  C   C9        1.0  0.8406975681368037  0.9895783155433476  0.5606877597362896  1.0000
  C   C10       1.0  0.1593025341133298  0.5104254179156484  0.0606779671547386  1.0000
  C   C11       1.0  0.1592762354511947  0.0104111915450744  0.439318340698641  1.0000
  C   C12       1.0  0.8407403276015657  0.48959354030385777  0.9393061621521568  1.0000
  C   C13       1.0  0.9559512232987403  0.7957752608635642  0.6587079620900198  1.0000
  C   C14       1.0  0.04404905018603967  0.7042153926348291  0.15870748478444338  1.0000
  C   C15       1.0  0.044046533932892394  0.20422459517455846  0.3412956416217412  1.0000
  C   C16       1.0  0.9559359695492162  0.2957732652812055  0.8412876300949393  1.0000
  C   C17       1.0  0.7676197211134408  0.7484269253870508  0.602385550150963  1.0000
  C   C18       1.0  0.2323725928788748  0.751567102416125  0.10238650820775769  1.0000
  C   C19       1.0  0.2323719217288485  0.2515681341182017  0.3976175542199271  1.0000
  C   C20       1.0  0.767627967191217  0.2484343493619292  0.8976121020688339  1.0000
  C   C21       1.0  0.46933595142839124  0.6374429344373027  0.5397170178917392  1.0000
  C   C22       1.0  0.5306555622034705  0.8625552565039666  0.0397203393849281  1.0000
  C   C23       1.0  0.5306776149323582  0.36254882162970864  0.4602895818836715  1.0000
  C   C24       1.0  0.4693291887207138  0.1374542952345195  0.9602847623531545  1.0000
  C   C25       1.0  0.5487459149953934  0.7265433444644812  0.501466766074067  1.0000
  C   C26       1.0  0.45121513809604613  0.7734671105769096  0.0014646865667984  1.0000
  C   C27       1.0  0.45122788378331086  0.2734533947459711  0.4985393343574458  1.0000
  C   C28       1.0  0.5487841357151879  0.2265520249030146  0.9985359210752092  1.0000
  I   I1        1.0  0.3744891170958908  0.6108856028392465  0.7983604523152933  1.0000
  I   I2        1.0  0.6255134598830522  0.8891135639737159  0.29836224165349273  1.0000
  I   I3        1.0  0.6255058373158419  0.38911265747074  0.20163765861964583  1.0000
  I   I4        1.0  0.37448837682022423  0.11088466834203811  0.7016383659982779  1.0000
  I   I5        1.0  0.008794465895356008  0.38899115660103684  0.6386860259617676  1.0000
  I   I6        1.0  0.9912132270194647  0.11100464995026019  0.1386865454116375  1.0000
  I   I7        1.0  0.9912300574360913  0.6110061798821035  0.36131058694191853  1.0000
  I   I8        1.0  0.00878427585109885  0.8889944035582715  0.86131456158337  1.0000
  N   N1        1.0  0.607477208332199  0.6519479014846679  0.6015971400945119  1.0000
  N   N2        1.0  0.3925263245737512  0.8480452789056728  0.10160148712250111  1.0000
  N   N3        1.0  0.39252845346398857  0.3480479045678989  0.3984079616490702  1.0000
  N   N4        1.0  0.6074734723892804  0.15195376526845186  0.8984031152764019  1.0000
  N   N5        1.0  0.7347497732049674  0.7967907696740821  0.5414606372048496  1.0000
  N   N6        1.0  0.2652317899651421  0.7032122791950001  0.041456644419597  1.0000
  N   N7        1.0  0.26523932116965204  0.20320349662699752  0.45854446454024606  1.0000
  N   N8        1.0  0.734767743029721  0.2968004267009121  0.9585389697911565  1.0000
