data_image0
_chemical_formula_structural       Al6H41C84Br9Cl12O28
_chemical_formula_sum              "Al6 H41 C84 Br9 Cl12 O28"
_cell_length_a       13.777045909197302
_cell_length_b       13.710060764209178
_cell_length_c       27.303016083184225
_cell_angle_alpha    89.3911825713176
_cell_angle_beta     89.24884601591758
_cell_angle_gamma    60.70563941284706

_space_group_name_H-M_alt    "P 1"
_space_group_IT_number       1

loop_
  _space_group_symop_operation_xyz
  'x, y, z'

loop_
  _atom_site_type_symbol
  _atom_site_label
  _atom_site_symmetry_multiplicity
  _atom_site_fract_x
  _atom_site_fract_y
  _atom_site_fract_z
  _atom_site_occupancy
  Al  Al1       1.0  0.570334233623008  0.5994047401625764  0.49510175708354615  1.0000
  Al  Al2       1.0  0.6099232623761357  0.8103556142208175  0.4971123880807014  1.0000
  Al  Al3       1.0  0.8105003044796889  0.5794601546403159  0.4977536973915448  1.0000
  Al  Al4       1.0  0.07377156211921938  0.08799491510811923  0.9851779831893168  1.0000
  Al  Al5       1.0  0.0879907197286301  0.8469583514663128  0.985724255777406  1.0000
  Al  Al6       1.0  0.8618978717493135  0.049850693195722294  0.9841940673030722  1.0000
  H   H1        1.0  0.8159824999447453  0.6715203835058288  0.18423956051180568  1.0000
  H   H2        1.0  0.6830563452175299  0.923739004239671  0.7868742572268843  1.0000
  H   H3        1.0  0.9565383914109161  0.3333117715063452  0.7696067278818433  1.0000
  H   H4        1.0  0.36088600716767166  0.6896390656754434  0.7724815530733339  1.0000
  H   H5        1.0  0.7156212770782491  0.9560223110109829  0.8733188908865942  1.0000
  H   H6        1.0  0.9871409492664827  0.2772620941970203  0.8580722429133871  1.0000
  H   H7        1.0  0.3057040036725453  0.7017722322411333  0.8607977431196758  1.0000
  H   H8        1.0  0.036815105760140826  0.7193116727954845  0.764473592097872  1.0000
  H   H9        1.0  0.745685870552137  0.1843613822513817  0.7569805418239143  1.0000
  H   H10       1.0  0.21860117102237817  0.048141245644501396  0.7671790599983268  1.0000
  H   H11       1.0  0.06832093206487141  0.746974314670183  0.8518682820231477  1.0000
  H   H12       1.0  0.6574629690673819  0.49776275947537124  0.173246758535349  1.0000
  H   H13       1.0  0.7728729707849382  0.13336483651133343  0.8455477105942109  1.0000
  H   H14       1.0  0.17085603726688697  0.058324016708816415  0.856104115407085  1.0000
  H   H15       1.0  0.9253930795162691  0.8833006013664148  0.6884118815760658  1.0000
  H   H16       1.0  0.9969714764622779  0.2120087001497737  0.6837078944393084  1.0000
  H   H17       1.0  0.24264683166526882  0.7745451856886305  0.6903297475011955  1.0000
  H   H18       1.0  0.8502905843422255  0.6355774152302587  0.2683167545839851  1.0000
  H   H19       1.0  0.6341599369779374  0.5119875696454841  0.2586449424439792  1.0000
  H   H20       1.0  0.5160799212015095  0.8611389771947555  0.25608886744319653  1.0000
  H   H21       1.0  0.9911499156175411  0.8058304519364938  0.2845285575969427  1.0000
  H   H22       1.0  0.8351073304625205  0.21507179596007117  0.28709449349074134  1.0000
  H   H23       1.0  0.5107656564878553  0.8122222906650478  0.17453165298863382  1.0000
  H   H24       1.0  0.2135410001532777  0.9819878178294061  0.28257176356174807  1.0000
  H   H25       1.0  0.015414030027216176  0.6672133867033806  0.2903427571260623  1.0000
  H   H26       1.0  0.6932589385311018  0.3161262294990336  0.2945505393205821  1.0000
  H   H27       1.0  0.320374436255527  0.01815518868667  0.2815472717474847  1.0000
  H   H28       1.0  0.0304001621564396  0.7635303294344666  0.2017654677071903  1.0000
  H   H29       1.0  0.7834083362048574  0.19306453411962113  0.20890545201900323  1.0000
  H   H30       1.0  0.20607534815334116  0.013327095859899904  0.19835048354461554  1.0000
  H   H31       1.0  0.6809220044617349  0.9373217392044209  0.2719596293671671  1.0000
  H   H32       1.0  0.9284901847294054  0.42034674009135387  0.24808126826583532  1.0000
  H   H33       1.0  0.40615752446226583  0.6719102405272253  0.27324606030315124  1.0000
  H   H34       1.0  0.7120426673997431  0.7459866222658603  0.27649044306679127  1.0000
  H   H35       1.0  0.7315955859096235  0.5612965770017482  0.256218069070755  1.0000
  H   H36       1.0  0.5548217319527566  0.7198041896548375  0.26965969486131064  1.0000
  H   H37       1.0  0.6994782905635335  0.80569211063726  0.19407181331301626  1.0000
  H   H38       1.0  0.7848939073192015  0.4999352611490623  0.17456134899077824  1.0000
  H   H39       1.0  0.5026806793568639  0.6910933241993718  0.191052744532449  1.0000
  H   H40       1.0  0.43056666651394704  0.5623699896601124  0.469113817798359  1.0000
  H   H41       1.0  0.16900252875277033  0.17809302927279447  0.014008454096014603  1.0000
  C   C1        1.0  0.7545760800234548  0.4820280618963295  0.4217782744288102  1.0000
  C   C2        1.0  0.8727456967684262  0.8137816933290267  0.1395389685809079  1.0000
  C   C3        1.0  0.8060328346760031  0.3018507230674388  0.1345361217751915  1.0000
  C   C4        1.0  0.3141791961514997  0.850749149392314  0.1381513989767527  1.0000
  C   C5        1.0  0.8299817553116854  0.7818742789515055  0.340212193666531  1.0000
  C   C6        1.0  0.7952565247054083  0.4166071089821699  0.3291191551223278  1.0000
  C   C7        1.0  0.4054975510150528  0.8347335030429902  0.3354732117055619  1.0000
  C   C8        1.0  0.8222102106788681  0.7679754291087805  0.38380308314432204  1.0000
  C   C9        1.0  0.7814396922071795  0.44199738981883024  0.37214980903298317  1.0000
  C   C10       1.0  0.4297485316044956  0.8282730359733961  0.3784048933224327  1.0000
  C   C11       1.0  0.20845552174396442  0.896926486430523  0.0537250871700508  1.0000
  C   C12       1.0  0.473141429381549  0.8025727441612531  0.42726814840039407  1.0000
  C   C13       1.0  0.9199499023330375  0.866295794261319  0.05243906488250621  1.0000
  C   C14       1.0  0.8618947366875676  0.2009863564299366  0.048799128270935896  1.0000
  C   C15       1.0  0.8050043195793041  0.7660100506927773  0.6194021206301271  1.0000
  C   C16       1.0  0.7850651713763812  0.3872396684827634  0.6080532760122282  1.0000
  C   C17       1.0  0.4058514619788838  0.8323886502091041  0.6129921285403768  1.0000
  C   C18       1.0  0.7645103742400606  0.7263354075935597  0.6577476677282093  1.0000
  C   C19       1.0  0.6954442952993388  0.41418736492823177  0.6414550494975588  1.0000
  C   C20       1.0  0.43088238351276686  0.8956317087384705  0.646292496232391  1.0000
  C   C21       1.0  0.7814871242042117  0.7426072625172254  0.7069190726562341  1.0000
  C   C22       1.0  0.71608087254382  0.3746469474418318  0.6901668877330778  1.0000
  C   C23       1.0  0.7965781750813934  0.7470875147816753  0.4325996459460626  1.0000
  C   C24       1.0  0.39670504096432796  0.9059506727583083  0.6957230984526178  1.0000
  C   C25       1.0  0.839356725887932  0.8002009277279852  0.7183573623646141  1.0000
  C   C26       1.0  0.8250086903956274  0.3028775887914463  0.7062188380913741  1.0000
  C   C27       1.0  0.3302717224074741  0.860362980627194  0.7124386953252967  1.0000
  C   C28       1.0  0.7641170063020865  0.4490097113488504  0.5601701740559478  1.0000
  C   C29       1.0  0.4662699663930283  0.7943082761879907  0.5647763468058288  1.0000
  C   C30       1.0  0.7799954538886525  0.7480278429936646  0.5677367280358112  1.0000
  C   C31       1.0  0.8806391299404553  0.8385472597074751  0.6799636645494971  1.0000
  C   C32       1.0  0.9124558368359603  0.27069319191716806  0.6723810347652731  1.0000
  C   C33       1.0  0.29788641744476496  0.8062142921116902  0.6785195659877914  1.0000
  C   C34       1.0  0.797780803248024  0.9240726356434407  0.21517962884547612  1.0000
  C   C35       1.0  0.8632948612141148  0.8218224855894435  0.6312420514992639  1.0000
  C   C36       1.0  0.8931879357875018  0.311851274247644  0.6246042898281557  1.0000
  C   C37       1.0  0.33478847845496057  0.7920341067469964  0.6301120940519525  1.0000
  C   C38       1.0  0.7675038765048114  0.8855610804960677  0.8010587202428638  1.0000
  C   C39       1.0  0.9176918551652166  0.28798029244243395  0.7861434770164379  1.0000
  C   C40       1.0  0.31750020406487056  0.7706106770844913  0.7906689560893199  1.0000
  C   C41       1.0  0.7853218204138342  0.9029711246269086  0.8494147963283183  1.0000
  C   C42       1.0  0.9339834740165643  0.2581290034624715  0.8354790797796596  1.0000
  C   C43       1.0  0.2880023420150907  0.7769441146220258  0.8400318316625289  1.0000
  C   C44       1.0  0.9843376019349396  0.7851577700668102  0.83726202320441  1.0000
  C   C45       1.0  0.9241512339877932  0.29302403591565707  0.203862745934849  1.0000
  C   C46       1.0  0.8125327918534995  0.17729903771288488  0.8285553934131045  1.0000
  C   C47       1.0  0.21220619377935887  0.9783393069175474  0.8371822981436594  1.0000
  C   C48       1.0  0.9663915013369222  0.7705588251748167  0.7884613324085805  1.0000
  C   C49       1.0  0.7977157473595042  0.20577736388081994  0.7791747209670137  1.0000
  C   C50       1.0  0.2394368388667232  0.9720287065906207  0.7877998254867578  1.0000
  C   C51       1.0  0.8579142249545555  0.8193098213134179  0.770022712187199  1.0000
  C   C52       1.0  0.8479754857229836  0.26373700480602474  0.757717346796291  1.0000
  C   C53       1.0  0.2947774278214368  0.8679486107169653  0.7642732008308571  1.0000
  C   C54       1.0  0.893863217286935  0.8516468877605374  0.868016925740662  1.0000
  C   C55       1.0  0.8795984521044604  0.20464824404736956  0.8571128004776514  1.0000
  C   C56       1.0  0.2909334284112929  0.7803280688503521  0.21858524203602064  1.0000
  C   C57       1.0  0.23727470574216616  0.880668846565797  0.863662598753443  1.0000
  C   C58       1.0  0.20245332948244515  0.8931167312248788  0.9159202532661725  1.0000
  C   C59       1.0  0.9149010703177539  0.8747158263788958  0.9185920852699783  1.0000
  C   C60       1.0  0.8978261883761081  0.17158150665834168  0.9096260220830107  1.0000
  C   C61       1.0  0.793761168785636  0.7245260758185099  0.2608245656435955  1.0000
  C   C62       1.0  0.7191260012637172  0.49037904937903676  0.2473711577652367  1.0000
  C   C63       1.0  0.4898093667124572  0.7976151963393858  0.2533378187898734  1.0000
  C   C64       1.0  0.9628932462462316  0.7477147088805296  0.27233861621591876  1.0000
  C   C65       1.0  0.76821190787404  0.2944675347758547  0.27265705705591614  1.0000
  C   C66       1.0  0.29627396528557176  0.9587302261807551  0.26731718729490694  1.0000
  C   C67       1.0  0.7687212641706724  0.9155578495220806  0.27004454456532306  1.0000
  C   C68       1.0  0.9735044533333056  0.7363782492253036  0.21653264558685956  1.0000
  C   C69       1.0  0.7495099038650466  0.2808085320302354  0.21858463128546657  1.0000
  C   C70       1.0  0.2911408794404767  0.9632745856934545  0.21129628699900854  1.0000
  C   C71       1.0  0.8927501887000063  0.8299676660993214  0.09773333159893842  1.0000
  C   C72       1.0  0.8205921393448607  0.2636613545258015  0.0935165602704231  1.0000
  C   C73       1.0  0.2743643128729048  0.8656936843488907  0.0975780542593299  1.0000
  C   C74       1.0  0.8402665369019858  0.7924299713508843  0.2877816185248747  1.0000
  C   C75       1.0  0.8010897883523853  0.3866883813963965  0.27798457135146754  1.0000
  C   C76       1.0  0.38061651978563293  0.8390796693981812  0.2839641033623792  1.0000
  C   C77       1.0  0.7854522010464322  0.7488340561871137  0.20525389300199492  1.0000
  C   C78       1.0  0.9183848512886854  0.3467766734661239  0.2546950684446259  1.0000
  C   C79       1.0  0.7372172848289865  0.46418932738546187  0.19217874459180712  1.0000
  C   C80       1.0  0.4701243341427954  0.7798773902334944  0.1994924471184945  1.0000
  C   C81       1.0  0.8571857133685371  0.8036643553887544  0.19172976555882576  1.0000
  C   C82       1.0  0.801683033810271  0.33598813388231713  0.18495084763719657  1.0000
  C   C83       1.0  0.3438323341660734  0.8429197097956518  0.189353729798114  1.0000
  C   C84       1.0  0.3359640279596763  0.75732814105951  0.2718800132176399  1.0000
  Br  Br1       1.0  0.9195972278326324  0.8765230314190544  0.5804926479200817  1.0000
  Br  Br2       1.0  0.02096328189853121  0.2533762818935799  0.5829105122848831  1.0000
  Br  Br3       1.0  0.2793478775172035  0.7207802205280557  0.5885353540769388  1.0000
  Br  Br4       1.0  0.044793035623449384  0.57789092157482  0.19630241545651472  1.0000
  Br  Br5       1.0  0.5896144533689879  0.34381878488365203  0.2039412010357964  1.0000
  Br  Br6       1.0  0.36474756153363336  0.044001898301161184  0.18306348391710262  1.0000
  Br  Br7       1.0  0.6568859932945087  0.0224205289642896  0.1809127780323792  1.0000
  Br  Br8       1.0  0.007681231373417957  0.33758594690700516  0.1578460552542182  1.0000
  Br  Br9       1.0  0.3327822590451036  0.6346541046880816  0.1878899990331604  1.0000
  Cl  Cl1       1.0  0.8844032828742671  0.9851436775895337  0.20675502685112696  1.0000
  Cl  Cl2       1.0  0.7789443779223859  0.013323140853472602  0.3087690858234851  1.0000
  Cl  Cl3       1.0  0.029295273673540102  0.25992797905694687  0.2941852102412099  1.0000
  Cl  Cl4       1.0  0.23901964684688448  0.7590797310470592  0.3158247300436302  1.0000
  Cl  Cl5       1.0  0.9959315672870447  0.14413341361348836  0.2053648477960763  1.0000
  Cl  Cl6       1.0  0.14358243036211618  0.8618435607556516  0.2156863391795838  1.0000
  Cl  Cl7       1.0  0.6913532679097754  0.6586190277235886  0.643949611915879  1.0000
  Cl  Cl8       1.0  0.5597549576680477  0.5005286360915165  0.6256966823693588  1.0000
  Cl  Cl9       1.0  0.5076284398310519  0.958326365184256  0.6291877851720002  1.0000
  Cl  Cl10      1.0  0.7344767397348733  0.6883966235736735  0.7526405347725104  1.0000
  Cl  Cl11      1.0  0.6063386676125759  0.421515436643098  0.7312329646563357  1.0000
  Cl  Cl12      1.0  0.4432416902421609  0.9690582962321769  0.7364673979492622  1.0000
  O   O1        1.0  0.4722531107381088  0.7211539624297458  0.44884573542871925  1.0000
  O   O2        1.0  0.494968721610398  0.6955237974282938  0.5524168595530483  1.0000
  O   O3        1.0  0.6909311140005628  0.8259066304721117  0.54920624659988  1.0000
  O   O4        1.0  0.839445238050196  0.4735799356003766  0.5460516020509303  1.0000
  O   O5        1.0  0.674249673647985  0.47907724491813053  0.53805714289269  1.0000
  O   O6        1.0  0.48990982997533905  0.8610345720625645  0.5402899178239126  1.0000
  O   O7        1.0  0.8451022576002172  0.6547618624357767  0.547903913689261  1.0000
  O   O8        1.0  0.6648510307818043  0.664301803980777  0.49627782448593655  1.0000
  O   O9        1.0  0.007234333646209719  0.9937551300513121  0.9858971902939758  1.0000
  O   O10       1.0  0.16732719108320276  0.9977855874980152  0.04033945778841291  1.0000
  O   O11       1.0  0.016396175916064064  0.8032051114474826  0.03371552883638879  1.0000
  O   O12       1.0  0.7102955618731669  0.8255471502921169  0.45317195784956976  1.0000
  O   O13       1.0  0.8001465787617051  0.16665125967058  0.0281369039287611  1.0000
  O   O14       1.0  0.9814974455153235  0.1675679643071035  0.9300725377872041  1.0000
  O   O15       1.0  0.19342192809292402  0.8119708237040939  0.9362586057397735  1.0000
  O   O16       1.0  0.8364857469012249  0.9598586270695861  0.9405138968427382  1.0000
  O   O17       1.0  0.17917377732505455  0.9836428747733095  0.9368155026173498  1.0000
  O   O18       1.0  0.01116549641304221  0.8126561669195951  0.9367165200164963  1.0000
  O   O19       1.0  0.8285035912176186  0.1461672555543814  0.9304704892643799  1.0000
  O   O20       1.0  0.8339909237551527  0.4778425012351021  0.4478725380634003  1.0000
  O   O21       1.0  0.9573782455983278  0.18115852007299071  0.0349626926341315  1.0000
  O   O22       1.0  0.19399443205642086  0.8205900834579439  0.0335308340431126  1.0000
  O   O23       1.0  0.8473700575674528  0.9616261761690482  0.036181789566654715  1.0000
  O   O24       1.0  0.6543969287325454  0.5204696358840762  0.4350622538934843  1.0000
  O   O25       1.0  0.5140158649603493  0.8623366652743342  0.44402199755917593  1.0000
  O   O26       1.0  0.8583659408396759  0.6494070631575681  0.4505578951266145  1.0000
  O   O27       1.0  0.4836573081800141  0.5395354713551299  0.4954335821350072  1.0000
  O   O28       1.0  0.1327730087662289  0.17586911872147937  0.9842960508873588  1.0000
