data_image0
_chemical_formula_structural       Zn2H44C40N8O8
_chemical_formula_sum              "Zn2 H44 C40 N8 O8"
_cell_length_a       7.884410978946429
_cell_length_b       8.788899563365284
_cell_length_c       16.4278
_cell_angle_alpha    84.16704342878361
_cell_angle_beta     76.90456659819598
_cell_angle_gamma    63.34968260197155

_space_group_name_H-M_alt    "P 1"
_space_group_IT_number       1

loop_
  _space_group_symop_operation_xyz
  'x, y, z'

loop_
  _atom_site_type_symbol
  _atom_site_label
  _atom_site_symmetry_multiplicity
  _atom_site_fract_x
  _atom_site_fract_y
  _atom_site_fract_z
  _atom_site_occupancy
  Zn  Zn1       1.0  0.060198176230343806  0.6222994908023127  0.4482677051034828  1.0000
  Zn  Zn2       1.0  0.6822225388354755  0.3777523545247306  0.9482735436458757  1.0000
  H   H1        1.0  0.36959630191027776  0.7548669127638805  0.48895858089251476  1.0000
  H   H2        1.0  0.12400679201264353  0.24493032326751776  0.9888975862388775  1.0000
  H   H3        1.0  0.7671086584400585  0.0017135205596688  0.4972678368897975  1.0000
  H   H4        1.0  0.7683551793231372  0.9980646197745602  0.9973341527825215  1.0000
  H   H5        1.0  0.8926434165545559  0.2395198757351409  0.5288359932005946  1.0000
  H   H6        1.0  0.13154157466139085  0.760383023153949  0.029084706022395303  1.0000
  H   H7        1.0  0.2543521849560762  0.20892729581736094  0.5056496164665065  1.0000
  H   H8        1.0  0.46282250073542025  0.7910838120223789  0.005837388483939797  1.0000
  H   H9        1.0  0.4397925533209844  0.9952919245450291  0.505946435302839  1.0000
  H   H10       1.0  0.43440461463224284  0.004817207873536202  0.006004264228728592  1.0000
  H   H11       1.0  0.27824263064552923  0.9637611093728042  0.6546264898793339  1.0000
  H   H12       1.0  0.24184430514651475  0.03653898001748961  0.15474333792216305  1.0000
  H   H13       1.0  0.12285217943448151  0.18632053645736596  0.6553607180835501  1.0000
  H   H14       1.0  0.3087434629325189  0.8140101060484073  0.1555962702896707  1.0000
  H   H15       1.0  0.5663522732114789  0.02153867336478041  0.6247994187578101  1.0000
  H   H16       1.0  0.5878456601459376  0.9784482465918745  0.12481705423213904  1.0000
  H   H17       1.0  0.41630174914220686  0.2449405076393489  0.6268049866133867  1.0000
  H   H18       1.0  0.6609563585415473  0.7550540505961791  0.12691358659995436  1.0000
  H   H19       1.0  0.2538141496348629  0.21971509167368455  0.7755692316721721  1.0000
  H   H20       1.0  0.47341372581180274  0.7805480793687425  0.275697648746231  1.0000
  H   H21       1.0  0.41412236180503476  0.9981830130970337  0.7727219561368059  1.0000
  H   H22       1.0  0.41219180609516576  0.0020827040383438  0.2727577813277763  1.0000
  H   H23       1.0  0.3446975037415143  0.3367462544152176  0.8742576373363278  1.0000
  H   H24       1.0  0.6811786661875278  0.6636365829961619  0.37436481110560754  1.0000
  H   H25       1.0  0.9519379505661906  0.1442348929343353  0.7909596541250181  1.0000
  H   H26       1.0  0.0961576393991947  0.8558194984856657  0.2910665730938646  1.0000
  H   H27       1.0  0.8071706773773429  0.014524187269856303  0.690612087698362  1.0000
  H   H28       1.0  0.8217721080498209  0.9856447783331819  0.19068745865169492  1.0000
  H   H29       1.0  0.5528758826942594  0.24076746128378806  0.2782167000105887  1.0000
  H   H30       1.0  0.7940608070311159  0.7586173076886809  0.7779946504851623  1.0000
  H   H31       1.0  0.6589326701779116  0.18239573416505556  0.3664675891507514  1.0000
  H   H32       1.0  0.841508647862675  0.8174295088888714  0.8661871012448473  1.0000
  H   H33       1.0  0.6639454986183894  0.4102201319049145  0.16073715949733008  1.0000
  H   H34       1.0  0.07513982991361694  0.5889367617479524  0.6605869395438688  1.0000
  H   H35       1.0  0.9214382408704439  0.49295033033764923  0.09088971210999117  1.0000
  H   H36       1.0  0.4153879367408778  0.5065782928868501  0.5909186707206474  1.0000
  H   H37       1.0  0.19304384545120717  0.3195168433791693  0.3039696777066396  1.0000
  H   H38       1.0  0.5123030674773191  0.681121876374327  0.8039921168333778  1.0000
  H   H39       1.0  0.9412828684867737  0.22780530204268257  0.37194182450083707  1.0000
  H   H40       1.0  0.16877028350534576  0.7724196776053918  0.8718124881146494  1.0000
  H   H41       1.0  0.3028439232498172  0.4786820254099099  0.20086191665130573  1.0000
  H   H42       1.0  0.7818630519005796  0.521569688214214  0.7009132223342647  1.0000
  H   H43       1.0  0.13895652958428437  0.6212695962014436  0.1424912762764805  1.0000
  H   H44       1.0  0.7605225845895165  0.3789464721212924  0.6425867328036078  1.0000
  C   C1        1.0  0.2211441321418023  0.8512963643485991  0.49556164890104537  1.0000
  C   C2        1.0  0.07196086902010283  0.14851360214758816  0.9956084386590688  1.0000
  C   C3        1.0  0.9092989816675827  0.9861132594371612  0.5012234734705814  1.0000
  C   C4        1.0  0.894933403595438  0.013697980105504803  0.0012938975938893915  1.0000
  C   C5        1.0  0.9679650495665657  0.10365399034854053  0.5172477860890082  1.0000
  C   C6        1.0  0.07104696706824845  0.8962170823785984  0.017437387318899808  1.0000
  C   C7        1.0  0.2905001232345655  0.0825125074849637  0.5339741268234732  1.0000
  C   C8        1.0  0.3724994279945761  0.917545703074474  0.03412462089916351  1.0000
  C   C9        1.0  0.267783902538028  0.08750412272600983  0.6286296334003866  1.0000
  C   C10       1.0  0.35497068947986327  0.912714491689677  0.1287683705786833  1.0000
  C   C11       1.0  0.42361047255589324  0.12197312916993043  0.6523080075805723  1.0000
  C   C12       1.0  0.5454100202343003  0.8781169075514583  0.15237785240127977  1.0000
  C   C13       1.0  0.39812679612254004  0.12358225991838623  0.7469285142320247  1.0000
  C   C14       1.0  0.5215949826316758  0.876643992776174  0.24700335277682237  1.0000
  C   C15       1.0  0.49214067513008797  0.26650082279425663  0.8403079270215912  1.0000
  C   C16       1.0  0.7584742876618836  0.7337929013636497  0.34040988517294585  1.0000
  C   C17       1.0  0.8046303938155506  0.16506447941075217  0.7934800871866443  1.0000
  C   C18       1.0  0.9696280282526363  0.8350752061232927  0.29356790385776327  1.0000
  C   C19       1.0  0.7346823598973702  0.0998552196575702  0.7436846352229481  1.0000
  C   C20       1.0  0.8345094825005933  0.9003188381313834  0.2437645194904691  1.0000
  C   C21       1.0  0.4453854108808812  0.4417496740306603  0.3656814283050167  1.0000
  C   C22       1.0  0.8874700572906351  0.5579775444444408  0.8656348551251938  1.0000
  C   C23       1.0  0.6138613792624241  0.2841146938667195  0.31992938404288646  1.0000
  C   C24       1.0  0.8982967999961884  0.7155183191689931  0.8197457655468271  1.0000
  C   C25       1.0  0.7817594166871091  0.3155831297615137  0.272523112028253  1.0000
  C   C26       1.0  0.09765906949220239  0.6841440887135877  0.7723804943929127  1.0000
  C   C27       1.0  0.7813828020910806  0.3871754445564194  0.1922528575792484  1.0000
  C   C28       1.0  0.16916234362292226  0.6123569978075167  0.6921541096092838  1.0000
  C   C29       1.0  0.9267889615109794  0.434646074682263  0.15285534406995543  1.0000
  C   C30       1.0  0.3620618525789966  0.5651040586294445  0.6528372676848309  1.0000
  C   C31       1.0  0.07585826552520564  0.4136446269312871  0.19246266528426761  1.0000
  C   C32       1.0  0.48982511160397746  0.5865065160210535  0.692466248736963  1.0000
  C   C33       1.0  0.08077428778926078  0.33488251437112393  0.2708875653349452  1.0000
  C   C34       1.0  0.41569132419528654  0.6654532203205576  0.7708600181221784  1.0000
  C   C35       1.0  0.9364245321739234  0.2858956858897344  0.3100596751482669  1.0000
  C   C36       1.0  0.22234956936367212  0.7142287230865707  0.8099473752505875  1.0000
  C   C37       1.0  0.21763840999079057  0.4845456774885265  0.15496798668249306  1.0000
  C   C38       1.0  0.7025097340831652  0.5156716638806813  0.6550370185807354  1.0000
  C   C39       1.0  0.36392286688921877  0.4014081041827638  0.0749728671951644  1.0000
  C   C40       1.0  0.7657262334648041  0.5985839079597997  0.5749759379951699  1.0000
  N   N1        1.0  0.06890527702572775  0.8291300790700618  0.48761161805632025  1.0000
  N   N2        1.0  0.8975851243941977  0.17068116047259715  0.9876106970625783  1.0000
  N   N3        1.0  0.1655204645738095  0.0159589106507951  0.5130875525155718  1.0000
  N   N4        1.0  0.18092717730265648  0.9839401690988583  0.013264915546024306  1.0000
  N   N5        1.0  0.5369556570140761  0.16502883410935715  0.7743732066738716  1.0000
  N   N6        1.0  0.7018882540645279  0.8352165142823722  0.27445421339026405  1.0000
  N   N7        1.0  0.6519045353252724  0.2688406822211959  0.8534331093763542  1.0000
  N   N8        1.0  0.9205872950149259  0.731411031402921  0.3535479083445808  1.0000
  O   O1        1.0  0.3006954621524187  0.4144733801886034  0.4072218288393047  1.0000
  O   O2        1.0  0.7155921437420718  0.5853505898188445  0.9073350839151432  1.0000
  O   O3        1.0  0.4505579506216648  0.5823309235725349  0.3610089938446848  1.0000
  O   O4        1.0  0.033220283214106396  0.417367014833566  0.8609194059043759  1.0000
  O   O5        1.0  0.3907835750795882  0.2623074076950402  0.04904372210535971  1.0000
  O   O6        1.0  0.6533354001771416  0.7372021198322829  0.5487144046118786  1.0000
  O   O7        1.0  0.4568830761301754  0.4894163533141481  0.0397208340600557  1.0000
  O   O8        1.0  0.9469162803523049  0.5108149915663207  0.53997536333938  1.0000
