data_image0
_chemical_formula_structural       Fe2Cu2H32C48S8N4Cl4
_chemical_formula_sum              "Fe2 Cu2 H32 C48 S8 N4 Cl4"
_cell_length_a       9.135006964076783
_cell_length_b       13.05927098019741
_cell_length_c       13.479888147104758
_cell_angle_alpha    76.46472580811239
_cell_angle_beta     70.1751774799342
_cell_angle_gamma    69.48136397613838

_space_group_name_H-M_alt    "P 1"
_space_group_IT_number       1

loop_
  _space_group_symop_operation_xyz
  'x, y, z'

loop_
  _atom_site_type_symbol
  _atom_site_label
  _atom_site_symmetry_multiplicity
  _atom_site_fract_x
  _atom_site_fract_y
  _atom_site_fract_z
  _atom_site_occupancy
  Fe  Fe1       1.0  5.127044600092819e-07  0.9999989663410888  9.340274684370486e-08  1.0000
  Fe  Fe2       1.0  7.690023835680823e-07  0.4999995964510758  0.49999922174077227  1.0000
  Cu  Cu1       1.0  0.5000006658752411  0.9999995249435685  0.49999974031793926  1.0000
  Cu  Cu2       1.0  0.9999989240141431  0.5000006006017657  0.9999998142877969  1.0000
  H   H1        1.0  0.037135484700186926  0.8288191542639325  0.8921005933158525  1.0000
  H   H2        1.0  0.7580602647180894  0.6713751969814152  0.6077029048387175  1.0000
  H   H3        1.0  0.9628649522906161  0.17118010439279627  0.10789963927689432  1.0000
  H   H4        1.0  0.24194040160269037  0.32862488719717226  0.39229547273486526  1.0000
  H   H5        1.0  0.7465195224342266  0.9096792266776392  0.029678290712318738  1.0000
  H   H6        1.0  0.6858490663712404  0.5905533341638503  0.47018824890881206  1.0000
  H   H7        1.0  0.2534807063598309  0.09032085603271871  0.9703228478881555  1.0000
  H   H8        1.0  0.31415175267477496  0.40944674938219083  0.5298111383243196  1.0000
  H   H9        1.0  0.6790181760464121  0.1328086860192883  0.007599891148892416  1.0000
  H   H10       1.0  0.819282398486443  0.3673888918189975  0.4925885024392399  1.0000
  H   H11       1.0  0.3209840523492744  0.8671905717786288  0.9924008773473715  1.0000
  H   H12       1.0  0.18071752485713688  0.6326111921564533  0.5074106168421365  1.0000
  H   H13       1.0  0.9318759401135065  0.1891863742664271  0.8551955376403059  1.0000
  H   H14       1.0  0.9760940456477203  0.3109224522716758  0.6449362940717976  1.0000
  H   H15       1.0  0.06812554530498008  0.810812883328353  0.14480597256375208  1.0000
  H   H16       1.0  0.023906238617847627  0.6890768070175993  0.35506292886140045  1.0000
  H   H17       1.0  0.3861871198249958  0.08732421058276431  0.316954728889705  1.0000
  H   H18       1.0  0.7912840294929425  0.41288185368208735  0.18282048905252413  1.0000
  H   H19       1.0  0.613811338697403  0.9126775225618927  0.6830449247958227  1.0000
  H   H20       1.0  0.20871589385063047  0.5871182302933633  0.8171786302288523  1.0000
  H   H21       1.0  0.2079906071511388  0.18110696097369328  0.1951150841101423  1.0000
  H   H22       1.0  0.5850241219385808  0.3191901774422235  0.3048655913349236  1.0000
  H   H23       1.0  0.7920067474720656  0.8188955966540021  0.8048852076313577  1.0000
  H   H24       1.0  0.41497869670907056  0.6808090811913771  0.6951334257939975  1.0000
  H   H25       1.0  0.9088880867707375  0.23464295877150929  0.2672811604738428  1.0000
  H   H26       1.0  0.41171825505209364  0.2655685806716265  0.23287474823946747  1.0000
  H   H27       1.0  0.09110960764123636  0.7653571245945229  0.7327201839309083  1.0000
  H   H28       1.0  0.5882821819387088  0.7344306779851025  0.7671254843532793  1.0000
  H   H29       1.0  0.7757351131000901  0.19746993963898524  0.46062736951856204  1.0000
  H   H30       1.0  0.4344840478709031  0.3027538744169363  0.039610514752183676  1.0000
  H   H31       1.0  0.2242653027574876  0.802527669442263  0.5393738120856213  1.0000
  H   H32       1.0  0.56551513249547  0.6972462093553703  0.9603893462369798  1.0000
  C   C1        1.0  0.03574526456396398  0.006782164405805702  0.8428093697356542  1.0000
  C   C2        1.0  0.885173432889424  0.49341836176807863  0.657180509034589  1.0000
  C   C3        1.0  0.9642560681292807  0.9932170938215137  0.15719113080884742  1.0000
  C   C4        1.0  0.11482664317939141  0.5065817215748254  0.3428196199063365  1.0000
  C   C5        1.0  0.9750992156329162  0.9153077414378574  0.9004227124097852  1.0000
  C   C6        1.0  0.7907616942699607  0.5849046873609397  0.5994325148468036  1.0000
  C   C7        1.0  0.024900117458699404  0.08469234170190283  0.0995781582389341  1.0000
  C   C8        1.0  0.20923912477605452  0.41509539618510866  0.4005668723863351  1.0000
  C   C9        1.0  0.8206894264518423  0.9589560738768483  0.9730710853418855  1.0000
  C   C10       1.0  0.7525812149818945  0.5412789185156582  0.5268830299151477  1.0000
  C   C11       1.0  0.17931064961697274  0.0410440094660558  0.0269290435990399  1.0000
  C   C12       1.0  0.24741886108692085  0.4587211648272456  0.473117099025785  1.0000
  C   C13       1.0  0.7854311588071353  0.0765416870406241  0.9611198557840197  1.0000
  C   C14       1.0  0.8229249620320261  0.42366619360502267  0.5390069732580329  1.0000
  C   C15       1.0  0.21456927818366708  0.9234575716161049  0.038880376808727045  1.0000
  C   C16       1.0  0.1770738574123598  0.5763347148534592  0.4609927840793162  1.0000
  C   C17       1.0  0.9185809403157282  0.10694382313931071  0.8813878692578925  1.0000
  C   C18       1.0  0.9067844528379253  0.39322573318237625  0.6187220006682139  1.0000
  C   C19       1.0  0.0814198787302869  0.8930562604067307  0.11861151797524626  1.0000
  C   C20       1.0  0.09321672713007707  0.6067735256774967  0.3812774902167391  1.0000
  C   C21       1.0  0.17977387919129498  0.09613817437217159  0.4572000762437511  1.0000
  C   C22       1.0  0.7339944984294604  0.4038260881820151  0.04268545350230809  1.0000
  C   C23       1.0  0.8202250929783261  0.9038627334537636  0.5428006907531469  1.0000
  C   C24       1.0  0.266003786234478  0.5961739960197007  0.9573141395351  1.0000
  C   C25       1.0  0.25371377542430207  0.1135294027888492  0.34766044979577515  1.0000
  C   C26       1.0  0.7157584398811422  0.3866082938618121  0.15221332321274866  1.0000
  C   C27       1.0  0.7462848358233315  0.8864723297232686  0.6523402135493016  1.0000
  C   C28       1.0  0.2842414834624307  0.6133917901136385  0.8477857960686208  1.0000
  C   C29       1.0  0.15440195875822849  0.16476812325050358  0.2806068549100971  1.0000
  C   C30       1.0  0.6006596865304985  0.3354359120047262  0.2193683416260939  1.0000
  C   C31       1.0  0.8455973954666051  0.8352336094647512  0.7193930667271928  1.0000
  C   C32       1.0  0.3993393411106326  0.6645641724001266  0.7806305097035277  1.0000
  C   C33       1.0  0.9838887516748756  0.19603252546774289  0.3215611463889799  1.0000
  C   C34       1.0  0.5023684396650127  0.3041358112520527  0.17853022839497604  1.0000
  C   C35       1.0  0.016109859572757956  0.8039692070443749  0.6784395169561037  1.0000
  C   C36       1.0  0.4976298449989187  0.695864272949663  0.8214693646424324  1.0000
  C   C37       1.0  0.908208162554878  0.17713688600913002  0.43002847367933567  1.0000
  C   C38       1.0  0.5161921499413892  0.3229827477712703  0.07008060801220485  1.0000
  C   C39       1.0  0.09179170531719204  0.8228640213874029  0.5699725612693243  1.0000
  C   C40       1.0  0.48380703042498385  0.677017336001036  0.9299192529769654  1.0000
  C   C41       1.0  0.008036304020087905  0.1281114569230866  0.4976142434665718  1.0000
  C   C42       1.0  0.6346110139342471  0.3718465954048256  0.0024077452411575165  1.0000
  C   C43       1.0  0.9919630290715202  0.8718886262166805  0.5023866271821474  1.0000
  C   C44       1.0  0.36538816643212607  0.628153488367481  0.9975921157480129  1.0000
  C   C45       1.0  0.15658949836618757  0.045579467747842294  0.6318137462089767  1.0000
  C   C46       1.0  0.8342920100626613  0.45456097017780916  0.8680716341121409  1.0000
  C   C47       1.0  0.8434123691075043  0.9544206147362502  0.36818691863546593  1.0000
  C   C48       1.0  0.1657068093817244  0.5454399382806726  0.13192812322520098  1.0000
  S   S1        1.0  0.22326753117547335  0.9971336835831227  0.7450288982553559  1.0000
  S   S2        1.0  0.9651321495512023  0.5034284992853628  0.754823780305493  1.0000
  S   S3        1.0  0.776734336298226  0.0028663989009700998  0.2549717665890938  1.0000
  S   S4        1.0  0.034867030815170987  0.4965715844869436  0.24517608068367017  1.0000
  S   S5        1.0  0.951459204733972  0.09749063469570976  0.6354769734629427  1.0000
  S   S6        1.0  0.6849489699359165  0.402490219784113  0.8645643568530444  1.0000
  S   S7        1.0  0.04854248888126728  0.9025077988454413  0.3645236307333874  1.0000
  S   S8        1.0  0.3150498495084689  0.5975106886743689  0.13543540048429747  1.0000
  N   N1        1.0  0.259053329918089  0.0490908458171475  0.5355803959678767  1.0000
  N   N2        1.0  0.844370052253154  0.45091793329279994  0.9642143603231117  1.0000
  N   N3        1.0  0.7409471282059313  0.9509100624150763  0.46441888761343353  1.0000
  N   N4        1.0  0.15562802421403182  0.5490829749625448  0.035786138722031076  1.0000
  Cl  Cl1       1.0  0.5068522242057225  0.8239207863616258  0.5037057182043867  1.0000
  Cl  Cl2       1.0  0.8338782407918472  0.6763919269106535  0.9962358854336273  1.0000
  Cl  Cl3       1.0  0.4931484421150501  0.17607929781696188  0.4962926593691961  1.0000
  Cl  Cl4       1.0  0.1661198356753317  0.323608981344691  0.0037646136115156857  1.0000
