data_image0
_chemical_formula_structural       Mn4H16C16N12Cl4O8
_chemical_formula_sum              "Mn4 H16 C16 N12 Cl4 O8"
_cell_length_a       8.006661670155172
_cell_length_b       9.51147111212359
_cell_length_c       11.651961586473616
_cell_angle_alpha    71.89023566642464
_cell_angle_beta     69.91462431402712
_cell_angle_gamma    65.09679655862402

_space_group_name_H-M_alt    "P 1"
_space_group_IT_number       1

loop_
  _space_group_symop_operation_xyz
  'x, y, z'

loop_
  _atom_site_type_symbol
  _atom_site_label
  _atom_site_symmetry_multiplicity
  _atom_site_fract_x
  _atom_site_fract_y
  _atom_site_fract_z
  _atom_site_occupancy
  Mn  Mn1       1.0  0.025065338044790237  0.0543402949400047  0.6897605878756464  1.0000
  Mn  Mn2       1.0  0.7690972449887924  0.44586966148892765  0.8101171874156847  1.0000
  Mn  Mn3       1.0  0.9749333905551509  0.9456597978731338  0.3102387289386853  1.0000
  Mn  Mn4       1.0  0.2309055530164913  0.5541304235180461  0.18988338441202046  1.0000
  H   H1        1.0  0.980795573234268  0.7258632036126683  0.6631311770806859  1.0000
  H   H2        1.0  0.36977155399436884  0.7741462093737893  0.8369629969233401  1.0000
  H   H3        1.0  0.01920418563395288  0.27413924899021685  0.3368684117987684  1.0000
  H   H4        1.0  0.6302286941741002  0.22585269964140053  0.16303681136511722  1.0000
  H   H5        1.0  0.6789050486290338  0.6551485493572358  0.038113804915639066  1.0000
  H   H6        1.0  0.3720211709345235  0.8450369068780574  0.46193486117801535  1.0000
  H   H7        1.0  0.3210938419993211  0.3448515365872566  0.9618866847563651  1.0000
  H   H8        1.0  0.6279780727995574  0.15496436582995438  0.5380645916688778  1.0000
  H   H9        1.0  0.6309541787036892  0.926946824372699  0.08006127464333444  1.0000
  H   H10       1.0  0.6376560224923299  0.5730629296051148  0.42002971097588926  1.0000
  H   H11       1.0  0.3690436945733358  0.0730532635233416  0.9199389012753229  1.0000
  H   H12       1.0  0.3623449318875914  0.4269383529371211  0.5799680236623388  1.0000
  H   H13       1.0  0.7535544951719901  0.045722687924254  0.961517208897959  1.0000
  H   H14       1.0  0.7606688779762012  0.454255470972491  0.5385378463867525  1.0000
  H   H15       1.0  0.24644525077928175  0.9542774029373429  0.03848242166971262  1.0000
  H   H16       1.0  0.23933156126958016  0.5457446316748714  0.4614597522189142  1.0000
  C   C1        1.0  0.913921315435694  0.7381460240132539  0.7593826707288756  1.0000
  C   C2        1.0  0.4114274616496445  0.7619148461463113  0.7406956965860944  1.0000
  C   C3        1.0  0.08607860546094064  0.26185642172097084  0.24061809100825118  1.0000
  C   C4        1.0  0.5885719311959081  0.23808405795177373  0.25930497080669557  1.0000
  C   C5        1.0  0.7601966165048423  0.6998637033082743  0.9488834313330087  1.0000
  C   C6        1.0  0.4088254145963288  0.8002663967997562  0.5511700542002201  1.0000
  C   C7        1.0  0.23980312944643603  0.30013638755333005  0.05111619923466291  1.0000
  C   C8        1.0  0.5911733140036122  0.1997336960133893  0.44882926261411166  1.0000
  C   C9        1.0  0.7671264842425034  0.9247411356869576  0.012439138703726373  1.0000
  C   C10       1.0  0.7041189911641156  0.5752379601097033  0.48762387135977286  1.0000
  C   C11       1.0  0.23287240638585147  0.07525895025753468  0.987561350968278  1.0000
  C   C12       1.0  0.295881107892882  0.42476331751542057  0.5123747223827948  1.0000
  C   C13       1.0  0.9190014880640975  0.8612494792060372  0.08608423852116695  1.0000
  C   C14       1.0  0.8660749438045701  0.6386458089783318  0.4139470765743454  1.0000
  C   C15       1.0  0.08099877302132097  0.13875179155043332  0.913915528079066  1.0000
  C   C16       1.0  0.13392565746962512  0.3613542868003775  0.5860516948889939  1.0000
  N   N1        1.0  0.9036836720549675  0.8551438489331389  0.8041180896234507  1.0000
  N   N2        1.0  0.5628416818559148  0.644854433852501  0.6959603557680794  1.0000
  N   N3        1.0  0.09631639795314578  0.1448562281911592  0.19588388665957268  1.0000
  N   N4        1.0  0.4371594216354779  0.3551444800798009  0.30403859341604533  1.0000
  N   N5        1.0  0.8035038532308366  0.8294535494841639  0.9251328602881228  1.0000
  N   N6        1.0  0.5579395513898863  0.6705641402474355  0.5749433664591449  1.0000
  N   N7        1.0  0.19649792742310987  0.17054653747435108  0.07486739778623529  1.0000
  N   N8        1.0  0.4420615521015066  0.3294347736848593  0.42505558272497973  1.0000
  N   N9        1.0  0.826808598142343  0.6400830046952635  0.8455372687221399  1.0000
  N   N10       1.0  0.31238773807046283  0.8600800828273872  0.6545205254497547  1.0000
  N   N11       1.0  0.1731897902688147  0.3599182630956434  0.1544630432290859  1.0000
  N   N12       1.0  0.6876109905294785  0.13992000998575796  0.3454787913645703  1.0000
  Cl  Cl1       1.0  0.9999997324452112  8.555860518002643e-07  0.4999989211727892  1.0000
  Cl  Cl2       1.0  0.4999994404742978  0.500000551310613  0.999999927167984  1.0000
  Cl  Cl3       1.0  0.6825897381093284  0.25007674453367906  0.7499563658229746  1.0000
  Cl  Cl4       1.0  0.3174108631648665  0.7499233512450373  0.2500424056403645  1.0000
  O   O1        1.0  0.8975408756955973  0.9554910244122183  0.15100753836136238  1.0000
  O   O2        1.0  0.0035778406663810255  0.5444884440971548  0.3489031200413706  1.0000
  O   O3        1.0  0.10245735068714619  0.0445102502473347  0.8489916007321838  1.0000
  O   O4        1.0  0.9964229226362277  0.45551164481290846  0.6510968242796409  1.0000
  O   O5        1.0  0.043478356967185175  0.7258850133365441  0.07853816221184216  1.0000
  O   O6        1.0  0.847787631218836  0.7739442932367239  0.42160552003082324  1.0000
  O   O7        1.0  0.9565208577180049  0.27411505887064175  0.9214646731755067  1.0000
  O   O8        1.0  0.15221398740668948  0.22605580059044428  0.5783935651858626  1.0000
