data_image0
_chemical_formula_structural       Cs4B4H32C24O4F24
_chemical_formula_sum              "Cs4 B4 H32 C24 O4 F24"
_cell_length_a       8.933492369755575
_cell_length_b       9.19696653400091
_cell_length_c       12.605512364039118
_cell_angle_alpha    90.00002711559239
_cell_angle_beta     93.85886660675816
_cell_angle_gamma    90.00004183736523

_space_group_name_H-M_alt    "P 1"
_space_group_IT_number       1

loop_
  _space_group_symop_operation_xyz
  'x, y, z'

loop_
  _atom_site_type_symbol
  _atom_site_label
  _atom_site_symmetry_multiplicity
  _atom_site_fract_x
  _atom_site_fract_y
  _atom_site_fract_z
  _atom_site_occupancy
  Cs  Cs1       1.0  0.17206438074573063  0.16581574889430334  0.4419989768672963  1.0000
  Cs  Cs2       1.0  0.6720653565879926  0.33418356259429777  0.9419984277295725  1.0000
  Cs  Cs3       1.0  0.8279344823639148  0.8341842252276026  0.558002284264397  1.0000
  Cs  Cs4       1.0  0.3279346222886871  0.6658153242127299  0.0580020889829811  1.0000
  B   B1        1.0  0.7758758603072164  0.2634329743657132  0.5640395086716978  1.0000
  B   B2        1.0  0.27587718348200946  0.23656725216478963  0.0640401830543169  1.0000
  B   B3        1.0  0.22412411242752475  0.736566999756093  0.43596021445625865  1.0000
  B   B4        1.0  0.7241239173044818  0.7634316346426575  0.9359603828241063  1.0000
  H   H1        1.0  0.8307047225745874  0.11580706539206183  0.3224390098916317  1.0000
  H   H2        1.0  0.33070537764817937  0.3841933690581598  0.8224386394915157  1.0000
  H   H3        1.0  0.16929525630209236  0.8841918214149661  0.677561506820922  1.0000
  H   H4        1.0  0.6692946012289197  0.6158066050639094  0.1775618772212511  1.0000
  H   H5        1.0  0.6502156259238416  0.15846673251136423  0.3642781989251844  1.0000
  H   H6        1.0  0.15021512580604218  0.34153359991517374  0.86427776313176  1.0000
  H   H7        1.0  0.34978547486350203  0.8415343289261517  0.6357223669536508  1.0000
  H   H8        1.0  0.849784853071064  0.6584663742068886  0.1357227535809997  1.0000
  H   H9        1.0  0.908476719953327  0.37522850664927904  0.34149464334252855  1.0000
  H   H10       1.0  0.40847717263609695  0.12477308327849099  0.8414941742606955  1.0000
  H   H11       1.0  0.09152325278183329  0.6247725547875618  0.6585050797856411  1.0000
  H   H12       1.0  0.5915239220088893  0.8752279781587617  0.1585055980333436  1.0000
  H   H13       1.0  0.7444878104190946  0.35785203859568077  0.2565814086002404  1.0000
  H   H14       1.0  0.24448716089040798  0.14214829109726423  0.756581690546966  1.0000
  H   H15       1.0  0.25551328422546493  0.6421479355265377  0.7434183636935928  1.0000
  H   H16       1.0  0.7555128179871176  0.8578527703398324  0.24341882616599972  1.0000
  H   H17       1.0  0.586963449833064  0.42764569524634066  0.4043802712657865  1.0000
  H   H18       1.0  0.08696273971150957  0.0723546180282142  0.9043797330787342  1.0000
  H   H19       1.0  0.413037644811915  0.5723553661909121  0.5956195010282598  1.0000
  H   H20       1.0  0.9130372330232317  0.9276453560935923  0.0956199900492223  1.0000
  H   H21       1.0  0.7204200075385642  0.5630914830032765  0.3835313605838948  1.0000
  H   H22       1.0  0.22041958182927598  0.9369092891557287  0.8835309610705693  1.0000
  H   H23       1.0  0.27958109324877967  0.4369095784342465  0.6164692052949476  1.0000
  H   H24       1.0  0.7795815128152839  0.0630906849664967  0.11646881122326391  1.0000
  H   H25       1.0  0.8842303291974571  0.4782821060074342  0.5362287444141032  1.0000
  H   H26       1.0  0.384230356702531  0.021718180013195407  0.0362284943190971  1.0000
  H   H27       1.0  0.11576964968006817  0.5217189554296694  0.4637717722988626  1.0000
  H   H28       1.0  0.615769622174568  0.9782817941088666  0.9637720223936626  1.0000
  H   H29       1.0  0.7018710962565109  0.49740031576695315  0.5816209458694814  1.0000
  H   H30       1.0  0.20186998079360305  0.002598781893397  0.0816198457511561  1.0000
  H   H31       1.0  0.29812999838762266  0.5025985710402311  0.4183788264241457  1.0000
  H   H32       1.0  0.7981299919407121  0.9974001049133677  0.9183798773766014  1.0000
  C   C1        1.0  0.7698592339151629  0.18918342822146164  0.3736934375250129  1.0000
  C   C2        1.0  0.2698587098337626  0.3108180833940538  0.8736929900474166  1.0000
  C   C3        1.0  0.23014186687260713  0.8108187205310885  0.6263071283540356  1.0000
  C   C4        1.0  0.7301412629014051  0.6891829780427868  0.126306733080753  1.0000
  C   C5        1.0  0.7883222129597058  0.34692021608908874  0.3398259557212242  1.0000
  C   C6        1.0  0.2883227000118538  0.15308019933960543  0.839827084577024  1.0000
  C   C7        1.0  0.21167887554248918  0.6530797580328738  0.6601730229878129  1.0000
  C   C8        1.0  0.7116772788652524  0.8469197747824638  0.16017343213574256  1.0000
  C   C9        1.0  0.7080285767854092  0.4508805760625238  0.4118372294384399  1.0000
  C   C10       1.0  0.20803009235650893  0.04911982882739351  0.9118367807447854  1.0000
  C   C11       1.0  0.2919713959497513  0.54912048537431  0.5881624936897296  1.0000
  C   C12       1.0  0.7919721303406531  0.9508812326105414  0.0881638342999267  1.0000
  C   C13       1.0  0.7692374216370226  0.4336042873124129  0.5280819423398668  1.0000
  C   C14       1.0  0.26923860590790827  0.06639591099490622  0.028081758405818398  1.0000
  C   C15       1.0  0.23076143533068452  0.5663967741242643  0.4719185252072293  1.0000
  C   C16       1.0  0.7307624825942867  0.9336040631270566  0.9719172203032187  1.0000
  C   C17       1.0  0.6099047386809173  0.21274447481813755  0.6016526767349362  1.0000
  C   C18       1.0  0.10990497949120477  0.28725565733351743  0.1016533212331865  1.0000
  C   C19       1.0  0.390094106002067  0.7872565866180211  0.3983462036425607  1.0000
  C   C20       1.0  0.8900949932435366  0.7127443167882886  0.8983464018947771  1.0000
  C   C21       1.0  0.8991679833226697  0.24173894199208232  0.6653473003510086  1.0000
  C   C22       1.0  0.39916818922788616  0.2582614389954188  0.1653463466504306  1.0000
  C   C23       1.0  0.10083200169679428  0.7582610321302425  0.3346540099465471  1.0000
  C   C24       1.0  0.6008317896492129  0.7417385351266432  0.8346541700623291  1.0000
  O   O1        1.0  0.8274616128291112  0.1627834749366102  0.4814375942728049  1.0000
  O   O2        1.0  0.32746111548556195  0.3372159736380809  0.9814379504219559  1.0000
  O   O3        1.0  0.17253948181544837  0.8372164991856084  0.5185621780210283  1.0000
  O   O4        1.0  0.6725388572487532  0.6627829131686839  0.018561772705794496  1.0000
  F   F1        1.0  0.49332268350816105  0.23872688799277597  0.5245375766927864  1.0000
  F   F2        1.0  0.9933210322954619  0.26126911930720104  0.024539540430126298  1.0000
  F   F3        1.0  0.5066783988512498  0.7612719988138895  0.4754606084312414  1.0000
  F   F4        1.0  0.006677824670553901  0.7387275928693388  0.9754609271161386  1.0000
  F   F5        1.0  0.5953537006243292  0.0659895666735295  0.6246581612272735  1.0000
  F   F6        1.0  0.09535291559103598  0.4340116573791377  0.1246564316299015  1.0000
  F   F7        1.0  0.4046462782532031  0.9340114947635741  0.3753423554856923  1.0000
  F   F8        1.0  0.9046459352338868  0.5659883167422494  0.8753432423321854  1.0000
  F   F9        1.0  0.5644976435482362  0.28350586311633214  0.6915208127143373  1.0000
  F   F10       1.0  0.06449896334800799  0.2164953824637692  0.1915230666311771  1.0000
  F   F11       1.0  0.4355011949923834  0.7164951983195637  0.3084772740783563  1.0000
  F   F12       1.0  0.9355010216714559  0.7835045916585557  0.8084782436663858  1.0000
  F   F13       1.0  0.04277604180824569  0.28606193778850303  0.6423008880453054  1.0000
  F   F14       1.0  0.5427776886848361  0.21393599815961306  0.142299013350744  1.0000
  F   F15       1.0  0.9572228335861226  0.7139380363339285  0.35770196025598006  1.0000
  F   F16       1.0  0.4572222901918365  0.7860628886474148  0.8577015033618096  1.0000
  F   F17       1.0  0.9200900878078211  0.0985950237283788  0.7004171835672396  1.0000
  F   F18       1.0  0.420092643066063  0.4014053951381343  0.20041558906446263  1.0000
  F   F19       1.0  0.0799087691590401  0.9014038630782366  0.29958328397944456  1.0000
  F   F20       1.0  0.5799073235267399  0.5985956662984436  0.7995833404789038  1.0000
  F   F21       1.0  0.8708800345140517  0.31866867477096866  0.7556657828238968  1.0000
  F   F22       1.0  0.37088131459643847  0.18133283220544172  0.2556664361955185  1.0000
  F   F23       1.0  0.12911882859559398  0.6813312993509371  0.2443354783077964  1.0000
  F   F24       1.0  0.6291186765658096  0.8186682292321806  0.7443356676870464  1.0000
