data_image0
_chemical_formula_structural       Cd2H24C24N20O4
_chemical_formula_sum              "Cd2 H24 C24 N20 O4"
_cell_length_a       7.923839488002866
_cell_length_b       8.428721780574126
_cell_length_c       10.864748761743277
_cell_angle_alpha    95.53685399207804
_cell_angle_beta     89.99992114953865
_cell_angle_gamma    89.99995110406306

_space_group_name_H-M_alt    "P 1"
_space_group_IT_number       1

loop_
  _space_group_symop_operation_xyz
  'x, y, z'

loop_
  _atom_site_type_symbol
  _atom_site_label
  _atom_site_symmetry_multiplicity
  _atom_site_fract_x
  _atom_site_fract_y
  _atom_site_fract_z
  _atom_site_occupancy
  Cd  Cd1       1.0  5.653830684000001e-07  0.4999997779955835  0.4999994771423528  1.0000
  Cd  Cd2       1.0  0.5000003546258399  6.494224180999498e-07  0.9999999264291899  1.0000
  H   H1        1.0  0.7114232096464196  0.4285471834350433  0.6901054793406372  1.0000
  H   H2        1.0  0.21142448875590256  0.0714518539213458  0.8098936072903766  1.0000
  H   H3        1.0  0.28857546170517173  0.5714530963050349  0.3098939455046262  1.0000
  H   H4        1.0  0.7885767066228767  0.9285484262426638  0.19010765840101124  1.0000
  H   H5        1.0  0.5378293604714204  0.2128642965055647  0.76694285146398  1.0000
  H   H6        1.0  0.03782932631939672  0.28713609547087776  0.7330565113338421  1.0000
  H   H7        1.0  0.46217057289462826  0.7871359832339239  0.2330565733806011  1.0000
  H   H8        1.0  0.9621706070464102  0.7128629925002914  0.26694374487586703  1.0000
  H   H9        1.0  0.9313498174085882  0.11715751463702873  0.41883052931061104  1.0000
  H   H10       1.0  0.4313499818942575  0.3828416252205714  0.08116913386535167  1.0000
  H   H11       1.0  0.06864885394362831  0.8828415731221854  0.581168806476036  1.0000
  H   H12       1.0  0.5686499514696736  0.6171610386932117  0.918831389520221  1.0000
  H   H13       1.0  0.7646865169067072  0.8877519267039987  0.4822472543368048  1.0000
  H   H14       1.0  0.26468704604409515  0.6122472336259791  0.017751435929369595  1.0000
  H   H15       1.0  0.23531215444489118  0.11224835303607965  0.5177521705084586  1.0000
  H   H16       1.0  0.7353116253077374  0.3877542378824189  0.9822471575507803  1.0000
  H   H17       1.0  0.6591329791977361  0.6555631678871452  0.49899219690012575  1.0000
  H   H18       1.0  0.1591320671623109  0.8444360917608051  0.0010084479847876104  1.0000
  H   H19       1.0  0.3408682161825354  0.34443592008343427  0.5010080593089015  1.0000
  H   H20       1.0  0.8408678662034961  0.15556299621037084  0.9989918082249144  1.0000
  H   H21       1.0  0.6723312918387095  0.5105962916170482  0.39291261073753947  1.0000
  H   H22       1.0  0.17233131094821638  0.9894041474333973  0.10708718855600094  1.0000
  H   H23       1.0  0.327668641527339  0.48940398812243996  0.607086814107049  1.0000
  H   H24       1.0  0.8276686224169654  0.010596132518642802  0.8929131567123246  1.0000
  C   C1        1.0  0.7202094501627841  0.3064769179235682  0.6470173665722709  1.0000
  C   C2        1.0  0.22020927554403616  0.1935221112017445  0.8529817105893114  1.0000
  C   C3        1.0  0.279789221188807  0.6935233618165101  0.3529820582729925  1.0000
  C   C4        1.0  0.7797906578211456  0.806478168750296  0.14701863467901424  1.0000
  C   C5        1.0  0.6232362740198029  0.1856613426433569  0.6895381453239791  1.0000
  C   C6        1.0  0.12323733173242604  0.31433777733470697  0.8104610363591075  1.0000
  C   C7        1.0  0.37676239733178823  0.8143389370967214  0.3104612795212843  1.0000
  C   C8        1.0  0.876762601633381  0.6856613106364622  0.18953921985059446  1.0000
  C   C9        1.0  0.8422477314426191  0.132887677098573  0.49547653356474075  1.0000
  C   C10       1.0  0.34224805424630506  0.3671115460253633  0.004522305225741305  1.0000
  C   C11       1.0  0.15775093990897915  0.8671126026415052  0.5045228912805227  1.0000
  C   C12       1.0  0.6577518791197506  0.6328887337141254  0.9954771196188471  1.0000
  C   C13       1.0  0.7494063998249916  0.005586300679397  0.5313496738258789  1.0000
  C   C14       1.0  0.24940699688797005  0.49441270087863387  0.9686484514417227  1.0000
  C   C15       1.0  0.25059227152659963  0.9944139790606813  0.4686497510193844  1.0000
  C   C16       1.0  0.7505929364789455  0.505587578648303  0.031350052979121294  1.0000
  C   C17       1.0  0.5487051770100849  0.8952024297227794  0.6760381338597268  1.0000
  C   C18       1.0  0.04870513741737881  0.604797816816472  0.8239619055161138  1.0000
  C   C19       1.0  0.45129349434064653  0.10479785022985771  0.323962211409281  1.0000
  C   C20       1.0  0.9512935339333455  0.3952024631361652  0.17603843975288663  1.0000
  C   C21       1.0  0.6398104337772568  0.029841169777945705  0.6329240144592132  1.0000
  C   C22       1.0  0.13981124373967194  0.470157934672052  0.8670751493596212  1.0000
  C   C23       1.0  0.3601882375749598  0.970157917981268  0.36707532132743365  1.0000
  C   C24       1.0  0.8601886896263765  0.5298423450674364  0.13292427548496724  1.0000
  N   N1        1.0  0.8313210885877214  0.2810641169633713  0.5534376915324442  1.0000
  N   N2        1.0  0.33132197705721483  0.21893600004278824  0.9465613549259186  1.0000
  N   N3        1.0  0.16867758276386985  0.7189361627767071  0.4465617333128191  1.0000
  N   N4        1.0  0.668679218322673  0.7810654716769748  0.05343815897661128  1.0000
  N   N5        1.0  0.47229514763743924  0.8898285445175561  0.7871495982772952  1.0000
  N   N6        1.0  0.972294114593794  0.6101701131835285  0.7128498954755924  1.0000
  N   N7        1.0  0.5277047857292417  0.11017054324106822  0.2128497375086694  1.0000
  N   N8        1.0  0.027705818772879805  0.38982897457509585  0.2871494403103724  1.0000
  N   N9        1.0  0.40415400726264744  0.7433433517971011  0.7851789964292804  1.0000
  N   N10       1.0  0.9041540996472152  0.7566565617251585  0.7148206598272963  1.0000
  N   N11       1.0  0.5958459261034081  0.2566569279423875  0.21482042841530805  1.0000
  N   N12       1.0  0.09584583371945853  0.2433425260334587  0.2851786759586686  1.0000
  N   N13       1.0  0.4383938589667056  0.6633427101437093  0.6775408577470612  1.0000
  N   N14       1.0  0.9383949385000679  0.8366571712990735  0.8224587616036839  1.0000
  N   N15       1.0  0.5616060743991086  0.33665637782746677  0.32245939846264077  1.0000
  N   N16       1.0  0.061606256880438116  0.16334310843982544  0.17754066324021514  1.0000
  N   N17       1.0  0.5287919788747856  0.7545627575144777  0.6077028929673742  1.0000
  N   N18       1.0  0.028792945289133304  0.7454363156999335  0.8922970788126744  1.0000
  N   N19       1.0  0.4712066924768054  0.24543752222560755  0.3922965318778892  1.0000
  N   N20       1.0  0.9712069880766808  0.25456277227124247  0.10770317739703467  1.0000
  O   O1        1.0  0.7389289747861484  0.5990118778276853  0.4375387384762417  1.0000
  O   O2        1.0  0.23892915797132022  0.9009873068470214  0.06246089997652148  1.0000
  O   O3        1.0  0.2610709585796585  0.4009872101434838  0.5624615177334602  1.0000
  O   O4        1.0  0.7610707753953535  0.0990117809115958  0.9375384358094433  1.0000
