data_image0
_chemical_formula_structural       Ca2H32C32N4O20
_chemical_formula_sum              "Ca2 H32 C32 N4 O20"
_cell_length_a       7.69637789465235
_cell_length_b       10.816626967051446
_cell_length_c       12.070353364156665
_cell_angle_alpha    107.75092537041628
_cell_angle_beta     104.95576779016577
_cell_angle_gamma    89.7548780650191

_space_group_name_H-M_alt    "P 1"
_space_group_IT_number       1

loop_
  _space_group_symop_operation_xyz
  'x, y, z'

loop_
  _atom_site_type_symbol
  _atom_site_label
  _atom_site_symmetry_multiplicity
  _atom_site_fract_x
  _atom_site_fract_y
  _atom_site_fract_z
  _atom_site_occupancy
  Ca  Ca1       1.0  0.7636148712110326  0.4657689487785957  0.5285378401515286  1.0000
  Ca  Ca2       1.0  0.23638867085789167  0.5342296805766721  0.471460633988414  1.0000
  H   H1        1.0  0.5854495622044026  0.24498315130767165  0.1638699812327714  1.0000
  H   H2        1.0  0.414545918185354  0.7550155410900101  0.836127177701037  1.0000
  H   H3        1.0  0.39474440444973163  0.07262216029606351  0.9859761138623423  1.0000
  H   H4        1.0  0.6052501082669935  0.9273794798375758  0.014020053484315913  1.0000
  H   H5        1.0  0.4930421580032984  0.27786441397919487  0.7502351110035332  1.0000
  H   H6        1.0  0.5069565039793531  0.722138152677303  0.24976365880014126  1.0000
  H   H7        1.0  0.6852385073045966  0.4483753612756161  0.9266322975033103  1.0000
  H   H8        1.0  0.31476271056489213  0.5516261868872403  0.07336909519093376  1.0000
  H   H9        1.0  0.9101546327947362  0.4592996903942606  0.15130040932424285  1.0000
  H   H10       1.0  0.0898439107615729  0.5407019182181755  0.8486964156254826  1.0000
  H   H11       1.0  0.7325776827012975  0.5591120596295126  0.1529853393890121  1.0000
  H   H12       1.0  0.267417792523176  0.4408866169939926  0.8470134712817835  1.0000
  H   H13       1.0  0.8092093033127982  0.08220955605436592  0.5704740145494539  1.0000
  H   H14       1.0  0.19078250151640222  0.9177920419967052  0.4295283213431203  1.0000
  H   H15       1.0  0.9924595461681422  0.25349131781294426  0.75010341926977  1.0000
  H   H16       1.0  0.007534827461107278  0.7465093011799268  0.24989741017090228  1.0000
  H   H17       1.0  0.866167410518699  0.05387584016917659  0.9824088462471818  1.0000
  H   H18       1.0  0.13383368117652591  0.9461247262883532  0.0175930791986048  1.0000
  H   H19       1.0  0.6781762358842941  0.8818127148930087  0.8015398956975515  1.0000
  H   H20       1.0  0.3218283871187211  0.11818390899617978  0.19846316662047764  1.0000
  H   H21       1.0  0.607704530395992  0.8900963909912675  0.4829823119219083  1.0000
  H   H22       1.0  0.3923057219909796  0.10990216216738702  0.5170197358286328  1.0000
  H   H23       1.0  0.4633989506584727  0.8788791128828422  0.572325557657585  1.0000
  H   H24       1.0  0.5366056904230376  0.12111756621597175  0.4276717235809711  1.0000
  H   H25       1.0  0.5878948961091695  0.5343429925246425  0.7229367455584066  1.0000
  H   H26       1.0  0.41210339768124277  0.4656566605642281  0.27706031902590655  1.0000
  H   H27       1.0  0.786470811447231  0.5963480074723008  0.791517951964593  1.0000
  H   H28       1.0  0.21352870236475505  0.4036506612912659  0.20847903870378548  1.0000
  H   H29       1.0  0.99344183203997  0.2590067783940598  0.44683294253157135  1.0000
  H   H30       1.0  0.006562924885237534  0.7409908508617207  0.5531671094294308  1.0000
  H   H31       1.0  0.8074358435384427  0.18031930011925817  0.3825178086596279  1.0000
  H   H32       1.0  0.1925664810915606  0.8196803214484092  0.6174799135277521  1.0000
  C   C1        1.0  0.6484296078838199  0.3593390211913031  0.0582875610939623  1.0000
  C   C2        1.0  0.35157002435450835  0.6406606056163255  0.941711374428365  1.0000
  C   C3        1.0  0.5654794449605376  0.2525124306568571  0.07373335851832503  1.0000
  C   C4        1.0  0.4345175026340443  0.7474872250519907  0.9262643127334581  1.0000
  C   C5        1.0  0.4583575249530228  0.1561207599496726  0.9750546786765566  1.0000
  C   C6        1.0  0.5416383236289734  0.8438808460156366  0.024944185476613236  1.0000
  C   C7        1.0  0.4325290071672113  0.16697088069282978  0.8596779203386331  1.0000
  C   C8        1.0  0.5674681927759054  0.8330307384266717  0.1403186854100723  1.0000
  C   C9        1.0  0.5118557735372775  0.2723655485588097  0.8410904151784777  1.0000
  C   C10       1.0  0.4881414160752655  0.7276360390123385  0.15890949404420943  1.0000
  C   C11       1.0  0.6197812739430548  0.36735372978228753  0.9406748337351655  1.0000
  C   C12       1.0  0.38021701468207436  0.6326459075324066  0.05932388258614195  1.0000
  C   C13       1.0  0.7721324879826599  0.46360260271979564  0.16124923415777198  1.0000
  C   C14       1.0  0.22786849045150603  0.5363970214678487  0.8387490946970783  1.0000
  C   C15       1.0  0.7788014050824613  0.4685682789825733  0.28920264448858285  1.0000
  C   C16       1.0  0.22120091696489652  0.5314313346979986  0.7107959035672946  1.0000
  C   C17       1.0  0.7271917887892344  0.971335200077732  0.6737023814746903  1.0000
  C   C18       1.0  0.2728103915880027  0.028663384574983294  0.3263016545436982  1.0000
  C   C19       1.0  0.819290863484099  0.0753271070789978  0.6601543764217721  1.0000
  C   C20       1.0  0.18070204552297042  0.9246725564897955  0.33984511483243535  1.0000
  C   C21       1.0  0.9242468536794847  0.17142037240466118  0.7603899240080164  1.0000
  C   C22       1.0  0.0757504440288344  0.8285821416621956  0.23961523354260078  1.0000
  C   C23       1.0  0.9396385802537498  0.16105046342487125  0.875104359033642  1.0000
  C   C24       1.0  0.06036129400254708  0.8389510952450506  0.12489681445958202  1.0000
  C   C25       1.0  0.8525085781870486  0.057310282571798196  0.8914673285296427  1.0000
  C   C26       1.0  0.1474923795859766  0.9426892785191328  0.10853760727317752  1.0000
  C   C27       1.0  0.7472117291484892  0.9631908809616619  0.7903884756643718  1.0000
  C   C28       1.0  0.2527903328024053  0.0368067456469916  0.20961361550006785  1.0000
  C   C29       1.0  0.6036789577348145  0.8718408328728343  0.5669899097217976  1.0000
  C   C30       1.0  0.3963259176167356  0.12815775442700778  0.4330120870931465  1.0000
  C   C31       1.0  0.6475027059143271  0.7308696432871923  0.5526554596876563  1.0000
  C   C32       1.0  0.3525020458455971  0.26912797019441825  0.4473462440103403  1.0000
  N   N1        1.0  0.3273056153861731  0.06351836116066069  0.7561899866611053  1.0000
  N   N2        1.0  0.6726941430264192  0.9364822473522949  0.24380841610967957  1.0000
  N   N3        1.0  0.046656050189198994  0.2618556945149634  0.9805895084647456  1.0000
  N   N4        1.0  0.9533437056407481  0.7381449061108967  0.01940972017453648  1.0000
  O   O1        1.0  0.6348370965778614  0.4432700854139425  0.314442126109192  1.0000
  O   O2        1.0  0.3651622910598604  0.5567276016442974  0.6855553973107289  1.0000
  O   O3        1.0  0.928324738550849  0.5021586883304252  0.3695120070633421  1.0000
  O   O4        1.0  0.07167623988331681  0.4978409358572122  0.6304863217915083  1.0000
  O   O5        1.0  0.2781553673415615  0.08302221658765059  0.6568976154280859  1.0000
  O   O6        1.0  0.7218456136752425  0.916977415487082  0.34309988755827436  1.0000
  O   O7        1.0  0.29238010953841354  0.9575356255475784  0.7710407789761078  1.0000
  O   O8        1.0  0.7076183078436246  0.0424650013595311  0.2289565787251603  1.0000
  O   O9        1.0  0.517557179498219  0.6434795138306271  0.5117214503138638  1.0000
  O   O10       1.0  0.4824501384791163  0.3565171127056956  0.488279572800728  1.0000
  O   O11       1.0  0.8112133595270947  0.7045589252745899  0.5797061123590195  1.0000
  O   O12       1.0  0.18879445023409858  0.29544158864759135  0.42029690909188117  1.0000
  O   O13       1.0  0.11108977244822432  0.3590195474929132  0.9661413669996006  1.0000
  O   O14       1.0  0.8889046063463084  0.6409810872741344  0.03385781070408453  1.0000
  O   O15       1.0  0.06951942185082768  0.24702872905656648  0.08225286989821258  1.0000
  O   O16       1.0  0.9304844832450528  0.7529727980921448  0.9177489611980857  1.0000
  O   O17       1.0  0.7173865706853421  0.5193061327280262  0.7287989908438134  1.0000
  O   O18       1.0  0.28261294054399855  0.48069252814844526  0.2711988256930623  1.0000
  O   O19       1.0  0.8692346951535797  0.25034358332156603  0.45591318827785415  1.0000
  O   O20       1.0  0.13076738229317186  0.7496540906096169  0.5440839476756236  1.0000
