data_image0
_chemical_formula_structural       Cd2Co2H28C44N8O18
_chemical_formula_sum              "Cd2 Co2 H28 C44 N8 O18"
_cell_length_a       8.803787725244531
_cell_length_b       9.945556117225024
_cell_length_c       13.939
_cell_angle_alpha    99.96977719258267
_cell_angle_beta     102.63778228961539
_cell_angle_gamma    110.63800669653335

_space_group_name_H-M_alt    "P 1"
_space_group_IT_number       1

loop_
  _space_group_symop_operation_xyz
  'x, y, z'

loop_
  _atom_site_type_symbol
  _atom_site_label
  _atom_site_symmetry_multiplicity
  _atom_site_fract_x
  _atom_site_fract_y
  _atom_site_fract_z
  _atom_site_occupancy
  Cd  Cd1       1.0  0.9445847431221637  0.9087093163124536  0.5994508160003847  1.0000
  Cd  Cd2       1.0  0.055414397390485697  0.091291443155491  0.40054793944799644  1.0000
  Co  Co1       1.0  0.8110439473576391  0.9865262921620824  0.03425174469038687  1.0000
  Co  Co2       1.0  0.1889523475911972  0.0134733501126476  0.9657479143637105  1.0000
  H   H1        1.0  0.2004236951382623  0.5077833062314667  0.267372033337324  1.0000
  H   H2        1.0  0.7995760920420949  0.4922163360432704  0.7326288257001822  1.0000
  H   H3        1.0  0.9269692441448854  0.6970324844265434  0.0735767784070092  1.0000
  H   H4        1.0  0.073028214881127  0.3029671578481938  0.9264244763275259  1.0000
  H   H5        1.0  0.35243587336583454  0.9843544685618326  0.337528275482292  1.0000
  H   H6        1.0  0.6475633964050614  0.015644056519690298  0.6624716566407542  1.0000
  H   H7        1.0  0.2702294794444029  0.5687921102365863  0.44308085257299024  1.0000
  H   H8        1.0  0.7297703077359613  0.431207532038151  0.5569178542297879  1.0000
  H   H9        1.0  0.5807589739509211  0.6588255938376122  0.5921333061930057  1.0000
  H   H10       1.0  0.4192405543364544  0.3411684624710745  0.4078632399867389  1.0000
  H   H11       1.0  0.6409244922841636  0.9471273564180791  0.3999332555930479  1.0000
  H   H12       1.0  0.3590752948962006  0.052872285856658194  0.6000661686213037  1.0000
  H   H13       1.0  0.7270944971182869  0.47650636512418737  0.01301831165596209  1.0000
  H   H14       1.0  0.27290541932031687  0.5234910427641282  0.9869837240562165  1.0000
  H   H15       1.0  0.5844034250460765  0.1679119050772044  0.9464302164249576  1.0000
  H   H16       1.0  0.4155994662145871  0.8320843856178967  0.05357280976774347  1.0000
  H   H17       1.0  0.07418972522278716  0.3069555376079051  0.15358027523914333  1.0000
  H   H18       1.0  0.9258134249308654  0.6930463390532466  0.8464241941650031  1.0000
  H   H19       1.0  0.002752092701229007  0.4133123312003022  0.5832260085209527  1.0000
  H   H20       1.0  0.9972486000398317  0.586691779847271  0.4167740928476604  1.0000
  H   H21       1.0  0.410613226569822  0.8222631401087526  0.7820457938356213  1.0000
  H   H22       1.0  0.5893869487617636  0.1777398537456136  0.21795266320695109  1.0000
  H   H23       1.0  0.434733608483178  0.4023549001965847  0.7934100165187206  1.0000
  H   H24       1.0  0.5652672135161225  0.5976469764645742  0.20658982670139645  1.0000
  H   H25       1.0  0.7334701257343638  0.0303306784584052  0.20578019671171432  1.0000
  H   H26       1.0  0.2665296614460003  0.969668963816332  0.7942185100910635  1.0000
  H   H27       1.0  0.7238577555576808  0.8713403206310204  0.1801131343285007  1.0000
  H   H28       1.0  0.27614151421321503  0.1286582044505025  0.8198860803829646  1.0000
  C   C1        1.0  0.2919547203126811  0.7467844496476559  0.3084818270818914  1.0000
  C   C2        1.0  0.7080432561227994  0.2532163098202886  0.691518919743949  1.0000
  C   C3        1.0  0.18316930773949736  0.6032318253213802  0.24696056262434501  1.0000
  C   C4        1.0  0.8168304794408597  0.3967678169533499  0.7530402964131614  1.0000
  C   C5        1.0  0.05064566548000459  0.5845657611686332  0.1625993425602417  1.0000
  C   C6        1.0  0.9493541217003524  0.4154338811061038  0.8374015164772644  1.0000
  C   C7        1.0  0.02908952882686578  0.7085362229099559  0.13916936246824463  1.0000
  C   C8        1.0  0.9709097409440305  0.291462302171567  0.8608320044779562  1.0000
  C   C9        1.0  0.13909449972837246  0.8519145650954698  0.20204072127202014  1.0000
  C   C10       1.0  0.8609052874519918  0.14808507717926028  0.7979594203539124  1.0000
  C   C11       1.0  0.27168664233730766  0.8726764837101868  0.2873539975915805  1.0000
  C   C12       1.0  0.7283148263297008  0.1273242757577577  0.7126457969829332  1.0000
  C   C13       1.0  0.3930060455333403  0.6600142874130555  0.4573407160883464  1.0000
  C   C14       1.0  0.606995423133661  0.3399864720548891  0.5426590784861675  1.0000
  C   C15       1.0  0.5468256520253547  0.7049343920009008  0.5298592697069395  1.0000
  C   C16       1.0  0.45317594589989324  0.2950641330806221  0.47014026671908493  1.0000
  C   C17       1.0  0.5846453022679867  0.8589528823184978  0.43398903702961894  1.0000
  C   C18       1.0  0.4153568130667296  0.1410467599562395  0.5660107088992845  1.0000
  C   C19       1.0  0.7762723231751921  0.3960729227767317  0.0333970160494843  1.0000
  C   C20       1.0  0.22372694659570408  0.6039256023047983  0.9666057857198782  1.0000
  C   C21       1.0  0.7075744080805606  0.2432911653426117  0.00025966213653559383  1.0000
  C   C22       1.0  0.29242783651239523  0.7567062425457038  0.9997434127017757  1.0000
  C   C23       1.0  0.9590613113394681  0.31047581341263  0.10904972074880706  1.0000
  C   C24       1.0  0.040940157327540305  0.6895249460553146  0.8909536608836035  1.0000
  C   C25       1.0  0.0992644559520101  0.9802755961521114  0.18020925092380927  1.0000
  C   C26       1.0  0.9007319682550659  0.0197218117362041  0.8197923022165414  1.0000
  C   C27       1.0  0.21255894631350705  0.3904836051470752  0.6814570148792428  1.0000
  C   C28       1.0  0.787441358276318  0.6095171543208693  0.31854190142640704  1.0000
  C   C29       1.0  0.12608205443102344  0.4718878883940291  0.6413651304042248  1.0000
  C   C30       1.0  0.87391876756827  0.5281139882671226  0.35863327799273753  1.0000
  C   C31       1.0  0.19539250616352888  0.627412355158711  0.6786170121097543  1.0000
  C   C32       1.0  0.8046083158357645  0.3725895215024408  0.321382113698789  1.0000
  C   C33       1.0  0.35457881457815427  0.7012331308961564  0.752920487327309  1.0000
  C   C34       1.0  0.6454220074211464  0.2987687457649955  0.24707792106965346  1.0000
  C   C35       1.0  0.4416908214989163  0.6210644633394721  0.7943855611680848  1.0000
  C   C36       1.0  0.5583089656814479  0.3789351789352651  0.20561242822310538  1.0000
  C   C37       1.0  0.3697287180408821  0.4651858463272163  0.7587114625335192  1.0000
  C   C38       1.0  0.6302709398812425  0.5348160303339355  0.24128821982932186  1.0000
  C   C39       1.0  0.1272847177799719  0.2243178730571103  0.6501014356081003  1.0000
  C   C40       1.0  0.8727150694003922  0.7756817692176268  0.34989583637151617  1.0000
  C   C41       1.0  0.09534085606072296  0.7139557271716868  0.6455544517488079  1.0000
  C   C42       1.0  0.9046589311196415  0.28604391510305044  0.3544428202308084  1.0000
  C   C43       1.0  0.6021608855599467  0.702787146651275  0.8833657488459112  1.0000
  C   C44       1.0  0.39783709087552677  0.2972136128166696  0.11663356315676773  1.0000
  N   N1        1.0  0.8230109079351919  0.1917639801107995  0.047845256108672574  1.0000
  N   N2        1.0  0.17699120739952423  0.8082356621639376  0.9521580768781279  1.0000
  N   N3        1.0  0.9358590416898803  0.43793973832163857  0.10307325637673162  1.0000
  N   N4        1.0  0.06414139215819138  0.5620587867598912  0.8969282714267524  1.0000
  N   N5        1.0  0.6648010653266282  0.8277474415766619  0.5142136407978768  1.0000
  N   N6        1.0  0.3352000151891517  0.1722499663116537  0.48578568612525436  1.0000
  N   N7        1.0  0.418462029460258  0.7586959636527196  0.39695318642944244  1.0000
  N   N8        1.0  0.581538921797275  0.24130367862201038  0.6030463986421852  1.0000
  O   O1        1.0  0.01703581166366058  0.9583920155545513  0.08587139658529001  1.0000
  O   O2        1.0  0.9829544040063141  0.04160204075413529  0.9141303194404601  1.0000
  O   O3        1.0  0.1386925473200975  0.09658247019807217  0.2499113649561266  1.0000
  O   O4        1.0  0.8613084039374355  0.9034171720766649  0.7500896549386625  1.0000
  O   O5        1.0  0.006251057881755203  0.1544608988287592  0.5653289823774444  1.0000
  O   O6        1.0  0.9937480826309013  0.8455398606391851  0.434669055659356  1.0000
  O   O7        1.0  0.1713771768391652  0.1534140887909814  0.7104036321302019  1.0000
  O   O8        1.0  0.8286209288545549  0.8465844362905415  0.2895947043124139  1.0000
  O   O9        1.0  0.9376263542654896  0.6482357193999775  0.5990424479204322  1.0000
  O   O10       1.0  0.06237382106610308  0.3517672744543816  0.4009581613568686  1.0000
  O   O11       1.0  0.17560910354813328  0.8577630715498401  0.6689345438094068  1.0000
  O   O12       1.0  0.8243917184511673  0.14223880511131168  0.3310624297643941  1.0000
  O   O13       1.0  0.6811672086638936  0.6341624365335576  0.923607227809349  1.0000
  O   O14       1.0  0.31883025036211166  0.3658372057411724  0.07639187469045079  1.0000
  O   O15       1.0  0.6436617171350959  0.8459431673880003  0.9125587812558325  1.0000
  O   O16       1.0  0.35633574189091627  0.1540564748867368  0.0874396038323866  1.0000
  O   O17       1.0  0.6945644662667546  0.9421893624298576  0.14539894207701562  1.0000
  O   O18       1.0  0.3054331220174972  0.057808045458458  0.8546006196858758  1.0000
