data_image0
_chemical_formula_structural       C44F22H22N16Zn4
_chemical_formula_sum              "C44 F22 H22 N16 Zn4"
_cell_length_a       12.992099398897825
_cell_length_b       13.050939090483972
_cell_length_c       14.805704862652165
_cell_angle_alpha    101.12642653257532
_cell_angle_beta     117.15072140612301
_cell_angle_gamma    105.0462438250472

_space_group_name_H-M_alt    "P 1"
_space_group_IT_number       1

loop_
  _space_group_symop_operation_xyz
  'x, y, z'

loop_
  _atom_site_type_symbol
  _atom_site_label
  _atom_site_symmetry_multiplicity
  _atom_site_fract_x
  _atom_site_fract_y
  _atom_site_fract_z
  _atom_site_occupancy
  C   C1        1.0  0.6899020717599882  0.45843618246983886  0.8907220954631968  1.0000
  C   C2        1.0  0.4056521522656879  0.15491528961576506  0.08166052450490473  1.0000
  C   C3        1.0  0.05151383380810141  0.41981891731976606  0.7975868203534445  1.0000
  C   C4        1.0  0.3559196784721906  0.7048808965776203  0.016586963779516933  1.0000
  C   C5        1.0  0.44968306771197303  0.8148850730011289  0.08593139005173363  1.0000
  C   C6        1.0  0.980430514856458  0.3619852183854987  0.8345213806743956  1.0000
  C   C7        1.0  0.4789593962102002  0.5847602038215881  0.2952687703473984  1.0000
  C   C8        1.0  0.9609740386593373  0.790708976800417  0.32327358950884405  1.0000
  C   C9        1.0  0.423717505529467  0.5079400274989894  0.5113491567574685  1.0000
  C   C10       1.0  0.2404209769241703  0.08759287820723215  0.5095349008971511  1.0000
  C   C11       1.0  0.41537961439988874  0.49376849927146066  0.4032419617972209  1.0000
  C   C12       1.0  0.1467363994188489  0.9799021423053276  0.40654085239133775  1.0000
  C   C13       1.0  0.3932435764620903  0.6869002080696088  0.5092161104850917  1.0000
  C   C14       1.0  0.08017604200269789  0.06497531560775362  0.5598863132309191  1.0000
  C   C15       1.0  0.6106830676301696  0.6884836694988008  0.6054618259370345  1.0000
  C   C16       1.0  0.2374155593103353  0.9751747835099207  0.6229756989447637  1.0000
  C   C17       1.0  0.4759696816679621  0.6349594959946285  0.5814248603642868  1.0000
  C   C18       1.0  0.21928123812860875  0.08276338950928858  0.6029762939379139  1.0000
  C   C19       1.0  0.47799415157109587  0.6093884402963423  0.39843227025092187  1.0000
  C   C20       1.0  0.057640966793279215  0.8940415172213605  0.4240948655573791  1.0000
  C   C21       1.0  0.4067758875182717  0.6840754182320408  0.41092197365605193  1.0000
  C   C22       1.0  0.98846608379241  0.9561028986930891  0.46014185908320143  1.0000
  C   C23       1.0  0.33213148248377433  0.19315461354580765  0.8098457538389497  1.0000
  C   C24       1.0  0.5800393706881476  0.6819658395969695  0.7902099185628585  1.0000
  C   C25       1.0  0.6124993368591517  0.6684481115171862  0.5007300741558538  1.0000
  C   C26       1.0  0.14300148090259054  0.8667476090312359  0.5214885791677374  1.0000
  C   C27       1.0  0.4367543413897152  0.9218609297766064  0.10913698696124652  1.0000
  C   C28       1.0  0.8683636900568814  0.368089486707717  0.828555392818494  1.0000
  C   C29       1.0  0.5270300699362309  0.026259773579766915  0.14701062123521794  1.0000
  C   C30       1.0  0.8246190772857531  0.33995267789118305  0.8911379938545779  1.0000
  C   C31       1.0  0.608108717330694  0.23834899561938974  0.18392271457974382  1.0000
  C   C32       1.0  0.7076680890655992  0.35316727658123154  0.9878278973911067  1.0000
  C   C33       1.0  0.3725715077058353  0.5966651826068626  0.6931353436837426  1.0000
  C   C34       1.0  0.31919303996350123  0.30175219811668086  0.7107572953140747  1.0000
  C   C35       1.0  0.7394495462728157  0.3758738310855562  0.9125547952038389  1.0000
  C   C36       1.0  0.5108965770863207  0.13047044555849407  0.1416895649653186  1.0000
  C   C37       1.0  0.29891698161021196  0.18856812106121618  0.7042646215440698  1.0000
  C   C38       1.0  0.47585895742646006  0.6434576650668047  0.6838721438963945  1.0000
  C   C39       1.0  0.5580818813039697  0.7954953104440959  0.10495685344793072  1.0000
  C   C40       1.0  0.062474576927683996  0.3165123322163053  0.896630252698948  1.0000
  C   C41       1.0  0.37929583966921837  0.5087864915190963  0.19080685781046475  1.0000
  C   C42       1.0  0.8911586786050876  0.7848304849056547  0.21589506369375053  1.0000
  C   C43       1.0  0.9003018885808557  0.6799811851231465  0.31493521536015845  1.0000
  C   C44       1.0  0.583490039892915  0.6018718029927186  0.2843259003895327  1.0000
  F   F1        1.0  0.6932154687735803  0.5155100702457956  0.8252019010970173  1.0000
  F   F2        1.0  0.2831639936309358  0.08497750139498808  0.01805815843447793  1.0000
  F   F3        1.0  0.47447204635464857  0.4208503596032428  0.38827299427092765  1.0000
  F   F4        1.0  0.21421736526528415  0.9270380067039238  0.3762324873586635  1.0000
  F   F5        1.0  0.28581472874507324  0.6427121522063927  0.31602314827959077  1.0000
  F   F6        1.0  0.9090326761283192  0.9836256350263922  0.3737514048282905  1.0000
  F   F7        1.0  0.6750528109891503  0.7747469925413524  0.49958628726259496  1.0000
  F   F8        1.0  0.06664496248926327  0.7931720960578513  0.5470961769816186  1.0000
  F   F9        1.0  0.4271375815010429  0.8007819808261586  0.5707595728040928  1.0000
  F   F10       1.0  0.054761046820225076  0.058995661314277394  0.6422741390610014  1.0000
  F   F11       1.0  0.3154723195465365  0.9087369167562187  0.07513052704431544  1.0000
  F   F12       1.0  0.8148117013462081  0.4208668858867026  0.759532743908416  1.0000
  F   F13       1.0  0.7324737074291219  0.2665008022713024  0.24759605596962342  1.0000
  F   F14       1.0  0.7341704201590175  0.2801834198031941  0.03877549501117276  1.0000
  F   F15       1.0  0.6775606863753583  0.8725144650928057  0.16546932506725656  1.0000
  F   F16       1.0  0.04415965422105449  0.252086151145832  0.9526790348328049  1.0000
  F   F17       1.0  0.25603554857121924  0.45943669805010495  0.15406283499844875  1.0000
  F   F18       1.0  0.9066485954701732  0.8662246896819638  0.17406801851799275  1.0000
  F   F19       1.0  0.02272428886814709  0.48225817976084767  0.735102758987196  1.0000
  F   F20       1.0  0.2310043746520806  0.6711091143326796  0.9696421508003185  1.0000
  F   F21       1.0  0.30196175246732077  0.4481457943408386  0.48919871039741036  1.0000
  F   F22       1.0  0.2265964463703795  0.18344375893177295  0.48215273374899686  1.0000
  H   H1        1.0  0.45819317283326194  0.7712401202840338  0.4213431416957293  1.0000
  H   H2        1.0  0.9280500831114719  0.898860988983756  0.4780405948334945  1.0000
  H   H3        1.0  0.48492783066625106  0.4684928851102865  0.5569837032691893  1.0000
  H   H4        1.0  0.33719163753804077  0.09650218874885744  0.5349982334174115  1.0000
  H   H5        1.0  0.3158405147432003  0.4522754513932694  0.3362740368303605  1.0000
  H   H6        1.0  0.0922742903283691  0.005388198612457944  0.3395283925710686  1.0000
  H   H7        1.0  0.2935520381765571  0.6402908997799912  0.4796769488202843  1.0000
  H   H8        1.0  0.0641071943903382  0.13823350737980175  0.5393938836386737  1.0000
  H   H9        1.0  0.6498866356871814  0.7806753072884262  0.6493614688853597  1.0000
  H   H10       1.0  0.22241415408024745  0.9643449748830758  0.6882858253239661  1.0000
  H   H11       1.0  0.6712447759751327  0.6536097104499843  0.6586760211400176  1.0000
  H   H12       1.0  0.33454443482391827  0.9848996842286862  0.6497182718287959  1.0000
  H   H13       1.0  0.6666090963048533  0.6173764817674012  0.49688100805549623  1.0000
  H   H14       1.0  0.19021117577438665  0.8185643663861198  0.4978811564520385  1.0000
  H   H15       1.0  0.32925608278306134  0.12541768275588783  0.842380192739654  1.0000
  H   H16       1.0  0.679810227853842  0.723608207833564  0.8217574539799843  1.0000
  H   H17       1.0  0.6221577629910086  0.03024785269689543  0.17615831527893286  1.0000
  H   H18       1.0  0.8706288753580436  0.29559472598020853  0.9415207826494055  1.0000
  H   H19       1.0  0.27260597799037345  0.5565581908450097  0.6310372363045859  1.0000
  H   H20       1.0  0.3049810577167944  0.3378370594768468  0.6479471993076942  1.0000
  H   H21       1.0  0.9216266031044068  0.6445215440140116  0.3786098689985026  1.0000
  H   H22       1.0  0.6822700575656241  0.6553549656505169  0.34439331447476473  1.0000
  N   N1        1.0  0.6375166304051518  0.48235224652970027  0.947037696521207  1.0000
  N   N2        1.0  0.43678669025654654  0.26268517201940955  0.08798766412162008  1.0000
  N   N3        1.0  0.36762563865027437  0.3005320781754006  0.8734266111919312  1.0000
  N   N4        1.0  0.5423192275778276  0.6579955055800324  0.8573901523578514  1.0000
  N   N5        1.0  0.5674196679275879  0.31695116506945437  0.15378273916146407  1.0000
  N   N6        1.0  0.6487783931559289  0.4148561509378011  0.009248601951355876  1.0000
  N   N7        1.0  0.41266864952390125  0.6050906725887727  0.796692799510602  1.0000
  N   N8        1.0  0.3596584692353986  0.36719005696971146  0.8123962693959684  1.0000
  N   N9        1.0  0.5324223743040689  0.6882132046872157  0.05324542413144692  1.0000
  N   N10       1.0  0.16861969288663653  0.3437151680137233  0.8971911317338909  1.0000
  N   N11       1.0  0.41887727455198126  0.48175296293710795  0.12425088389062476  1.0000
  N   N12       1.0  0.7980251739631468  0.6826556393545002  0.14914916885317114  1.0000
  N   N13       1.0  0.8040916829783596  0.6160140990833439  0.21193294680300323  1.0000
  N   N14       1.0  0.5468220528334982  0.539880183606101  0.1826546210813761  1.0000
  N   N15       1.0  0.16189319659658702  0.410543047062731  0.8337611604499244  1.0000
  N   N16       1.0  0.4031840156566132  0.6300507682137775  0.9960269322854316  1.0000
  Zn  Zn1       1.0  0.6366791918167178  0.6367000851562918  0.0012331552579070994  1.0000
  Zn  Zn2       1.0  0.3385631270564247  0.3392737642968837  0.9946192173627892  1.0000
  Zn  Zn3       1.0  0.6510323171932343  0.46905160672466206  0.147570572938534  1.0000
  Zn  Zn4       1.0  0.32593504067358453  0.505440469183952  0.8509353908119337  1.0000
