data_image0
_chemical_formula_structural       H12Pb4C18O16
_chemical_formula_sum              "H12 Pb4 C18 O16"
_cell_length_a       7.742439279802511
_cell_length_b       7.6454843605256215
_cell_length_c       10.909169983932108
_cell_angle_alpha    69.08545653789317
_cell_angle_beta     69.67472546541775
_cell_angle_gamma    88.08043765729445

_space_group_name_H-M_alt    "P 1"
_space_group_IT_number       1

loop_
  _space_group_symop_operation_xyz
  'x, y, z'

loop_
  _atom_site_type_symbol
  _atom_site_label
  _atom_site_symmetry_multiplicity
  _atom_site_fract_x
  _atom_site_fract_y
  _atom_site_fract_z
  _atom_site_occupancy
  H   H1        1.0  0.2712867543914186  0.9374687211082245  0.43242538354476057  1.0000
  H   H2        1.0  0.7286449373014464  0.06256359267675292  0.5675661385735963  1.0000
  H   H3        1.0  0.3583542625029851  0.352479877722324  0.5937844182402472  1.0000
  H   H4        1.0  0.6416783908613652  0.6475047952280805  0.40621686371300564  1.0000
  H   H5        1.0  0.9277835617154507  0.8930939229166271  0.8506289516264189  1.0000
  H   H6        1.0  0.07221471152265481  0.10692017227445663  0.14937871304532988  1.0000
  H   H7        1.0  0.5086164217812552  0.20856455563119175  0.018624843270188783  1.0000
  H   H8        1.0  0.4914209918087876  0.7914117094440488  0.9813728119466915  1.0000
  H   H9        1.0  0.522689602642643  0.9620077681365304  0.7815972690099713  1.0000
  H   H10       1.0  0.47728123120040067  0.037975388713007915  0.2184017309096546  1.0000
  H   H11       1.0  0.41273344303662174  0.07892389058395113  0.872079791963685  1.0000
  H   H12       1.0  0.587267434683497  0.921059290235121  0.12792669717828875  1.0000
  Pb  Pb1       1.0  0.7195227722320183  0.4918732391172541  0.04853051051192382  1.0000
  Pb  Pb2       1.0  0.28050373767579356  0.5080916955305597  0.9514808192599418  1.0000
  Pb  Pb3       1.0  0.7658580593815286  0.3495534239760688  0.725013389891373  1.0000
  Pb  Pb4       1.0  0.23414747836225303  0.6504480918207209  0.2749819215085764  1.0000
  C   C1        1.0  0.09050998468793378  0.8949113175204249  0.643093464762856  1.0000
  C   C2        1.0  0.9094666891125129  0.10510556863848562  0.35690949425048757  1.0000
  C   C3        1.0  0.23456883970158773  0.9917329958809876  0.516767517242016  1.0000
  C   C4        1.0  0.7653934007630951  0.008289517884755104  0.4832283190916086  1.0000
  C   C5        1.0  0.3265187627143646  0.15922376545503886  0.49714524088360423  1.0000
  C   C6        1.0  0.6734732926185457  0.8407805278062173  0.5028516809674173  1.0000
  C   C7        1.0  0.2836503834660745  0.2239819528656072  0.6080850026935207  1.0000
  C   C8        1.0  0.7163615432370988  0.7760153392745298  0.3919144186598729  1.0000
  C   C9        1.0  0.14308036048755926  0.12459181916034374  0.7362407414623034  1.0000
  C   C10       1.0  0.8569296109992235  0.8754139022886138  0.263758881463495  1.0000
  C   C11       1.0  0.04175836072381862  0.964528212827034  0.7520160062522406  1.0000
  C   C12       1.0  0.958236962204161  0.03548308003675521  0.2479884768170635  1.0000
  C   C13       1.0  0.9905131358408498  0.7182306331211876  0.6597798340030749  1.0000
  C   C14       1.0  0.00946620409602161  0.28178486673470377  0.3402200834856188  1.0000
  C   C15       1.0  0.4656903622652492  0.2736363869001792  0.3569256134779337  1.0000
  C   C16       1.0  0.5343101926719312  0.7263566654547375  0.6430739113591671  1.0000
  C   C17       1.0  0.1000990077303712  0.19448658083965145  0.8552398118509217  1.0000
  C   C18       1.0  0.899920280042373  0.8055163418005126  0.14476103398067852  1.0000
  O   O1        1.0  0.546775960341833  0.3429803200131404  0.9548351365457037  1.0000
  O   O2        1.0  0.45325207716771126  0.6570000997380138  0.045171973193639296  1.0000
  O   O3        1.0  0.8380808675932698  0.6506567511412414  0.7660086168799579  1.0000
  O   O4        1.0  0.16190723313801672  0.34935031895918917  0.23399405807181484  1.0000
  O   O5        1.0  0.5347115833613216  0.025752782187147705  0.8442408739313549  1.0000
  O   O6        1.0  0.46528802614897546  0.9742290514990447  0.15575250246399713  1.0000
  O   O7        1.0  0.056295868311444494  0.6417063835631822  0.5700937067284001  1.0000
  O   O8        1.0  0.94367920436855  0.35832039583321074  0.4298970873948136  1.0000
  O   O9        1.0  0.5430472828595326  0.19523258186579548  0.26909978155852343  1.0000
  O   O10       1.0  0.45692532871777297  0.8047547981044122  0.7308986592502364  1.0000
  O   O11       1.0  0.5015290784284403  0.44940283320389823  0.3275372342986102  1.0000
  O   O12       1.0  0.49850350871342647  0.5505818224566641  0.6724677346771626  1.0000
  O   O13       1.0  0.21964583158283094  0.1831280229129036  0.9126229733299381  1.0000
  O   O14       1.0  0.7803730230156347  0.8168706721947956  0.08737994517525048  1.0000
  O   O15       1.0  0.9473983459676916  0.2648881807535375  0.8910396478518195  1.0000
  O   O16       1.0  0.05262735837767  0.7351245956859813  0.10896087973292615  1.0000
