data_image0
_chemical_formula_structural       Al4H68C64O24
_chemical_formula_sum              "Al4 H68 C64 O24"
_cell_length_a       6.733829206081277
_cell_length_b       20.64851647503842
_cell_length_c       23.501189795509035
_cell_angle_alpha    90.00010678135175
_cell_angle_beta     89.99935993472994
_cell_angle_gamma    89.99981331776631

_space_group_name_H-M_alt    "P 1"
_space_group_IT_number       1

loop_
  _space_group_symop_operation_xyz
  'x, y, z'

loop_
  _atom_site_type_symbol
  _atom_site_label
  _atom_site_symmetry_multiplicity
  _atom_site_fract_x
  _atom_site_fract_y
  _atom_site_fract_z
  _atom_site_occupancy
  Al  Al1       1.0  0.9613812668339395  0.7499890248609306  0.5003782557903163  1.0000
  Al  Al2       1.0  0.5386253680310065  0.25001235874602656  0.0003786169031059  1.0000
  Al  Al3       1.0  0.461380482363957  0.7500115579370429  0.4996253438656736  1.0000
  Al  Al4       1.0  0.03861966303032461  0.24999090812898564  0.9996227350992155  1.0000
  H   H1        1.0  0.06935277376878453  0.4878581388145022  0.8050025305041328  1.0000
  H   H2        1.0  0.43064434313578215  0.5121434319728948  0.3050056810448324  1.0000
  H   H3        1.0  0.5693550577914906  0.012136863519437201  0.19499363338493933  1.0000
  H   H4        1.0  0.9306427253911382  0.9878605724039105  0.6949980006118108  1.0000
  H   H5        1.0  0.9877952348918843  0.5796685680719947  0.7536337688998741  1.0000
  H   H6        1.0  0.5121894859136163  0.420331413170679  0.25363745921534786  1.0000
  H   H7        1.0  0.4878027223407032  0.9203281132734417  0.24636550517375605  1.0000
  H   H8        1.0  0.012195576531027505  0.0796709122052164  0.7463673673763009  1.0000
  H   H9        1.0  0.46008814318755514  0.5697126737413641  0.7521519864587699  1.0000
  H   H10       1.0  0.03990989251273192  0.4302873325486516  0.25215306615534416  1.0000
  H   H11       1.0  0.9600866679203295  0.9302854888964162  0.24784736154209944  1.0000
  H   H12       1.0  0.5399131665835883  0.0697135115210017  0.747845729344064  1.0000
  H   H13       1.0  0.6680255538332391  0.6147937955637488  0.774491891699675  1.0000
  H   H14       1.0  0.8319671284999617  0.3852076826111953  0.27449637322650483  1.0000
  H   H15       1.0  0.16802544311800469  0.8852032135364141  0.22550568237002713  1.0000
  H   H16       1.0  0.3319752896040172  0.11479479929599991  0.725505472741524  1.0000
  H   H17       1.0  0.739367070362896  0.5396107098278763  0.8465255344795036  1.0000
  H   H18       1.0  0.7606312459517498  0.46039237334687755  0.34652862793475947  1.0000
  H   H19       1.0  0.23936500307376463  0.9603876790394356  0.15347184927655624  1.0000
  H   H20       1.0  0.2606241555073582  0.0396111502772314  0.6534729828464518  1.0000
  H   H21       1.0  0.5105587293749283  0.5020788163428948  0.8308291567155875  1.0000
  H   H22       1.0  0.9894417859590025  0.49792471797730553  0.33082914844649736  1.0000
  H   H23       1.0  0.010555559854744004  0.9979212599372218  0.16917096498598735  1.0000
  H   H24       1.0  0.4894358548220482  0.0020776025280114002  0.6691697243836571  1.0000
  H   H25       1.0  0.7363839376693948  0.4568481477167126  0.6557708729009022  1.0000
  H   H26       1.0  0.7636096894254794  0.5431487210795182  0.15577026493106413  1.0000
  H   H27       1.0  0.2363819655473308  0.0431486206071199  0.3442286750004939  1.0000
  H   H28       1.0  0.2636133672959033  0.9568520644215681  0.8442300327199914  1.0000
  H   H29       1.0  0.4983583528784197  0.4844279934738153  0.6732328821865321  1.0000
  H   H30       1.0  0.0016358470986901007  0.5155694246805708  0.17323335323207795  1.0000
  H   H31       1.0  0.9983560931604958  0.015570927815922198  0.32676554133887936  1.0000
  H   H32       1.0  0.5016386668170086  0.984431629334729  0.8267667922658358  1.0000
  H   H33       1.0  0.04174451735975992  0.4351918383687519  0.7469995032388679  1.0000
  H   H34       1.0  0.4582492974996697  0.564809125638483  0.24700351777764942  1.0000
  H   H35       1.0  0.5417465885273388  0.06480464515129822  0.2529963087917365  1.0000
  H   H36       1.0  0.9582515265784155  0.9351943661481245  0.7530022177837095  1.0000
  H   H37       1.0  0.49081430627830275  0.4201304865075954  0.7552563461311264  1.0000
  H   H38       1.0  0.009182103234074602  0.5798704949290466  0.25525520076443087  1.0000
  H   H39       1.0  0.990819567158319  0.0798694111046245  0.24474337404137705  1.0000
  H   H40       1.0  0.5091818935063018  0.9201320042406705  0.7447436480764933  1.0000
  H   H41       1.0  0.0876433134369563  0.4346546293504404  0.6514319396915055  1.0000
  H   H42       1.0  0.9703364646538478  0.49237837303272874  0.6061645909557498  1.0000
  H   H43       1.0  0.23168987976453087  0.4856257253071234  0.6073493404977481  1.0000
  H   H44       1.0  0.11330084579728351  0.5837113389181283  0.6603634907475708  1.0000
  H   H45       1.0  0.25742025247322436  0.5311758155588606  0.7018947696082947  1.0000
  H   H46       1.0  0.412345937899616  0.5653451642519656  0.15143395001111765  1.0000
  H   H47       1.0  0.5296564485282432  0.5076232339734476  0.10616539968646067  1.0000
  H   H48       1.0  0.26829989145681316  0.5143744595039692  0.10735420431586816  1.0000
  H   H49       1.0  0.3866954245260673  0.41628702065214895  0.16036489882906574  1.0000
  H   H50       1.0  0.2425785839793805  0.46882408460304253  0.20189749958368705  1.0000
  H   H51       1.0  0.5876395472752592  0.06534519720457872  0.34856630296788177  1.0000
  H   H52       1.0  0.47032963376137366  0.0076215455743665  0.3938347583511613  1.0000
  H   H53       1.0  0.7316816658033009  0.014373953607574203  0.39264894340556106  1.0000
  H   H54       1.0  0.6132997956596784  0.9162881477572782  0.3396363568660873  1.0000
  H   H55       1.0  0.7574190628010132  0.9688220705104839  0.2981051190480315  1.0000
  H   H56       1.0  0.912361646297008  0.934656437389769  0.8485697804349994  1.0000
  H   H57       1.0  0.029666412906529202  0.9923802128026011  0.8938376496260856  1.0000
  H   H58       1.0  0.768320492845945  0.9856272897809147  0.8926528889673263  1.0000
  H   H59       1.0  0.886697349011975  0.0837115307940692  0.8396376521664093  1.0000
  H   H60       1.0  0.742581455781526  0.03117800463630971  0.7981096909768792  1.0000
  H   H61       1.0  0.8409166218256207  0.36924136993749096  0.7067693559773928  1.0000
  H   H62       1.0  0.6590776557745388  0.6307575437392785  0.2067695964728387  1.0000
  H   H63       1.0  0.340922003153466  0.13075529124041912  0.29323033856318387  1.0000
  H   H64       1.0  0.15907713428725864  0.8692443174984845  0.7932309800442565  1.0000
  H   H65       1.0  0.21155890689970394  0.6653881645890108  0.49158346147554954  1.0000
  H   H66       1.0  0.28845348445504737  0.33461331590164184  0.9915862825752836  1.0000
  H   H67       1.0  0.7115599354512628  0.8346150957389682  0.5084110178914755  1.0000
  H   H68       1.0  0.7884552441801634  0.16538824201676763  0.0084161049920155  1.0000
  C   C1        1.0  0.21227488994048122  0.8275040170213189  0.5767767273584211  1.0000
  C   C2        1.0  0.28772518237354927  0.17249561891176057  0.07676693521641907  1.0000
  C   C3        1.0  0.7122874101209364  0.6724982739905058  0.42323306845582903  1.0000
  C   C4        1.0  0.7877282079502168  0.3275064240460779  0.9232329012302497  1.0000
  C   C5        1.0  0.21009093157664444  0.8271561307827611  0.4227615489850577  1.0000
  C   C6        1.0  0.289899344386086  0.1728452043828028  0.922761121554721  1.0000
  C   C7        1.0  0.7101350544187074  0.6728442252549414  0.5772376148522935  1.0000
  C   C8        1.0  0.7898769948811338  0.32715925784151534  0.07723913463815527  1.0000
  C   C9        1.0  0.9565181408555293  0.5358169809541522  0.7284052646305877  1.0000
  C   C10       1.0  0.5434751526548924  0.4641824627098927  0.22840681607026161  1.0000
  C   C11       1.0  0.45651660202166516  0.9641807010465016  0.2715940928936504  1.0000
  C   C12       1.0  0.043485004487379804  0.0358188620033459  0.7715966505238255  1.0000
  C   C13       1.0  0.618335178235114  0.5659142680214514  0.7627695325572857  1.0000
  C   C14       1.0  0.8816610073846862  0.4340862168028466  0.26277225987386277  1.0000
  C   C15       1.0  0.11833699873999853  0.934082792011438  0.23723072713086413  1.0000
  C   C16       1.0  0.38166320070849485  0.0659157298769486  0.7372298790439584  1.0000
  C   C17       1.0  0.652292697596643  0.5176067159463288  0.8120516332507604  1.0000
  C   C18       1.0  0.8477012465551188  0.48239677872598447  0.31205325408468804  1.0000
  C   C19       1.0  0.1522962598786179  0.9823932150567316  0.18794725931801534  1.0000
  C   C20       1.0  0.34769578578970356  0.017606655653366898  0.687948124418099  1.0000
  C   C21       1.0  0.7849906333290947  0.3721962692226057  0.876238299676089  1.0000
  C   C22       1.0  0.7150122719518354  0.6278049394999101  0.3762320034527561  1.0000
  C   C23       1.0  0.2849903876788816  0.12780383935725578  0.12376409713051825  1.0000
  C   C24       1.0  0.21501200240075502  0.872197832995106  0.6237645942549291  1.0000
  C   C25       1.0  0.7351467165777452  0.5432548969085077  0.7094882259276358  1.0000
  C   C26       1.0  0.7648474373256778  0.4567440225114723  0.2094900256014539  1.0000
  C   C27       1.0  0.23514587934544556  0.9567425276926612  0.29051044561571615  1.0000
  C   C28       1.0  0.2648533817991848  0.0432575595988709  0.7905111484028989  1.0000
  C   C29       1.0  0.9724148748877826  0.4768214936856909  0.7686495403344721  1.0000
  C   C30       1.0  0.5275780732345652  0.5231780349639977  0.26865165672656127  1.0000
  C   C31       1.0  0.4724197285071058  0.0231730955231839  0.23134725034567782  1.0000
  C   C32       1.0  0.027580738401752607  0.9768258982432483  0.7313522491613396  1.0000
  C   C33       1.0  0.7650970715768821  0.4565819125555279  0.7907461283008954  1.0000
  C   C34       1.0  0.7348963566606913  0.5434200842327144  0.2907438953298254  1.0000
  C   C35       1.0  0.26510420580995503  0.043415794925742504  0.20925291748087452  1.0000
  C   C36       1.0  0.23489726598309354  0.9565865422573413  0.7092581809696197  1.0000
  C   C37       1.0  0.6435211852780541  0.4280878646616487  0.7401135113974604  1.0000
  C   C38       1.0  0.8564760308891268  0.5719120880183509  0.2401122774895156  1.0000
  C   C39       1.0  0.14352720689305443  0.07190996743107549  0.2598854332028749  1.0000
  C   C40       1.0  0.35647493214658255  0.9280905394858296  0.7598881979407537  1.0000
  C   C41       1.0  0.647748479802495  0.47715380487837683  0.6905611613090695  1.0000
  C   C42       1.0  0.8522450499723108  0.5228455588666278  0.19056028349098136  1.0000
  C   C43       1.0  0.14774830009046275  0.0228445071809844  0.30943777202280387  1.0000
  C   C44       1.0  0.35224861512600114  0.977156588674582  0.8094393521988934  1.0000
  C   C45       1.0  0.778253717613069  0.40986285935019134  0.8365867301613432  1.0000
  C   C46       1.0  0.7217480208580371  0.5901450457949053  0.33658716218619117  1.0000
  C   C47       1.0  0.2782490881942651  0.0901430676853749  0.16340887646198604  1.0000
  C   C48       1.0  0.2217514986779109  0.9098625627589954  0.6634111195930428  1.0000
  C   C49       1.0  0.7171636913050679  0.5899918716386664  0.6637314560627627  1.0000
  C   C50       1.0  0.7828310587140239  0.41000404537737717  0.16373313088861605  1.0000
  C   C51       1.0  0.21715828624004987  0.9100036342161815  0.336271518562043  1.0000
  C   C52       1.0  0.2828522589788208  0.08999897118275162  0.8362692716528668  1.0000
  C   C53       1.0  0.7103911198593524  0.6283514903011278  0.6245726281756915  1.0000
  C   C54       1.0  0.7896276866444014  0.3716433754244051  0.12458102997472045  1.0000
  C   C55       1.0  0.21036948037333056  0.8716454753826995  0.37542100331095435  1.0000
  C   C56       1.0  0.28963185894659926  0.12835430692069144  0.8754230564952507  1.0000
  C   C57       1.0  0.11251653083988346  0.535758278964245  0.6806926358659522  1.0000
  C   C58       1.0  0.09820356154033764  0.48416566879189576  0.6342477299704254  1.0000
  C   C59       1.0  0.3874832699398711  0.46424351360882815  0.18069497174563753  1.0000
  C   C60       1.0  0.4017938965660905  0.5158340885183607  0.13425011252678584  1.0000
  C   C61       1.0  0.6125099691374275  0.9642412085169809  0.3193063628266301  1.0000
  C   C62       1.0  0.5981935858187769  0.0158336626456475  0.3657500590149567  1.0000
  C   C63       1.0  0.8874881001558779  0.0357589114005279  0.8193092791889  1.0000
  C   C64       1.0  0.9018023710984837  0.9841665553490911  0.8657527950570767  1.0000
  O   O1        1.0  0.38028945427529254  0.8100366732691671  0.4411327181762913  1.0000
  O   O2        1.0  0.11973414214529046  0.189970027926293  0.9411255392248347  1.0000
  O   O3        1.0  0.88028671387346  0.6899756157712672  0.5588842886416572  1.0000
  O   O4        1.0  0.6197246851998132  0.3100283128619381  0.05888325559167378  1.0000
  O   O5        1.0  0.04237206753119692  0.8100011324173482  0.5584748874904617  1.0000
  O   O6        1.0  0.4576214117597603  0.190002339251329  0.05847488314864789  1.0000
  O   O7        1.0  0.5423820896151029  0.6900066599787352  0.44151536259304425  1.0000
  O   O8        1.0  0.9576267567116976  0.30999710807900277  0.9415181174059409  1.0000
  O   O9        1.0  0.04110500441407081  0.8104145991801842  0.44205695392386696  1.0000
  O   O10       1.0  0.45890815451741673  0.1895819337609126  0.9420599327854615  1.0000
  O   O11       1.0  0.5411201313086594  0.6895675268030246  0.5579281933874042  1.0000
  O   O12       1.0  0.9589031915324002  0.3104276824753073  0.05793051129637659  1.0000
  O   O13       1.0  0.8810244530599011  0.6895953200973395  0.44267102223686533  1.0000
  O   O14       1.0  0.6189828558174854  0.3104031231366092  0.9426682984628698  1.0000
  O   O15       1.0  0.3810263593431174  0.8103980806188745  0.5573336427978217  1.0000
  O   O16       1.0  0.11896123174375363  0.18960006138275534  0.05733283919137478  1.0000
  O   O17       1.0  0.21140106540964618  0.7113106009440101  0.49993031089900325  1.0000
  O   O18       1.0  0.2886050062122011  0.2886889599886331  0.9999309285009087  1.0000
  O   O19       1.0  0.7114014634894448  0.7886883008857238  0.5000701260315521  1.0000
  O   O20       1.0  0.7886037003771877  0.21131308207008465  6.933111480829998e-05  1.0000
  O   O21       1.0  0.7080067581338769  0.36529153443756  0.7228299934718975  1.0000
  O   O22       1.0  0.7919882740771415  0.6347083817444528  0.2228277583489272  1.0000
  O   O23       1.0  0.20801282906116117  0.13470574726502346  0.2771704811415815  1.0000
  O   O24       1.0  0.29199000890049837  0.8652938275580412  0.7771711870693846  1.0000
