data_image0
_chemical_formula_structural       Cd2H36C56N8O8
_chemical_formula_sum              "Cd2 H36 C56 N8 O8"
_cell_length_a       9.243063871215385
_cell_length_b       11.489911987834716
_cell_length_c       13.159085492074999
_cell_angle_alpha    73.81701552371726
_cell_angle_beta     70.9350100469911
_cell_angle_gamma    65.87035568091503

_space_group_name_H-M_alt    "P 1"
_space_group_IT_number       1

loop_
  _space_group_symop_operation_xyz
  'x, y, z'

loop_
  _atom_site_type_symbol
  _atom_site_label
  _atom_site_symmetry_multiplicity
  _atom_site_fract_x
  _atom_site_fract_y
  _atom_site_fract_z
  _atom_site_occupancy
  Cd  Cd1       1.0  0.9676180740284865  0.341676903626137  0.2575282913948059  1.0000
  Cd  Cd2       1.0  0.032380361839337  0.6583296184687413  0.742470126379004  1.0000
  H   H1        1.0  0.8803385778277573  0.5983391909736753  0.06557314567230325  1.0000
  H   H2        1.0  0.11965577132871642  0.40166073243491934  0.9344254084058505  1.0000
  H   H3        1.0  0.644818807378762  0.779681362371889  0.004151397381477355  1.0000
  H   H4        1.0  0.35517133547968893  0.22032532075467506  0.9958548377312937  1.0000
  H   H5        1.0  0.35860160054411955  0.8003821087363931  0.12222273308357506  1.0000
  H   H6        1.0  0.6413872138100913  0.19961696166265594  0.8777817651367956  1.0000
  H   H7        1.0  0.32690680674595285  0.6388310473940776  0.2918085916520711  1.0000
  H   H8        1.0  0.6730894787506473  0.36116115618980155  0.7081936333878786  1.0000
  H   H9        1.0  0.31707526365605077  0.4766421716664269  0.4049173612052428  1.0000
  H   H10       1.0  0.6829229671957648  0.5233433324898938  0.595076132022136  1.0000
  H   H11       1.0  0.5908622877833238  0.16845374427229834  0.6188410512618177  1.0000
  H   H12       1.0  0.4091354274733947  0.8315460853683587  0.3811598453207169  1.0000
  H   H13       1.0  0.809072632329972  0.0939316443739244  0.6676437540365683  1.0000
  H   H14       1.0  0.19093577276449733  0.9060535884755512  0.33235446769160154  1.0000
  H   H15       1.0  0.0918026682643499  0.9747500874602364  0.6916910975246042  1.0000
  H   H16       1.0  0.908212993640788  0.025221652766191493  0.30829200308280497  1.0000
  H   H17       1.0  0.32606645549960683  0.014344941357499901  0.5432127775060778  1.0000
  H   H18       1.0  0.6739420092378766  0.9856413185537534  0.45677150877281053  1.0000
  H   H19       1.0  0.2653015751215762  0.1704520539526939  0.3704329674513431  1.0000
  H   H20       1.0  0.7346902000087426  0.8295622818891815  0.6295658085043813  1.0000
  H   H21       1.0  0.3835458532084459  0.1795699558022932  0.7315616938920898  1.0000
  H   H22       1.0  0.6164562504381198  0.8204326143556314  0.26844370452233335  1.0000
  H   H23       1.0  0.12539507604657982  0.42368531587889174  0.48373804220862127  1.0000
  H   H24       1.0  0.8745930131603571  0.5762984254546027  0.5162739953918063  1.0000
  H   H25       1.0  0.11627094151763373  0.17523034637270735  0.85353774007487  1.0000
  H   H26       1.0  0.8837385205533506  0.8247595847891205  0.14647207966898182  1.0000
  H   H27       1.0  0.8632707398282735  0.30657044711814047  0.7890389245734469  1.0000
  H   H28       1.0  0.13672931709271552  0.6934063034870519  0.2109737077399174  1.0000
  H   H29       1.0  0.2662474446215131  0.9872403471662633  0.017220092953330452  1.0000
  H   H30       1.0  0.7337637693652468  0.012760131132132802  0.9827770045349169  1.0000
  H   H31       1.0  0.742930214533267  0.148441318593143  0.0998654369988827  1.0000
  H   H32       1.0  0.25710091963322423  0.8515462057734948  0.9001380294102791  1.0000
  H   H33       1.0  0.5696230056788991  0.3269622223974834  0.15724340334154624  1.0000
  H   H34       1.0  0.430372538185395  0.6730635873645312  0.8427389617366927  1.0000
  H   H35       1.0  0.21092849537631517  0.6081990072679061  0.9876036139646872  1.0000
  H   H36       1.0  0.7890614904608956  0.39182984430907203  0.012371627407560457  1.0000
  C   C1        1.0  0.7551813471101807  0.6117929512761364  0.11297275186281303  1.0000
  C   C2        1.0  0.24480974657487317  0.38820893992448874  0.8870305993867689  1.0000
  C   C3        1.0  0.6223906199721795  0.7129974427784943  0.07978117798635516  1.0000
  C   C4        1.0  0.3775996816960189  0.28700638258229816  0.920221890512984  1.0000
  C   C5        1.0  0.4660851523993087  0.7232229857522723  0.14490622365735828  1.0000
  C   C6        1.0  0.5339065998068122  0.27677983238628195  0.855099810618441  1.0000
  C   C7        1.0  0.447645341478335  0.6327255247743865  0.23950566461059003  1.0000
  C   C8        1.0  0.552351862604965  0.3672647613109206  0.7604930114923363  1.0000
  C   C9        1.0  0.5869341947431013  0.5338656345558233  0.26685055248528766  1.0000
  C   C10       1.0  0.4130667094160785  0.4661340779906879  0.7331580509638087  1.0000
  C   C11       1.0  0.5774529804271182  0.4340703479635053  0.36664377026505696  1.0000
  C   C12       1.0  0.4225457432100797  0.5659218186561858  0.6333541411906725  1.0000
  C   C13       1.0  0.4307213377660233  0.41657046457519425  0.4292008542229837  1.0000
  C   C14       1.0  0.5692746991270495  0.5834303422968501  0.5708039736201728  1.0000
  C   C15       1.0  0.4312547803240747  0.3214783984531167  0.5234294913615543  1.0000
  C   C16       1.0  0.5687425458501563  0.6785195205079546  0.47657269525715423  1.0000
  C   C17       1.0  0.5828566942341523  0.24542612750855847  0.5484939385037464  1.0000
  C   C18       1.0  0.4171413986429615  0.7545698539600351  0.45150929720265526  1.0000
  C   C19       1.0  0.7245172889040746  0.2683975525440161  0.48272464414975497  1.0000
  C   C20       1.0  0.275479540005847  0.7316013201678685  0.5172804664436442  1.0000
  C   C21       1.0  0.8890268271206666  0.1929280067109858  0.5047163956208678  1.0000
  C   C22       1.0  0.11097141764026491  0.8070679947515057  0.4952822420608102  1.0000
  C   C23       1.0  0.9121538106432536  0.10847291200278872  0.60263565268653  1.0000
  C   C24       1.0  0.08785537261619689  0.8915161422058661  0.397359988969299  1.0000
  C   C25       1.0  0.07024147888048297  0.0425006908321777  0.617044718947291  1.0000
  C   C26       1.0  0.9297705499328472  0.9574768653583516  0.38294083970767906  1.0000
  C   C27       1.0  0.20116472600994237  0.0632154523553794  0.5340189193522917  1.0000
  C   C28       1.0  0.7988421824548199  0.9367794176630324  0.46597280870300034  1.0000
  C   C29       1.0  0.16963675012105037  0.14788177225109678  0.4383952767458155  1.0000
  C   C30       1.0  0.830359245159166  0.8521200483534623  0.5615986809978751  1.0000
  C   C31       1.0  0.27307069533357964  0.23164330894409343  0.7016239185117783  1.0000
  C   C32       1.0  0.72692626951914  0.7683574411242162  0.2983875654199864  1.0000
  C   C33       1.0  0.2780833742501941  0.30569704939175313  0.5966008823402689  1.0000
  C   C34       1.0  0.7219122918911791  0.694288475067168  0.4034007561585968  1.0000
  C   C35       1.0  0.1283186704730568  0.36935102897114547  0.5660162786873572  1.0000
  C   C36       1.0  0.8716765767929361  0.630640197690056  0.43399475838818086  1.0000
  C   C37       1.0  0.12393479215038641  0.22938780818701324  0.7709282379935374  1.0000
  C   C38       1.0  0.8760666806788538  0.7706023239943035  0.22908020303983528  1.0000
  C   C39       1.0  0.9824344092097446  0.301782658826113  0.7340678091084599  1.0000
  C   C40       1.0  0.01756137448639816  0.6982018618972531  0.26594240047750634  1.0000
  C   C41       1.0  0.01168025836490472  0.15567538929597896  0.13621231902268963  1.0000
  C   C42       1.0  0.9883180533800909  0.8443358545918257  0.8637987040527266  1.0000
  C   C43       1.0  0.005433961868412493  0.07465434410153189  0.0663588168764093  1.0000
  C   C44       1.0  0.9945885592794209  0.9253505711993313  0.9336523081159528  1.0000
  C   C45       1.0  0.15023155368841407  0.9907734626946051  0.009873939899563377  1.0000
  C   C46       1.0  0.8497814655897075  0.009226895331686096  0.9901380024408013  1.0000
  C   C47       1.0  0.8549060274344598  0.0832417208219596  0.055809731532718815  1.0000
  C   C48       1.0  0.14511880283710363  0.9167584023986136  0.944192137948356  1.0000
  C   C49       1.0  0.2477950271871095  0.4172892827552984  0.16457659360474247  1.0000
  C   C50       1.0  0.7522141929628817  0.5827380392883652  0.8354192158170479  1.0000
  C   C51       1.0  0.37690477861254135  0.46334443075092213  0.08133270481858551  1.0000
  C   C52       1.0  0.6230877559940923  0.5366862578859752  0.9186453626452574  1.0000
  C   C53       1.0  0.540079336797632  0.4023170478198138  0.0878472374461978  1.0000
  C   C54       1.0  0.45991481408261614  0.5977068980694041  0.912132060591965  1.0000
  C   C55       1.0  0.33761060786118713  0.5617822432142743  0.9931072740908747  1.0000
  C   C56       1.0  0.6623810057117298  0.43824562446668835  0.006865568695651847  1.0000
  N   N1        1.0  0.7376347047789765  0.5255089920550374  0.20410202207854405  1.0000
  N   N2        1.0  0.26235926222094014  0.4744861429142874  0.7958992534470681  1.0000
  N   N3        1.0  0.7192145980316056  0.3616581544036491  0.39467693206194815  1.0000
  N   N4        1.0  0.2807743522654036  0.6383427933518175  0.6053339394967878  1.0000
  N   N5        1.0  0.017632428503574726  0.21014890158236446  0.4244142785472818  1.0000
  N   N6        1.0  0.9823628531487146  0.7898596016338145  0.5755858710481476  1.0000
  N   N7        1.0  0.9834581052862248  0.3688744806642177  0.6325577955043897  1.0000
  N   N8        1.0  0.01653823322808992  0.6311062152132862  0.3674493888432693  1.0000
  O   O1        1.0  0.14846599869807867  0.1515861099658977  0.14065675040933462  1.0000
  O   O2        1.0  0.8515343804930566  0.848426067370113  0.8593490513692928  1.0000
  O   O3        1.0  0.8736996341953971  0.22578268861269635  0.1890208215914057  1.0000
  O   O4        1.0  0.12627688330592687  0.7742070763690236  0.8109907626711959  1.0000
  O   O5        1.0  0.10817371773792672  0.4597400597551554  0.14023248547106704  1.0000
  O   O6        1.0  0.8918360803405889  0.5402470369671235  0.8597688032971789  1.0000
  O   O7        1.0  0.27888670606028404  0.339704938288392  0.24995940479465162  1.0000
  O   O8        1.0  0.7211321381075849  0.6603508267311325  0.7500413794266336  1.0000
