data_image0
_chemical_formula_structural       Al2H36C48N12O12
_chemical_formula_sum              "Al2 H36 C48 N12 O12"
_cell_length_a       3.9409410661662956
_cell_length_b       28.981269323046146
_cell_length_c       28.981315964601823
_cell_angle_alpha    119.99515122216282
_cell_angle_beta     89.99933383885686
_cell_angle_gamma    90.00093130583356

_space_group_name_H-M_alt    "P 1"
_space_group_IT_number       1

loop_
  _space_group_symop_operation_xyz
  'x, y, z'

loop_
  _atom_site_type_symbol
  _atom_site_label
  _atom_site_symmetry_multiplicity
  _atom_site_fract_x
  _atom_site_fract_y
  _atom_site_fract_z
  _atom_site_occupancy
  Al  Al1       1.0  0.9999373470465684  0.5000057024706096  0.49999139320949854  1.0000
  Al  Al2       1.0  0.9999581715919919  0.16665554159665422  0.8333446220636276  1.0000
  H   H1        1.0  0.2272265376799041  0.1754559224115227  0.6960368653767901  1.0000
  H   H2        1.0  0.7725382559572012  0.303949342867405  0.8245465058968976  1.0000
  H   H3        1.0  0.7722984393632472  0.3626909835496478  0.5087867697061556  1.0000
  H   H4        1.0  0.2274136998800387  0.49123260527758106  0.6373043244988637  1.0000
  H   H5        1.0  0.2272135211106487  0.02055336937507243  0.8245466289906744  1.0000
  H   H6        1.0  0.7724784788161756  0.020586138536387664  0.6960477351409365  1.0000
  H   H7        1.0  0.7724064296802595  0.6460882862403708  0.6373025058337235  1.0000
  H   H8        1.0  0.22744193960821243  0.6460929107767228  0.5087726337674922  1.0000
  H   H9        1.0  0.2272343503547702  0.30396609573656963  0.9794309520021471  1.0000
  H   H10       1.0  0.7725410571336299  0.17545421479627538  0.9794266112659783  1.0000
  H   H11       1.0  0.77225757902972  0.49122682172765764  0.35389079609657165  1.0000
  H   H12       1.0  0.2274261850976274  0.3626989673307719  0.35392542184458625  1.0000
  H   H13       1.0  0.8220812625401667  0.380929267906467  0.7563394384056823  1.0000
  H   H14       1.0  0.9560853038726763  0.3769212733517762  0.8097128688056686  1.0000
  H   H15       1.0  0.17756715486082442  0.24370988683440956  0.6191015969676031  1.0000
  H   H16       1.0  0.0435782622571139  0.1903274725425561  0.6230914789094513  1.0000
  H   H17       1.0  0.17775670415691994  0.42303082241600987  0.7142867358324524  1.0000
  H   H18       1.0  0.043890792383088205  0.4764115351243207  0.7102811891197761  1.0000
  H   H19       1.0  0.8216455187380234  0.2857225748274389  0.5770072051753986  1.0000
  H   H20       1.0  0.9556231549541822  0.2897137898782134  0.5236209973198669  1.0000
  H   H21       1.0  0.822040033864603  0.8754092081264062  0.6190716785180826  1.0000
  H   H22       1.0  0.9560390313125495  0.9327927807589734  0.6230812873693242  1.0000
  H   H23       1.0  0.17745332751899667  0.8753760863540095  0.756293787406307  1.0000
  H   H24       1.0  0.0435045075134113  0.93274143514752  0.8096744751288086  1.0000
  H   H25       1.0  0.1779113934020415  0.7912682697626323  0.5769766375049415  1.0000
  H   H26       1.0  0.044025707877096906  0.7338946018253766  0.5235951831431791  1.0000
  H   H27       1.0  0.8218291107931394  0.7912668700017209  0.7142724657197024  1.0000
  H   H28       1.0  0.9558067163160331  0.7338888232205746  0.7102767675820446  1.0000
  H   H29       1.0  0.8221532029012691  0.24366203110344034  0.12460220520151213  1.0000
  H   H30       1.0  0.9561099937549571  0.1902881762258275  0.06722589611441523  1.0000
  H   H31       1.0  0.17758135503801506  0.38090239374741935  0.12460854529991396  1.0000
  H   H32       1.0  0.043597299443845806  0.37691141445573356  0.06723687700856126  1.0000
  H   H33       1.0  0.1777685676607419  0.28572791692953814  0.20875090810212532  1.0000
  H   H34       1.0  0.04388766876785869  0.28972761898699423  0.2661316797842019  1.0000
  H   H35       1.0  0.8215945748228253  0.42301380554450674  0.20871089607240387  1.0000
  H   H36       1.0  0.9555687135701801  0.47639889000460295  0.2660809211188777  1.0000
  C   C1        1.0  0.4999455577800376  0.4589140180956974  0.4178138178352953  1.0000
  C   C2        1.0  0.49992871868077776  0.45892037261017293  0.5410908670091601  1.0000
  C   C3        1.0  0.4999559324831111  0.5821839675323304  0.5410772599037871  1.0000
  C   C4        1.0  0.4999543830386983  0.20773429426478177  0.7922368045765893  1.0000
  C   C5        1.0  0.4999373186718828  0.0844745148194548  0.792269367827572  1.0000
  C   C6        1.0  0.4999426196030328  0.20776021272698855  0.9155246520089123  1.0000
  C   C7        1.0  0.4999291322429258  0.23738670960990058  0.7626010457743604  1.0000
  C   C8        1.0  0.348874238294087  0.21425392458655787  0.7122869821552413  1.0000
  C   C9        1.0  0.35408613225256863  0.24118304291445725  0.6835493351534224  1.0000
  C   C10       1.0  0.49990621293702736  0.2930168350916915  0.7070028414720895  1.0000
  C   C11       1.0  0.6456197093798508  0.3164642750741181  0.7588412285292138  1.0000
  C   C12       1.0  0.6509103420266629  0.2877056443217045  0.7857497485855661  1.0000
  C   C13       1.0  0.4998960467388471  0.3211039298636394  0.6789227375329362  1.0000
  C   C14       1.0  0.49988809460487  0.3455900019231493  0.6544477850153783  1.0000
  C   C15       1.0  0.4998779287329782  0.3736778834792531  0.6263593037593367  1.0000
  C   C16       1.0  0.6454197379638772  0.3502029031152888  0.5745140797527668  1.0000
  C   C17       1.0  0.6507458586548865  0.37894844717962434  0.5475896688620594  1.0000
  C   C18       1.0  0.49990322049270464  0.42927846821497434  0.5707347461873127  1.0000
  C   C19       1.0  0.3489414191371126  0.4524280835400631  0.6210553113970577  1.0000
  C   C20       1.0  0.3542219433003524  0.42551784447102403  0.6498134164843705  1.0000
  C   C21       1.0  0.49990708039266707  0.025193101513558313  0.7626143588361033  1.0000
  C   C22       1.0  0.3488598991957091  0.9980092131936406  0.7857471635023076  1.0000
  C   C23       1.0  0.3540620250323059  0.9423503193466802  0.7588201667784349  1.0000
  C   C24       1.0  0.4998877548204915  0.9139697016580967  0.7069860492876002  1.0000
  C   C25       1.0  0.6455964523133346  0.9423693308986432  0.6835397433197771  1.0000
  C   C26       1.0  0.6508511580987743  0.9980266051679082  0.7122935428183937  1.0000
  C   C27       1.0  0.49990838822079553  0.8578159945827649  0.6789060257714327  1.0000
  C   C28       1.0  0.4999191539407093  0.8088510654771424  0.6544192577298845  1.0000
  C   C29       1.0  0.4999321742535018  0.7526790287469397  0.6263292718112652  1.0000
  C   C30       1.0  0.6455168463617086  0.7243054535635879  0.6498000225649535  1.0000
  C   C31       1.0  0.650820531815519  0.6686404339250204  0.6210512127544021  1.0000
  C   C32       1.0  0.49994303414263197  0.6414649332872528  0.5707230557449919  1.0000
  C   C33       1.0  0.34899154545951916  0.6686403363514088  0.5475761792962643  1.0000
  C   C34       1.0  0.35429706313605897  0.7243090161418378  0.5744906344300134  1.0000
  C   C35       1.0  0.49994482294798104  0.23740125622842378  0.9748047543751215  1.0000
  C   C36       1.0  0.34889467037800864  0.2877175223839857  0.001980471902669544  1.0000
  C   C37       1.0  0.35410382302001864  0.3164543095963737  0.05764294101354045  1.0000
  C   C38       1.0  0.49990936508057626  0.2930007820266951  0.08602616344185786  1.0000
  C   C39       1.0  0.6456365656873615  0.24116210633957993  0.057641057814741735  1.0000
  C   C40       1.0  0.6509199333002229  0.21425326817993803  0.00197927899218806  1.0000
  C   C41       1.0  0.49991412353065817  0.32108191862039354  0.14218487758468973  1.0000
  C   C42       1.0  0.4998783231327479  0.3455651830114447  0.19114702113948567  1.0000
  C   C43       1.0  0.49987293171697905  0.3736532446326848  0.24731744158652455  1.0000
  C   C44       1.0  0.6453883519698564  0.42550037664332774  0.2756811051779665  1.0000
  C   C45       1.0  0.6507242759383162  0.4524218880718395  0.33134677650477334  1.0000
  C   C46       1.0  0.49990529235771664  0.42927079757876635  0.35853313226657246  1.0000
  C   C47       1.0  0.34895212985914265  0.3789502684018728  0.3313685606246821  1.0000
  C   C48       1.0  0.3542150943049194  0.3501946804983973  0.2757028150885291  1.0000
  N   N1        1.0  0.7685188578095249  0.36825156978283524  0.7825427165236222  1.0000
  N   N2        1.0  0.2311539813682373  0.21749732825755067  0.6317642987553569  1.0000
  N   N3        1.0  0.23139299825528786  0.44922773033498226  0.7016038482097429  1.0000
  N   N4        1.0  0.7681066012542674  0.2984071421940087  0.5508073625310317  1.0000
  N   N5        1.0  0.7684708264878425  0.914287125983556  0.6317494682858753  1.0000
  N   N6        1.0  0.2310611102504154  0.9142444704440892  0.7825040405826159  1.0000
  N   N7        1.0  0.23152673067495752  0.7523933283441409  0.5507791981617488  1.0000
  N   N8        1.0  0.7682462461989135  0.7523832257535333  0.7015906955859564  1.0000
  N   N9        1.0  0.7685440197469762  0.2174606910536312  0.08572701887765528  1.0000
  N   N10       1.0  0.2311706773577455  0.3682409151105047  0.0857364822107058  1.0000
  N   N11       1.0  0.23140997932565455  0.29840567634626325  0.24762674796618717  1.0000
  N   N12       1.0  0.7680542232961117  0.4492123887220244  0.24759224344676056  1.0000
  O   O1        1.0  0.7349666453578861  0.5585374619561563  0.5516535787461906  1.0000
  O   O2        1.0  0.7349692263607396  0.4931360311139984  0.44145052597807694  1.0000
  O   O3        1.0  0.7349543605928587  0.4483395208491033  0.5068683063120575  1.0000
  O   O4        1.0  0.2649484389165266  0.5585448022815171  0.50685152760542  1.0000
  O   O5        1.0  0.2649229615776321  0.4931455039230956  0.5516685341732172  1.0000
  O   O6        1.0  0.2649343099976845  0.44833532507461626  0.44146258749429995  1.0000
  O   O7        1.0  0.7349589664906376  0.1735359134651092  0.8918869818969668  1.0000
  O   O8        1.0  0.7349915938746038  0.2183146917586072  0.8264586414898857  1.0000
  O   O9        1.0  0.7349818461651054  0.10811943865597586  0.7816900024235665  1.0000
  O   O10       1.0  0.26494176392910174  0.2183371975217056  0.8918732482528924  1.0000
  O   O11       1.0  0.2649225592401904  0.10812017448574805  0.8264966842849971  1.0000
  O   O12       1.0  0.2649429616922206  0.17350882038138582  0.7816606580511234  1.0000
