data_image0
_chemical_formula_structural       Ag2H36C26N8O6
_chemical_formula_sum              "Ag2 H36 C26 N8 O6"
_cell_length_a       6.623854301945017
_cell_length_b       10.638245908953369
_cell_length_c       10.742169540298542
_cell_angle_alpha    87.25472559042719
_cell_angle_beta     108.04240455568542
_cell_angle_gamma    90.00491043068008

_space_group_name_H-M_alt    "P 1"
_space_group_IT_number       1

loop_
  _space_group_symop_operation_xyz
  'x, y, z'

loop_
  _atom_site_type_symbol
  _atom_site_label
  _atom_site_symmetry_multiplicity
  _atom_site_fract_x
  _atom_site_fract_y
  _atom_site_fract_z
  _atom_site_occupancy
  Ag  Ag1       1.0  0.19611869727385312  0.1331241813090358  0.39268346108292446  1.0000
  Ag  Ag2       1.0  0.8038709927294931  0.8668772540780765  0.6073269735780611  1.0000
  H   H1        1.0  0.40625167164856185  0.7714150026025803  0.16513907562181623  1.0000
  H   H2        1.0  0.24112740293821128  0.2294290103727477  0.8344383552596069  1.0000
  H   H3        1.0  0.5937804537444579  0.22859409893440844  0.8348677145098973  1.0000
  H   H4        1.0  0.758908112766058  0.7705760834592822  0.16557466750679586  1.0000
  H   H5        1.0  0.34993408863575587  0.5757213910205223  0.04765612488043297  1.0000
  H   H6        1.0  0.3018744212384163  0.4251496846158177  0.9519999580301427  1.0000
  H   H7        1.0  0.6500928108037698  0.4242957519268914  0.9523375464707439  1.0000
  H   H8        1.0  0.6981641006162677  0.5748565134107155  0.04800893474853748  1.0000
  H   H9        1.0  0.6007605824638347  0.29228173884728653  0.5636709020200923  1.0000
  H   H10       1.0  0.0368380347832158  0.7077574234586733  0.43623627955788163  1.0000
  H   H11       1.0  0.39920323144253445  0.7077232197183392  0.4363218208488318  1.0000
  H   H12       1.0  0.9631369912490939  0.29224734444086664  0.5637612492445354  1.0000
  H   H13       1.0  0.4119555924404068  0.3995084373640623  0.45521645238092373  1.0000
  H   H14       1.0  0.9566720686873327  0.6004505937956566  0.5445218410892919  1.0000
  H   H15       1.0  0.5880143257837531  0.6004930127012855  0.5447699394864854  1.0000
  H   H16       1.0  0.04330132126202809  0.39955049833405104  0.45547356231854486  1.0000
  H   H17       1.0  0.6512914184454813  0.09770114378113699  0.30302963196428556  1.0000
  H   H18       1.0  0.3486918944086739  0.9022919476727226  0.696977867741772  1.0000
  H   H19       1.0  0.7380830799258647  0.11618349446802509  0.4759952097831927  1.0000
  H   H20       1.0  0.2618953693619872  0.8838172284595912  0.5240094897050722  1.0000
  H   H21       1.0  0.2965913976108041  0.3708059463133965  0.22383721271289395  1.0000
  H   H22       1.0  0.073219077888119  0.629187026988383  0.7759827552706678  1.0000
  H   H23       1.0  0.7033849935666225  0.6291831590489637  0.7761523079719763  1.0000
  H   H24       1.0  0.9267622079063503  0.3708018955067304  0.22401137123884496  1.0000
  H   H25       1.0  0.3967326697089888  0.24090473103441215  0.15950358037046183  1.0000
  H   H26       1.0  0.23803898526016812  0.7590276559455733  0.8404394156409791  1.0000
  H   H27       1.0  0.60325193615342  0.7590811986822389  0.8404948938594925  1.0000
  H   H28       1.0  0.7619441647660992  0.240958135969656  0.15956252625360173  1.0000
  H   H29       1.0  0.789074075548662  0.5425687905559543  0.3093587904966667  1.0000
  H   H30       1.0  0.4801595739374704  0.4574185181771926  0.6907672460040643  1.0000
  H   H31       1.0  0.21090382864402102  0.4574222588590048  0.6906291210020183  1.0000
  H   H32       1.0  0.5198118964945309  0.5425764124077403  0.3092176159845577  1.0000
  H   H33       1.0  0.4539229766522369  0.11831530211080829  0.6667768498849751  1.0000
  H   H34       1.0  0.7868448950956762  0.8815131726505925  0.3333075329996688  1.0000
  H   H35       1.0  0.5461029120782186  0.8816834256399203  0.3332307751203059  1.0000
  H   H36       1.0  0.21318264959782607  0.11849201478067069  0.666703129015559  1.0000
  C   C1        1.0  0.12285700279618081  0.9046549031098509  0.24626522453782934  1.0000
  C   C2        1.0  0.8771704318938163  0.09534573142651231  0.7537417293324321  1.0000
  C   C3        1.0  0.0862822562273777  0.7857203949147546  0.17273525947653914  1.0000
  C   C4        1.0  0.9137417881513699  0.21428424732656026  0.8272654617590331  1.0000
  C   C5        1.0  0.25058174864979327  0.728322474910165  0.13826143981741976  1.0000
  C   C6        1.0  0.11226189629127958  0.2721733346682953  0.8614381995038155  1.0000
  C   C7        1.0  0.7494519314122386  0.2716866526273378  0.8617446968031357  1.0000
  C   C8        1.0  0.8877781690617824  0.7278282246629433  0.1385691457722159  1.0000
  C   C9        1.0  0.21753428429507693  0.6173142295394741  0.07188378248203259  1.0000
  C   C10       1.0  0.145367278730717  0.3831820948544832  0.9278029335403842  1.0000
  C   C11       1.0  0.7824991060842593  0.3827008384891358  0.9281147968576559  1.0000
  C   C12       1.0  0.8546631931604266  0.6168270924828932  0.07220169594901182  1.0000
  C   C13       1.0  0.018180334472496895  0.558648549706568  0.036235335835918585  1.0000
  C   C14       1.0  0.9818627177184993  0.4413653612628893  0.9637687117603587  1.0000
  C   C15       1.0  0.5533469923677643  0.34063631721279825  0.4662587653005302  1.0000
  C   C16       1.0  0.08704048553866527  0.6593649785440762  0.5336331020021559  1.0000
  C   C17       1.0  0.4466262987487255  0.6593648867178176  0.5337338239538311  1.0000
  C   C18       1.0  0.9129345094429056  0.3406323407489539  0.4663626211934184  1.0000
  C   C19       1.0  0.6895837301202762  0.1664731813039424  0.37939796146927307  1.0000
  C   C20       1.0  0.3103978459245056  0.8335238320544817  0.62060546624442  1.0000
  C   C21       1.0  0.4370754371028909  0.31121434446240664  0.2346038296148051  1.0000
  C   C22       1.0  0.20300571353141814  0.6887368192785672  0.7653193113143216  1.0000
  C   C23       1.0  0.5629042983772976  0.6887736116396326  0.7653909592177964  1.0000
  C   C24       1.0  0.7969741493712023  0.3112519281481525  0.23467922091098356  1.0000
  C   C25       1.0  0.6602286618806589  0.4827678469153441  0.32083131679866733  1.0000
  C   C26       1.0  0.3397508783949731  0.5172268782694475  0.6791587200946052  1.0000
  N   N1        1.0  0.4975635773608218  0.24445900699668496  0.3657505735576548  1.0000
  N   N2        1.0  0.1319674683280709  0.7555177931690907  0.6341597835306627  1.0000
  N   N3        1.0  0.5024145972020763  0.7555373493708757  0.6342457275298583  1.0000
  N   N4        1.0  0.8680125002233157  0.2444764475450825  0.36584244802766347  1.0000
  N   N5        1.0  0.7265070583624222  0.4207401542637187  0.4531130014580639  1.0000
  N   N6        1.0  0.27346780484199945  0.5792573140971911  0.5468789695328765  1.0000
  N   N7        1.0  0.6082382617482978  0.3908954968744709  0.2171184025797216  1.0000
  N   N8        1.0  0.3917398115205586  0.6090944258130763  0.7828742079866869  1.0000
  O   O1        1.0  0.3068344583084723  0.9530784060335193  0.27692224233866364  1.0000
  O   O2        1.0  0.0307071119822808  0.0472672774154361  0.7232046497553666  1.0000
  O   O3        1.0  0.6931962112484058  0.04693055770204071  0.7230880154576764  1.0000
  O   O4        1.0  0.9693328197000638  0.9527419168571641  0.2767998108717291  1.0000
  O   O5        1.0  0.31397343594248645  0.16223799681448983  0.6275291942143537  1.0000
  O   O6        1.0  0.686054088870911  0.8377644067060784  0.3724805561855147  1.0000
