data_image0
_chemical_formula_structural       Zn2H4C18N10O24
_chemical_formula_sum              "Zn2 H4 C18 N10 O24"
_cell_length_a       10.569076069062595
_cell_length_b       11.052644985092325
_cell_length_c       11.759589440306703
_cell_angle_alpha    89.71861446891974
_cell_angle_beta     89.54136868298474
_cell_angle_gamma    89.95015796522372

_space_group_name_H-M_alt    "P 1"
_space_group_IT_number       1

loop_
  _space_group_symop_operation_xyz
  'x, y, z'

loop_
  _atom_site_type_symbol
  _atom_site_label
  _atom_site_symmetry_multiplicity
  _atom_site_fract_x
  _atom_site_fract_y
  _atom_site_fract_z
  _atom_site_occupancy
  Zn  Zn1       1.0  0.6329240750090577  0.49999397761840925  0.4972495312435684  1.0000
  Zn  Zn2       1.0  0.3735117498923374  0.5021352461569321  0.5039842604088989  1.0000
  H   H1        1.0  0.4044402687252102  0.0923466411624148  0.6479519275743331  1.0000
  H   H2        1.0  0.30749511802348906  0.11598984324894705  0.5306869856313983  1.0000
  H   H3        1.0  0.36721415401201085  0.8865094096544653  0.6232159860630662  1.0000
  H   H4        1.0  0.3052907442317405  0.9085682567359116  0.48799189175228025  1.0000
  C   C1        1.0  0.5009970794424844  0.5028723231574546  0.2837198441685516  1.0000
  C   C2        1.0  0.5014631822217767  0.49434022833656144  0.9434474936552351  1.0000
  C   C3        1.0  0.5023665091563031  0.2644106027332853  0.49445343016561355  1.0000
  C   C4        1.0  0.499192098623645  0.7366038760419403  0.4965025689254008  1.0000
  C   C5        1.0  0.06731400975320409  0.5032375506396393  0.5020853911244176  1.0000
  C   C6        1.0  0.9380980507672589  0.5033549717365844  0.4994541751052496  1.0000
  C   C7        1.0  0.5061187973849854  0.4941869237739168  0.7175103384311401  1.0000
  C   C8        1.0  0.49564612016941834  0.5001490816326425  0.16181105884442107  1.0000
  C   C9        1.0  0.6251348673730206  0.072450979230041  0.5578281751237386  1.0000
  C   C10       1.0  0.4965232428965436  0.072922116959532  0.3649780847603878  1.0000
  C   C11       1.0  0.6240806159390004  0.9307225330545279  0.5557189712332973  1.0000
  C   C12       1.0  0.5039375259498796  0.9322481213414734  0.36135760553883506  1.0000
  C   C13       1.0  0.49831916397409515  0.49686580464037156  0.057960864983371614  1.0000
  C   C14       1.0  0.39306076974769155  0.06957814824027511  0.5584806704947597  1.0000
  C   C15       1.0  0.38426521518601225  0.9329095739494451  0.5424542018771562  1.0000
  C   C16       1.0  0.5080301245706806  0.12267027685049922  0.49122533335530977  1.0000
  C   C17       1.0  0.5062897123004434  0.8801323222654105  0.4863053982533361  1.0000
  C   C18       1.0  0.504995733680154  0.49293485120109176  0.8395280745819066  1.0000
  N   N1        1.0  0.1770072166690042  0.5029908299775557  0.5046325536726572  1.0000
  N   N2        1.0  0.8284113445610259  0.5033884379571774  0.4975285495063134  1.0000
  N   N3        1.0  0.6283219938006682  0.12275426155703432  0.6874356307477356  1.0000
  N   N4        1.0  0.35462794321008323  0.12363993496206399  0.3197167483421951  1.0000
  N   N5        1.0  0.6055134457642241  0.870856679093784  0.6807683983064693  1.0000
  N   N6        1.0  0.3854118461941596  0.8778571683801533  0.28874762000278764  1.0000
  N   N7        1.0  0.7567702962122381  0.12439916310476208  0.5114471070727975  1.0000
  N   N8        1.0  0.5778436688361309  0.1377192860040424  0.2687481297754176  1.0000
  N   N9        1.0  0.7645310268705074  0.8846414842856306  0.5262883738021458  1.0000
  N   N10       1.0  0.614034158452064  0.8750201306533184  0.28097564669047875  1.0000
  O   O1        1.0  0.6088291270489067  0.4842365982465325  0.3273105976060152  1.0000
  O   O2        1.0  0.3970128385729269  0.5234374399708486  0.33694062404808994  1.0000
  O   O3        1.0  0.6052501909244086  0.3184456781965538  0.5119908961694507  1.0000
  O   O4        1.0  0.3943352517697604  0.3106181524573088  0.4808705532902381  1.0000
  O   O5        1.0  0.5990519911851991  0.6797544718267048  0.4724848483795159  1.0000
  O   O6        1.0  0.39688046599251686  0.6917894046496826  0.532987731442539  1.0000
  O   O7        1.0  0.6114202618885471  0.5155292907021619  0.6680719334812724  1.0000
  O   O8        1.0  0.3999166129851091  0.4745001154240711  0.6695724778513964  1.0000
  O   O9        1.0  0.7117275150402663  0.07892392228426101  0.7458932935272886  1.0000
  O   O10       1.0  0.5536795121574514  0.20261851850027307  0.7139167577827693  1.0000
  O   O11       1.0  0.3572351349948306  0.21408280057526952  0.26060975715699203  1.0000
  O   O12       1.0  0.26127590630994046  0.0684179170370101  0.35354479063631333  1.0000
  O   O13       1.0  0.6665198189894711  0.7792646341111081  0.69982322277766  1.0000
  O   O14       1.0  0.5241351685292983  0.9165803179261476  0.7419625751868753  1.0000
  O   O15       1.0  0.3751421730234483  0.9216091182958623  0.19360660778682612  1.0000
  O   O16       1.0  0.3226211061978432  0.7968790680867884  0.3314775191031743  1.0000
  O   O17       1.0  0.7833021143572055  0.08790817862100651  0.41579754527552387  1.0000
  O   O18       1.0  0.8183607974436954  0.1936218886564234  0.5693583482294217  1.0000
  O   O19       1.0  0.6372636963218454  0.22762782054613243  0.29638134967184737  1.0000
  O   O20       1.0  0.56473530254587  0.0973740307812534  0.17295441407772932  1.0000
  O   O21       1.0  0.7834098558912715  0.8217217271612185  0.4432258650895023  1.0000
  O   O22       1.0  0.8434608529888622  0.9192851978616191  0.5950517123043257  1.0000
  O   O23       1.0  0.7086243642259334  0.9337753258248116  0.26006099183885584  1.0000
  O   O24       1.0  0.5902152750481661  0.7718725264798821  0.2501712514382462  1.0000
