data_image0
_chemical_formula_structural       K4Cd8B4H24C32O52
_chemical_formula_sum              "K4 Cd8 B4 H24 C32 O52"
_cell_length_a       7.932290123024925
_cell_length_b       11.967329491819822
_cell_length_c       14.785207840281181
_cell_angle_alpha    102.758766356213
_cell_angle_beta     89.9999893556271
_cell_angle_gamma    90.00028246101

_space_group_name_H-M_alt    "P 1"
_space_group_IT_number       1

loop_
  _space_group_symop_operation_xyz
  'x, y, z'

loop_
  _atom_site_type_symbol
  _atom_site_label
  _atom_site_symmetry_multiplicity
  _atom_site_fract_x
  _atom_site_fract_y
  _atom_site_fract_z
  _atom_site_occupancy
  K   K1        1.0  0.7351860289204172  0.980192989208973  0.037008953396693266  1.0000
  K   K2        1.0  0.26481055126927106  0.48019405028563966  0.0370125329318824  1.0000
  K   K3        1.0  0.25386791181426105  0.832739697926385  0.4712046189543456  1.0000
  K   K4        1.0  0.7461022077644942  0.332721829927543  0.4712081269423507  1.0000
  Cd  Cd1       1.0  0.2966955011498129  0.5297820729930365  0.6139339658030705  1.0000
  Cd  Cd2       1.0  0.7033000497022857  0.029780349049517  0.6139336174465342  1.0000
  Cd  Cd3       1.0  0.7910964929515247  0.6144467119229446  0.9018668527693591  1.0000
  Cd  Cd4       1.0  0.20890715243701413  0.11444758262988589  0.9018704038608758  1.0000
  Cd  Cd5       1.0  0.7062560163927717  0.6147043523534492  0.3776630730854079  1.0000
  Cd  Cd6       1.0  0.2937402479702343  0.11470637551892786  0.3776627644996324  1.0000
  Cd  Cd7       1.0  0.15966433877670744  0.8143443821945126  0.12747682452110345  1.0000
  Cd  Cd8       1.0  0.8403385401473716  0.3143448383953853  0.12747685398016267  1.0000
  B   B1        1.0  0.49884477418578416  0.7286429793495371  0.02029118077824415  1.0000
  B   B2        1.0  0.5011562434078202  0.22864228059766123  0.020291037672613775  1.0000
  B   B3        1.0  0.018985273863755505  0.5887231492686951  0.49157442702798443  1.0000
  B   B4        1.0  0.9810145398286566  0.08872151193406101  0.4915754182103029  1.0000
  H   H1        1.0  0.20598080887652515  0.7020826991976464  0.8637837397477381  1.0000
  H   H2        1.0  0.7940235017403342  0.2020829942794222  0.8637857740867573  1.0000
  H   H3        1.0  0.4789920506435907  0.8495757820162241  0.8463614754657554  1.0000
  H   H4        1.0  0.5210171454540957  0.34957515315147003  0.8463599901666823  1.0000
  H   H5        1.0  0.6788057330600882  0.8237110085725164  0.21660382276617435  1.0000
  H   H6        1.0  0.32119466343504416  0.3237122684542086  0.216603374098959  1.0000
  H   H7        1.0  0.6619005211998471  0.5823492199122666  0.15984358888505307  1.0000
  H   H8        1.0  0.33810188099172933  0.08234710690400959  0.1598445610698391  1.0000
  H   H9        1.0  0.21661680119637347  0.6007436733552751  0.3036063567080304  1.0000
  H   H10       1.0  0.7833869488771514  0.10074222437548738  0.3036046967991126  1.0000
  H   H11       1.0  0.19904223319037587  0.38002484881068443  0.3463630852808421  1.0000
  H   H12       1.0  0.8009534948141095  0.880024862762987  0.34636307399448185  1.0000
  H   H13       1.0  0.7160741456767854  0.6355003296333308  0.643184392727207  1.0000
  H   H14       1.0  0.28392848505571794  0.1355023182416062  0.643184755295877  1.0000
  H   H15       1.0  0.9837477618945416  0.7986777605130795  0.6675766329811736  1.0000
  H   H16       1.0  0.016248510528477297  0.2986736948041013  0.6675772873704416  1.0000
  H   H17       1.0  0.8474788350929716  0.9863853094664847  0.8147133955582146  1.0000
  H   H18       1.0  0.15252508656268304  0.4863885596083576  0.8147167039612525  1.0000
  H   H19       1.0  0.838912120260787  0.8628274880298079  0.8301404062924714  1.0000
  H   H20       1.0  0.16109339805221626  0.3628324785973404  0.8301453794469821  1.0000
  H   H21       1.0  0.34880435010653343  0.9575398181505433  0.698356250254889  1.0000
  H   H22       1.0  0.6511930937414407  0.45753791336496624  0.69835790383145  1.0000
  H   H23       1.0  0.34234544789932647  0.8249353214077005  0.6785696656016639  1.0000
  H   H24       1.0  0.657652276782365  0.32493429083358905  0.678574181104615  1.0000
  C   C1        1.0  0.20714126255881382  0.8767941625901584  0.937234685034781  1.0000
  C   C2        1.0  0.7928605406506436  0.3767927436000775  0.9372343822421811  1.0000
  C   C3        1.0  0.2901231656936787  0.7580926937859902  0.9126919930378036  1.0000
  C   C4        1.0  0.7098865874413677  0.2580867095709536  0.9126902016390941  1.0000
  C   C5        1.0  0.4669939486786064  0.7684218189267893  0.8688264245303257  1.0000
  C   C6        1.0  0.5330083324451851  0.26841608237839404  0.8688287540796792  1.0000
  C   C7        1.0  0.4905101403057375  0.6714180410539113  0.7832403457116541  1.0000
  C   C8        1.0  0.5094826239030825  0.17140965185471663  0.7832435534452884  1.0000
  C   C9        1.0  0.4558735780097509  0.7392983606596812  0.24616825262356193  1.0000
  C   C10       1.0  0.5441198768408527  0.23930209202838165  0.24616890161998836  1.0000
  C   C11       1.0  0.5851806061105265  0.7653016142802758  0.17722208538521758  1.0000
  C   C12       1.0  0.4148206300474231  0.2653023339334553  0.17722288259933797  1.0000
  C   C13       1.0  0.6705452023286967  0.6524299040718091  0.12292110770128055  1.0000
  C   C14       1.0  0.32945269140692096  0.15243290219343208  0.122922999776705  1.0000
  C   C15       1.0  0.8572517893426836  0.6796403803259565  0.11338702606668245  1.0000
  C   C16       1.0  0.14275135281709345  0.17963931792162666  0.11338685466382258  1.0000
  C   C17       1.0  0.0077284288503776015  0.4911689999901084  0.2591622079030457  1.0000
  C   C18       1.0  0.9922719382715359  0.9911670962457821  0.2591611556593064  1.0000
  C   C19       1.0  0.12140957086261753  0.5557305421658683  0.3360385462540164  1.0000
  C   C20       1.0  0.8785913117356405  0.0557285594746588  0.3360374568824439  1.0000
  C   C21       1.0  0.20356079521159395  0.4681954196571568  0.38804968173048576  1.0000
  C   C22       1.0  0.7964368351070094  0.9681928490757484  0.3880485298527672  1.0000
  C   C23       1.0  0.38963201853595575  0.5004831042248696  0.4069485940310287  1.0000
  C   C24       1.0  0.6103659071631142  0.00048535104544099994  0.4069469401896129  1.0000
  C   C25       1.0  0.718190075769485  0.7736025720602624  0.5732281845978803  1.0000
  C   C26       1.0  0.2818085640281184  0.27360454891211106  0.5732312506809335  1.0000
  C   C27       1.0  0.8019750673781377  0.6683498044217301  0.5969454114020534  1.0000
  C   C28       1.0  0.19802278106620014  0.1683506437567459  0.5969455762175286  1.0000
  C   C29       1.0  0.9756148361322021  0.7051988017958594  0.6442467831618899  1.0000
  C   C30       1.0  0.024387052160648206  0.20519818970301168  0.6442487340316205  1.0000
  C   C31       1.0  0.9945650220327096  0.6540161690030217  0.7297224930360854  1.0000
  C   C32       1.0  0.005428891853590301  0.15400863940681833  0.7297225257279861  1.0000
  O   O1        1.0  0.2014684437071922  0.926355106918315  0.8697451338037678  1.0000
  O   O2        1.0  0.7985350122511791  0.4263528516215374  0.8697440037014417  1.0000
  O   O3        1.0  0.15327819303542617  0.9190389796950742  0.01830154837581692  1.0000
  O   O4        1.0  0.846725502594694  0.4190368862199064  0.01830179508717578  1.0000
  O   O5        1.0  0.4081153304479558  0.6838170944847306  0.7119482152803369  1.0000
  O   O6        1.0  0.5918800720059707  0.18381413778941183  0.7119456277446331  1.0000
  O   O7        1.0  0.5814167324795465  0.5856251647796142  0.7868538515786838  1.0000
  O   O8        1.0  0.41858673818025954  0.08562503594611573  0.7868572012519123  1.0000
  O   O9        1.0  0.2991861616718979  0.7369331197122406  0.22807666248344555  1.0000
  O   O10       1.0  0.7008135851614984  0.2369322417848423  0.2280778192050903  1.0000
  O   O11       1.0  0.5108349191458004  0.7191921371169984  0.3215003110037742  1.0000
  O   O12       1.0  0.4891621420877856  0.21919568247811577  0.3215002558905624  1.0000
  O   O13       1.0  0.9446969494542831  0.6958791880179619  0.18591698080751226  1.0000
  O   O14       1.0  0.0553012458017719  0.19587867665326536  0.1859216519982567  1.0000
  O   O15       1.0  0.9164579704543815  0.6965773218002624  0.036141203809393105  1.0000
  O   O16       1.0  0.08354154240599601  0.19657776449332692  0.036145367267913286  1.0000
  O   O17       1.0  0.5147421301062779  0.8153404950657616  0.10728417992120844  1.0000
  O   O18       1.0  0.4852595025333388  0.31534059894484295  0.10728418277599157  1.0000
  O   O19       1.0  0.5789586963503552  0.6235236376265688  0.03804465154437505  1.0000
  O   O20       1.0  0.4210402722820988  0.12352438187069478  0.03804342347949329  1.0000
  O   O21       1.0  0.3207673347755319  0.7088316437322321  0.9904450022502543  1.0000
  O   O22       1.0  0.6792332002858575  0.2088289787951467  0.9904458398956419  1.0000
  O   O23       1.0  0.5830486828875223  0.7657621919001655  0.9415410228706164  1.0000
  O   O24       1.0  0.41695733536677443  0.2657637755832241  0.9415419752189322  1.0000
  O   O25       1.0  0.07848334391498922  0.4374121275238279  0.18592148038304396  1.0000
  O   O26       1.0  0.9215179091941509  0.9374125508666821  0.18592220658259603  1.0000
  O   O27       1.0  0.8481124400117468  0.4846779911329974  0.27170337005998846  1.0000
  O   O28       1.0  0.15188787448216354  0.9846766505582635  0.2717038587448215  1.0000
  O   O29       1.0  0.4398547544936308  0.5487321437917245  0.48832839396720823  1.0000
  O   O30       1.0  0.5601485448007112  0.04873935677233021  0.4883296673093013  1.0000
  O   O31       1.0  0.48651445441912966  0.48332966723337034  0.3372673261119559  1.0000
  O   O32       1.0  0.5134820454054819  0.9833338428837306  0.33726809285899856  1.0000
  O   O33       1.0  0.7040242275879722  0.8575445879639928  0.6424449381741866  1.0000
  O   O34       1.0  0.295973752214458  0.35754490407116873  0.6424449987756444  1.0000
  O   O35       1.0  0.6730467606159111  0.7741060939850116  0.4913096569383625  1.0000
  O   O36       1.0  0.3269544325659766  0.2741082302403299  0.4913093652496555  1.0000
  O   O37       1.0  0.08194174253655012  0.5648763909139163  0.726338004905827  1.0000
  O   O38       1.0  0.9180590733108859  0.06487882415434848  0.7263390581517726  1.0000
  O   O39       1.0  0.9119333308574724  0.7065221206404501  0.800714656038302  1.0000
  O   O40       1.0  0.08806977390479893  0.2065217242565893  0.8007173154554437  1.0000
  O   O41       1.0  0.8402789464415863  0.5793545905416339  0.5181823823015108  1.0000
  O   O42       1.0  0.15971952768666142  0.07935444268618139  0.5181823735810268  1.0000
  O   O43       1.0  0.09684326324604345  0.6657335097984715  0.5736758721371443  1.0000
  O   O44       1.0  0.9031570950857459  0.16572817802762066  0.5736775598106048  1.0000
  O   O45       1.0  0.10385190285989411  0.4766410508949974  0.469229005276368  1.0000
  O   O46       1.0  0.8961470229304355  0.9766388209725535  0.46922722797970806  1.0000
  O   O47       1.0  0.03385884490447921  0.6349489371568425  0.4065446088732969  1.0000
  O   O48       1.0  0.9661400814456658  0.13494810593672213  0.4065457465365084  1.0000
  O   O49       1.0  0.8043334923100078  0.9417608721163901  0.8581432942049643  1.0000
  O   O50       1.0  0.19567638565649764  0.4417642725918823  0.8581445961165526  1.0000
  O   O51       1.0  0.3112739627820746  0.8902922107660488  0.6517445959839632  1.0000
  O   O52       1.0  0.688722996789167  0.39028871456969944  0.6517493412979221  1.0000
