data_image0
_chemical_formula_structural       Er2H26C32O24
_chemical_formula_sum              "Er2 H26 C32 O24"
_cell_length_a       7.745442931244737
_cell_length_b       10.19026921920238
_cell_length_c       10.972464707269877
_cell_angle_alpha    88.46630033838616
_cell_angle_beta     80.26063709587562
_cell_angle_gamma    75.53827812781869

_space_group_name_H-M_alt    "P 1"
_space_group_IT_number       1

loop_
  _space_group_symop_operation_xyz
  'x, y, z'

loop_
  _atom_site_type_symbol
  _atom_site_label
  _atom_site_symmetry_multiplicity
  _atom_site_fract_x
  _atom_site_fract_y
  _atom_site_fract_z
  _atom_site_occupancy
  Er  Er1       1.0  0.19066145922275268  0.7335448967393532  0.9299197455781325  1.0000
  Er  Er2       1.0  0.8093460908479952  0.2664543571526111  0.07007627833110061  1.0000
  H   H1        1.0  0.21665291229314929  0.3259486389635313  0.5734758646709394  1.0000
  H   H2        1.0  0.7833486420732996  0.6740487298556417  0.42652274226224296  1.0000
  H   H3        1.0  0.33832722762356565  0.530310883499489  0.5536204017917328  1.0000
  H   H4        1.0  0.6616562848779424  0.46969386995513673  0.4463826372287727  1.0000
  H   H5        1.0  0.3219947047847568  0.6655954107036595  0.3594678528452988  1.0000
  H   H6        1.0  0.6779838366819603  0.3344125377841393  0.6405392482253516  1.0000
  H   H7        1.0  0.29171375647189984  0.09398443043294691  0.251284664163002  1.0000
  H   H8        1.0  0.708276042405188  0.9060129994530471  0.7487116158792304  1.0000
  H   H9        1.0  0.46291217915646843  0.7695406420833707  0.502543804146839  1.0000
  H   H10       1.0  0.5370909611777464  0.2304598568146545  0.49745904170402605  1.0000
  H   H11       1.0  0.03653617798992307  0.12060082981800954  0.6325156631162372  1.0000
  H   H12       1.0  0.9634609322751898  0.8793984670725478  0.36747788668196785  1.0000
  H   H13       1.0  0.6856053638918238  0.6679800218688925  0.2141231958080567  1.0000
  H   H14       1.0  0.3143964053207853  0.33202531401671115  0.7858713808622397  1.0000
  H   H15       1.0  0.40062768973574947  0.9571825863916674  0.9119891257010548  1.0000
  H   H16       1.0  0.5993697778492757  0.042836198967670214  0.08801535719555892  1.0000
  H   H17       1.0  0.39813611565734414  0.8892226002706709  0.042874398220014605  1.0000
  H   H18       1.0  0.6018501791526206  0.1107942707415646  0.9571296047092301  1.0000
  H   H19       1.0  0.5516934261192432  0.6397562544989202  0.8192738048371381  1.0000
  H   H20       1.0  0.4483242948448307  0.36025625011629364  0.18073050587762646  1.0000
  H   H21       1.0  0.6018480093868135  0.5808277037796972  0.9454964189297  1.0000
  H   H22       1.0  0.39816616296339913  0.41918374039921963  0.05450469206756027  1.0000
  H   H23       1.0  0.9518645674992425  0.9238091040009241  0.1249589090879795  1.0000
  H   H24       1.0  0.0481317241323254  0.07618833709115341  0.8750402867254933  1.0000
  H   H25       1.0  0.8473882137901394  0.9117049979140222  0.018145039906500026  1.0000
  H   H26       1.0  0.15260677373473897  0.08827536169884809  0.9818568963393017  1.0000
  C   C1        1.0  0.1956457033975738  0.61502816809395  0.15984976332345013  1.0000
  C   C2        1.0  0.8043600893771694  0.3849681588135923  0.8401493254113106  1.0000
  C   C3        1.0  0.18049434604728978  0.5436601526409462  0.2800167153270863  1.0000
  C   C4        1.0  0.8195207207615807  0.45633597162861156  0.7199786039634687  1.0000
  C   C5        1.0  0.10351907591255834  0.4311694813901641  0.2932945747966755  1.0000
  C   C6        1.0  0.8964813256311359  0.5688270701110981  0.7067105806257814  1.0000
  C   C7        1.0  0.12302168122342748  0.3529170303551794  0.3991466861098871  1.0000
  C   C8        1.0  0.8769805632803838  0.6470823465832894  0.6008517526154407  1.0000
  C   C9        1.0  0.20871917505839827  0.38707771129603696  0.49108207927324793  1.0000
  C   C10       1.0  0.7912835875686921  0.6129156559216967  0.5089183955713068  1.0000
  C   C11       1.0  0.27767313303151286  0.5012272139842369  0.47922454362945627  1.0000
  C   C12       1.0  0.7223224691485582  0.4987764399229988  0.5207799198079995  1.0000
  C   C13       1.0  0.2643858569154814  0.5785912302477314  0.3732601972565632  1.0000
  C   C14       1.0  0.7356051077331285  0.4214063592776612  0.6267423263408957  1.0000
  C   C15       1.0  0.00012403665595428585  0.3912935886452403  0.20187501193874616  1.0000
  C   C16       1.0  0.9998861233662096  0.6087056544970795  0.7981216304982508  1.0000
  C   C17       1.0  0.1599180006712118  0.12082862931224982  0.44043156087842306  1.0000
  C   C18       1.0  0.8400707103170857  0.8791761280298831  0.559573628165502  1.0000
  C   C19       1.0  0.2854198931385382  0.0503476516947643  0.3431789864940526  1.0000
  C   C20       1.0  0.7145803023691993  0.949645675499014  0.6568190438869477  1.0000
  C   C21       1.0  0.39482586139541087  0.922619336374382  0.36463231991734085  1.0000
  C   C22       1.0  0.6051720369340927  0.07737298847528251  0.6353651024297945  1.0000
  C   C23       1.0  0.3788390881373756  0.8680347266531788  0.4835738962070549  1.0000
  C   C24       1.0  0.6211520053503461  0.13196682101862223  0.5164256992910623  1.0000
  C   C25       1.0  0.25119127553793424  0.939294171294968  0.5800235594533162  1.0000
  C   C26       1.0  0.7488006498750293  0.06071268496402381  0.4199857317821126  1.0000
  C   C27       1.0  0.13990912613098058  0.0662677188578655  0.5584588861105289  1.0000
  C   C28       1.0  0.8600904870054008  0.933731694217059  0.44153984705494764  1.0000
  C   C29       1.0  0.2295767977372449  0.8768609230073777  0.7049812306590795  1.0000
  C   C30       1.0  0.7704127227314713  0.12313683690705798  0.2950269179658633  1.0000
  C   C31       1.0  0.5188253960005084  0.8461243077918326  0.25770190848693625  1.0000
  C   C32       1.0  0.4811735610203627  0.153868303631242  0.7423063222549401  1.0000
  O   O1        1.0  0.24096165740036204  0.7267472243514492  0.14940394618199798  1.0000
  O   O2        1.0  0.7590326287530543  0.27325233715679087  0.8505981147674646  1.0000
  O   O3        1.0  0.17160483643316835  0.5553892151117524  0.06385913860151499  1.0000
  O   O4        1.0  0.828435746146695  0.444596445673547  0.9361328699188289  1.0000
  O   O5        1.0  0.8388533762285489  0.4583060800425827  0.19662151919072807  1.0000
  O   O6        1.0  0.16114585954363742  0.5416903118192878  0.8033773926764951  1.0000
  O   O7        1.0  0.07284548178792248  0.28171518018134384  0.1395594735877026  1.0000
  O   O8        1.0  0.9271558672284353  0.7182871852648136  0.8604371077201448  1.0000
  O   O9        1.0  0.5398120181567805  0.8927667318216805  0.15212298017330275  1.0000
  O   O10       1.0  0.4601831512212015  0.10723871979185869  0.8478732455652532  1.0000
  O   O11       1.0  0.6051897399325411  0.7214326639358221  0.2850403682572846  1.0000
  O   O12       1.0  0.39481131772667055  0.2785706892172898  0.7149552895887721  1.0000
  O   O13       1.0  0.3404516647618792  0.7659695991432186  0.7255170131719949  1.0000
  O   O14       1.0  0.6595580954512527  0.2340143167711588  0.2744730718104548  1.0000
  O   O15       1.0  0.09928852042976642  0.9334046277687378  0.789660575503042  1.0000
  O   O16       1.0  0.9007078786248852  0.06659679685655823  0.21033660517898767  1.0000
  O   O17       1.0  0.04433525902788202  0.24330382666353498  0.41644866653161466  1.0000
  O   O18       1.0  0.9556604716483643  0.756699674922885  0.5835503190984355  1.0000
  O   O19       1.0  0.3294954733430372  0.910716969210043  0.9737067904069859  1.0000
  O   O20       1.0  0.670502781620499  0.0892866231739475  0.02629646562242268  1.0000
  O   O21       1.0  0.49908719821611647  0.622273703749258  0.9035680479140563  1.0000
  O   O22       1.0  0.5009301232818612  0.3777275841052444  0.09643225505422494  1.0000
  O   O23       1.0  0.9467364776213785  0.8608589359744274  0.058589252272824355  1.0000
  O   O24       1.0  0.05326789204657699  0.1391334254681311  0.9414119988134572  1.0000
