data_image0
_chemical_formula_structural       Hg4H40C40N16Cl8
_chemical_formula_sum              "Hg4 H40 C40 N16 Cl8"
_cell_length_a       8.699520308
_cell_length_b       10.906146903655836
_cell_length_c       15.8694
_cell_angle_alpha    101.09838399969493
_cell_angle_beta     90.0
_cell_angle_gamma    90.0

_space_group_name_H-M_alt    "P 1"
_space_group_IT_number       1

loop_
  _space_group_symop_operation_xyz
  'x, y, z'

loop_
  _atom_site_type_symbol
  _atom_site_label
  _atom_site_symmetry_multiplicity
  _atom_site_fract_x
  _atom_site_fract_y
  _atom_site_fract_z
  _atom_site_occupancy
  Hg  Hg1       1.0  0.3277410591682965  0.34612944248360833  0.0593623019015368  1.0000
  Hg  Hg2       1.0  0.8277421909548366  0.6538713830490437  0.4406385004664983  1.0000
  Hg  Hg3       1.0  0.6722600549161228  0.6538723174380152  0.9406392542208407  1.0000
  Hg  Hg4       1.0  0.172257773640915  0.3461285080946368  0.5593621782907476  1.0000
  H   H1        1.0  0.7124507766595372  0.4926182727350579  0.09251632171664428  1.0000
  H   H2        1.0  0.2124473458956615  0.5073834871865586  0.407484604262187  1.0000
  H   H3        1.0  0.2875526364022107  0.5073853559644945  0.9074835911966729  1.0000
  H   H4        1.0  0.7875491702340865  0.492616403957129  0.592516704638605  1.0000
  H   H5        1.0  0.7849938569279544  0.4729120094277519  0.2452630696903668  1.0000
  H   H6        1.0  0.2849869776980825  0.5270897504938646  0.254736596001365  1.0000
  H   H7        1.0  0.2150107056224613  0.5270897504938646  0.7547353357142725  1.0000
  H   H8        1.0  0.7150095384316657  0.4729120094277519  0.7452649601210126  1.0000
  H   H9        1.0  0.9414450119127195  0.8387075364930965  0.29256293745164186  1.0000
  H   H10       1.0  0.4414450296148472  0.1612960922064559  0.20743634531812918  1.0000
  H   H11       1.0  0.05855495268303199  0.1612951578174844  0.7074374819944325  1.0000
  H   H12       1.0  0.5585549349809042  0.8387066021041323  0.7925628138408456  1.0000
  H   H13       1.0  0.02652560047337  0.9885265290218044  0.21610482612820892  1.0000
  H   H14       1.0  0.5265255827712494  0.011474296510847602  0.2838966063833722  1.0000
  H   H15       1.0  0.9734743641223744  0.011477099677748  0.7838950867851081  1.0000
  H   H16       1.0  0.4734743818245022  0.9885265290218044  0.7161041959846626  1.0000
  H   H17       1.0  0.8309044342769951  0.0216572674697417  0.24198121159371058  1.0000
  H   H18       1.0  0.3309044519791229  0.9783388861180812  0.25802212343810277  1.0000
  H   H19       1.0  0.1690955303187494  0.9783435580629104  0.7580195907743246  1.0000
  H   H20       1.0  0.6690966621052893  0.0216582018587061  0.7419800749174071  1.0000
  H   H21       1.0  0.1607261033363159  0.1383185331267924  0.1572398400197201  1.0000
  H   H22       1.0  0.660731833077527  0.8616766860720588  0.342765891975489  1.0000
  H   H23       1.0  0.8392704127934323  0.8616794892389593  0.8427624819465791  1.0000
  H   H24       1.0  0.3392727294728886  0.1383157299598921  0.6572375787567067  1.0000
  H   H25       1.0  0.9513915373458985  0.3702516280474484  0.013307089784468899  1.0000
  H   H26       1.0  0.4513869570933622  0.6297445255403673  0.4866943548167058  1.0000
  H   H27       1.0  0.04861187571584939  0.6297491974852036  0.9866943427271194  1.0000
  H   H28       1.0  0.5486049610817219  0.3702516280474484  0.5133058294973694  1.0000
  H   H29       1.0  0.6970315356840686  0.2654972809928111  0.020386863542107402  1.0000
  H   H30       1.0  0.1970292544088608  0.7344979382060401  0.4796075258692554  1.0000
  H   H31       1.0  0.3029695784003437  0.7344998069839691  0.979608403234387  1.0000
  H   H32       1.0  0.8029649627435518  0.2654991497707472  0.5203864806201466  1.0000
  H   H33       1.0  0.6749659512375956  0.0944069236376066  0.1029223006341766  1.0000
  H   H34       1.0  0.1749682679170519  0.9055901643391807  0.3970748565729565  1.0000
  H   H35       1.0  0.32503401335815596  0.905591098728145  0.8970756103272988  1.0000
  H   H36       1.0  0.825035145144696  0.09440972680450703  0.6029220413230048  1.0000
  H   H37       1.0  0.8107860836319601  0.8854466069954655  0.076682856867599  1.0000
  H   H38       1.0  0.3107838023567524  0.11455608731512261  0.42331630229138273  1.0000
  H   H39       1.0  0.1892161799411269  0.11455608731512261  0.9233163022913827  1.0000
  H   H40       1.0  0.6892161622389992  0.8854438038285652  0.5766831161787707  1.0000
  C   C1        1.0  0.7653272553289411  0.569506337636362  0.1372783526503838  1.0000
  C   C2        1.0  0.2653249740537333  0.43049448789629013  0.3627211894305589  1.0000
  C   C3        1.0  0.2346761577328138  0.4304954222852544  0.862721313041348  1.0000
  C   C4        1.0  0.7346726915646826  0.5695054032473976  0.6372788591831408  1.0000
  C   C5        1.0  0.8048570210889849  0.5580871700745504  0.22048609401279148  1.0000
  C   C6        1.0  0.3048501418591059  0.44191458984706605  0.2795142018224936  1.0000
  C   C7        1.0  0.19514524248409504  0.441916458625002  0.7795131887569795  1.0000
  C   C8        1.0  0.6951452247819744  0.558086235685586  0.7204872306890948  1.0000
  C   C9        1.0  0.891966421742161  0.7613905870560913  0.2465153892484011  1.0000
  C   C10       1.0  0.3919641404669534  0.23861210725449675  0.2534850301976732  1.0000
  C   C11       1.0  0.108035841830926  0.23861304164346112  0.7534845236649161  1.0000
  C   C12       1.0  0.6080346746401304  0.761389652667127  0.7465165259246973  1.0000
  C   C13       1.0  0.8505377007046773  0.7732507862101771  0.1618189897725699  1.0000
  C   C14       1.0  0.35053886789547306  0.2267500393224751  0.33817992216482645  1.0000
  C   C15       1.0  0.1494634133797348  0.2267500393224751  0.8381805523083727  1.0000
  C   C16       1.0  0.6494610967002785  0.7732498518212125  0.6618194963053271  1.0000
  C   C17       1.0  0.9125859494458906  0.9980255272570846  0.18760040387054744  1.0000
  C   C18       1.0  0.4125882661253541  0.0019743638865961  0.3124009050302448  1.0000
  C   C19       1.0  0.0874140151498537  0.0019771670534965004  0.8124000155755269  1.0000
  C   C20       1.0  0.587413997447733  0.99802459286812  0.6875996501162048  1.0000
  C   C21       1.0  0.9170241251881208  0.1030855283601468  0.13841826211192648  1.0000
  C   C22       1.0  0.4170264418675842  0.8969152971725052  0.36158254025610853  1.0000
  C   C23       1.0  0.08297354043029509  0.8969171659504411  0.8615815271906014  1.0000
  C   C24       1.0  0.5829746722168352  0.1030845939711753  0.6384168782140376  1.0000
  C   C25       1.0  0.054204138079469985  0.16568865473882252  0.12952423889924347  1.0000
  C   C26       1.0  0.5542110173093491  0.8343065644600287  0.37048023280886605  1.0000
  C   C27       1.0  0.9457923780502782  0.8343074988490005  0.8704778358454702  1.0000
  C   C28       1.0  0.4457946947297344  0.1656858515719222  0.62952197763623  1.0000
  C   C29       1.0  0.9382919644998892  0.2945539746896984  0.0488170990962686  1.0000
  C   C30       1.0  0.4382931316906777  0.7054403101201815  0.45118598871395926  1.0000
  C   C31       1.0  0.0617102990731908  0.7054421788981174  0.951184345504906  1.0000
  C   C32       1.0  0.5617068329050667  0.2945530403007339  0.5488157151983799  1.0000
  C   C33       1.0  0.7966209347918891  0.23639667101448947  0.0531743049910105  1.0000
  C   C34       1.0  0.2966175040280135  0.7636022857402268  0.4468237295812543  1.0000
  C   C35       1.0  0.20338132878119097  0.7636050889071271  0.9468222099829902  1.0000
  C   C36       1.0  0.7033778626130669  0.23639853979242534  0.5531732919255034  1.0000
  C   C37       1.0  0.7854318121099765  0.1404676277501622  0.0993070729918912  1.0000
  C   C38       1.0  0.2854410257214397  0.8595285258376606  0.4006918510350914  1.0000
  C   C39       1.0  0.2145635545311038  0.8595285258376606  0.9006918510350913  1.0000
  C   C40       1.0  0.7145669852949794  0.1404676277501622  0.599306442848345  1.0000
  N   N1        1.0  0.7882503583207878  0.6746269651659347  0.107754060423666  1.0000
  N   N2        1.0  0.2882492265342478  0.3253747947556818  0.3922468655551583  1.0000
  N   N3        1.0  0.2117507557636245  0.32537666353361777  0.892245222346105  1.0000
  N   N4        1.0  0.7117484390841681  0.6746241619990343  0.6077543197348376  1.0000
  N   N5        1.0  0.8681858002049267  0.6551982153817306  0.27411648409039907  1.0000
  N   N6        1.0  0.36818236944105104  0.3448035445398858  0.2258831816013327  1.0000
  N   N7        1.0  0.1318153138794855  0.3448035445398858  0.7258831816013327  1.0000
  N   N8        1.0  0.6318152961773649  0.6551972809927662  0.7741169906231562  1.0000
  N   N9        1.0  0.8698146256456809  0.8808783793373607  0.13179329553151575  1.0000
  N   N10       1.0  0.3698134938591409  0.11912151180632691  0.3682080133692764  1.0000
  N   N11       1.0  0.1301864884387385  0.11912338058426292  0.8682063701602161  1.0000
  N   N12       1.0  0.6301853212479428  0.8808765105594247  0.6317936784534766  1.0000
  N   N13       1.0  0.0646460931280117  0.2601619199930667  0.0867818814912837  1.0000
  N   N14       1.0  0.564646075425884  0.7398351679837206  0.4132203168642262  1.0000
  N   N15       1.0  0.93535387146774  0.7398389055395853  0.9132176605896588  1.0000
  N   N16       1.0  0.4353538891698605  0.26016005121513075  0.5867803739826059  1.0000
  Cl  Cl1       1.0  0.41179396945664587  0.1328168508909755  0.01800079682104179  1.0000
  Cl  Cl2       1.0  0.9117951012431857  0.8671830402527122  0.4819992517926579  1.0000
  Cl  Cl3       1.0  0.5882059951391057  0.867184909030641  0.9819969784400512  1.0000
  Cl  Cl4       1.0  0.08820486335256557  0.13281591650201113  0.5180000430667064  1.0000
  Cl  Cl5       1.0  0.3234454200207395  0.5686588468435829  0.08647938119631958  1.0000
  Cl  Cl6       1.0  0.8234408043639476  0.4313419786890691  0.41352079102816924  1.0000
  Cl  Cl7       1.0  0.6765579930410084  0.4313429130780336  0.9135209146389653  1.0000
  Cl  Cl8       1.0  0.1765522632998042  0.5686579124546114  0.5864779972984308  1.0000
