data_image0
_chemical_formula_structural       Cd2H44C48N8Cl4O12
_chemical_formula_sum              "Cd2 H44 C48 N8 Cl4 O12"
_cell_length_a       6.633001844658071
_cell_length_b       11.426124478304796
_cell_length_c       17.90675592782923
_cell_angle_alpha    103.87715102181572
_cell_angle_beta     89.99584994394336
_cell_angle_gamma    106.8458794176944

_space_group_name_H-M_alt    "P 1"
_space_group_IT_number       1

loop_
  _space_group_symop_operation_xyz
  'x, y, z'

loop_
  _atom_site_type_symbol
  _atom_site_label
  _atom_site_symmetry_multiplicity
  _atom_site_fract_x
  _atom_site_fract_y
  _atom_site_fract_z
  _atom_site_occupancy
  Cd  Cd1       1.0  0.6975215682731175  8.340688472689805e-05  0.24993147428776297  1.0000
  Cd  Cd2       1.0  0.30247210564810695  0.9999201776332353  0.7500696084169148  1.0000
  H   H1        1.0  0.1381573497625509  0.9639107887365126  0.31691450861281817  1.0000
  H   H2        1.0  0.1744680175760607  0.03613060530235399  0.1829631408578507  1.0000
  H   H3        1.0  0.861829305871538  0.03607874897881659  0.6830895685282954  1.0000
  H   H4        1.0  0.825530408966678  0.9638674046722211  0.8170410448234405  1.0000
  H   H5        1.0  0.2696874898283568  0.30719646772393355  0.4894227012056972  1.0000
  H   H6        1.0  0.9632995365742335  0.6925342855468343  0.010718506721225672  1.0000
  H   H7        1.0  0.7303297527214028  0.6928060081288904  0.5105715187296694  1.0000
  H   H8        1.0  0.036690080116905215  0.30747023082057007  0.9892821523487  1.0000
  H   H9        1.0  0.8969803783838586  0.27090838167686115  0.4019210606642147  1.0000
  H   H10       1.0  0.6267558073000572  0.7290485678788627  0.0981584010640901  1.0000
  H   H11       1.0  0.10302984486246189  0.7290951333590382  0.5980772192395988  1.0000
  H   H12       1.0  0.3732428675589077  0.2709559737229199  0.9018433785407252  1.0000
  H   H13       1.0  0.5470457989454687  0.19741039914714514  0.4719579958764015  1.0000
  H   H14       1.0  0.3498830402873808  0.802400396525819  0.027831353090512267  1.0000
  H   H15       1.0  0.4529626155874525  0.8025864776659262  0.528038206669578  1.0000
  H   H16       1.0  0.6501057378515185  0.19759942397283228  0.9721697436322783  1.0000
  H   H17       1.0  0.5255099574621057  0.07533001356668478  0.3869649099071849  1.0000
  H   H18       1.0  0.4506023656325554  0.9243462583587669  0.11285359644578813  1.0000
  H   H19       1.0  0.4744929908926069  0.9246649750511367  0.6130310195422766  1.0000
  H   H20       1.0  0.5493919706132289  0.07565261668923279  0.8871473634191317  1.0000
  H   H21       1.0  0.2933637809453771  0.9185323050872466  0.4514718539409443  1.0000
  H   H22       1.0  0.37463927839932143  0.08135547881565937  0.048606561294292285  1.0000
  H   H23       1.0  0.7066436244046912  0.0814655698592688  0.5485267270393306  1.0000
  H   H24       1.0  0.6253480120895247  0.9186443819946033  0.9513962167937676  1.0000
  H   H25       1.0  0.31239036284573274  0.040586304272238694  0.535962863191422  1.0000
  H   H26       1.0  0.27189332689723505  0.9594488195505235  0.9640226348626655  1.0000
  H   H27       1.0  0.6876230658516748  0.9594115563350555  0.46403515712734833  1.0000
  H   H28       1.0  0.7280934785110277  0.040550070082694796  0.03597888572004851  1.0000
  H   H29       1.0  0.6055376411494394  0.481928748752999  0.056187529472545364  1.0000
  H   H30       1.0  0.12411364038504759  0.5184275838982372  0.4438673479376262  1.0000
  H   H31       1.0  0.39447393879657255  0.5180805001047019  0.9438143724653825  1.0000
  H   H32       1.0  0.8758936862630905  0.4815731514045822  0.5561327638696909  1.0000
  H   H33       1.0  0.12356319567265221  0.43505896456288434  0.21893837506030417  1.0000
  H   H34       1.0  0.6891687441675529  0.5652261685570605  0.280985540746272  1.0000
  H   H35       1.0  0.8764353475773846  0.5649483305535766  0.781060451880954  1.0000
  H   H36       1.0  0.3108347289479881  0.4347698713690135  0.7190150088264886  1.0000
  H   H37       1.0  0.27420689581389723  0.2843200689563972  0.2631631535336751  1.0000
  H   H38       1.0  0.9903492062440051  0.7159953690529973  0.23680418017277555  1.0000
  H   H39       1.0  0.7257847458563093  0.7156824644993023  0.7368333091039858  1.0000
  H   H40       1.0  0.009649174005112084  0.28400254743515757  0.7631960824542361  1.0000
  H   H41       1.0  0.8193821727673978  0.26805859708469626  0.12299716102448599  1.0000
  H   H42       1.0  0.5516643270572246  0.7320821077761436  0.37691997375081593  1.0000
  H   H43       1.0  0.18061998231238624  0.7319468751365077  0.877004194664117  1.0000
  H   H44       1.0  0.44834046307776293  0.2679195858405237  0.6230808352381131  1.0000
  C   C1        1.0  0.11627441112079141  0.050292040105631486  0.3523149120320141  1.0000
  C   C2        1.0  0.06628093009653208  0.9497207898501256  0.14761121521928536  1.0000
  C   C3        1.0  0.8837195848800905  0.9497031369610627  0.6476888638637703  1.0000
  C   C4        1.0  0.9337159558891486  0.050277153594436186  0.8523901683366688  1.0000
  C   C5        1.0  0.18341735949549332  0.23142448165177854  0.44126978009612117  1.0000
  C   C6        1.0  0.9526569171881789  0.7683749372268519  0.05884136357919795  1.0000
  C   C7        1.0  0.8165944565563095  0.7685761861370108  0.5587275293606808  1.0000
  C   C8        1.0  0.04732887242385429  0.23162493718461966  0.941161975001485  1.0000
  C   C9        1.0  0.00034481774703469016  0.21191571675164764  0.39785501226281633  1.0000
  C   C10       1.0  0.7890309078043743  0.7879977456171047  0.10223159460344529  1.0000
  C   C11       1.0  0.9996610999529808  0.7880821985064866  0.6021452500827279  1.0000
  C   C12       1.0  0.2109643919892008  0.21200305842976508  0.8977713198358471  1.0000
  C   C13       1.0  0.4448528197251704  0.10624092418384373  0.4380770199578237  1.0000
  C   C14       1.0  0.33887052674107565  0.8935511186202161  0.06181337699052849  1.0000
  C   C15       1.0  0.5551545723981519  0.8937569240522689  0.561920440149791  1.0000
  C   C16       1.0  0.6611207879109743  0.10644774356458697  0.9381870225506503  1.0000
  C   C17       1.0  0.39798581147996975  0.009131245910083399  0.4861447651315133  1.0000
  C   C18       1.0  0.38885861578101816  0.9908123398884567  0.013845703788113917  1.0000
  C   C19       1.0  0.6020211021761454  0.9908656445041967  0.513851997907082  1.0000
  C   C20       1.0  0.6111261970564783  0.009185578813735195  0.9861545593455432  1.0000
  C   C21       1.0  0.5212753735349621  0.2975071383330529  0.18520481807148306  1.0000
  C   C22       1.0  0.22420292226928495  0.7027105496846457  0.3147488006663933  1.0000
  C   C23       1.0  0.47871885094201627  0.7024945302952332  0.8147948704388526  1.0000
  C   C24       1.0  0.7758020318829324  0.29728543657461165  0.6852495071047713  1.0000
  C   C25       1.0  0.6176360197945527  0.3557851738300855  0.127134788119065  1.0000
  C   C26       1.0  0.26224804815887387  0.6445271908153387  0.37288820784640814  1.0000
  C   C27       1.0  0.3823725451711014  0.6442240755196238  0.8728671139314484  1.0000
  C   C28       1.0  0.7377518263536729  0.3554706987164025  0.6271109338516538  1.0000
  C   C29       1.0  0.5323949602261068  0.4396395509025908  0.1016639206570815  1.0000
  C   C30       1.0  0.09323428003929021  0.5607534854506113  0.3983932273841333  1.0000
  C   C31       1.0  0.4676197332423229  0.5603668771724128  0.8983381316501989  1.0000
  C   C32       1.0  0.9067777463233712  0.43924156846720314  0.601605503909191  1.0000
  C   C33       1.0  0.3557050513936558  0.46563245602106906  0.13498957694451258  1.0000
  C   C34       1.0  0.8906479652030157  0.5347037823860743  0.365015643288089  1.0000
  C   C35       1.0  0.6443049291334974  0.534379626728537  0.8650127350041074  1.0000
  C   C36       1.0  0.10935970270634238  0.46528556491234935  0.6349805869563595  1.0000
  C   C37       1.0  0.26092579519904996  0.4122700024258491  0.19386791876861756  1.0000
  C   C38       1.0  0.8492845162324941  0.5880496960662639  0.30609600752156746  1.0000
  C   C39       1.0  0.7390761429564989  0.5877410703111251  0.8061314546471434  1.0000
  C   C40       1.0  0.15072053646178327  0.4119434699023046  0.6939024507315351  1.0000
  C   C41       1.0  0.34502134681638813  0.3281322206150676  0.2178663543869774  1.0000
  C   C42       1.0  0.01742699351244438  0.6721342554541677  0.2820789184771328  1.0000
  C   C43       1.0  0.654978802465884  0.6718722539646933  0.7821326229799225  1.0000
  C   C44       1.0  0.9825724157596483  0.3278627029661506  0.7179206470245632  1.0000
  C   C45       1.0  0.6039804165096428  0.20322616855301587  0.20829041824745786  1.0000
  C   C46       1.0  0.4011821218398736  0.7969178958196392  0.29168528543844013  1.0000
  C   C47       1.0  0.39600835501587994  0.7967736385904303  0.7917101180390063  1.0000
  C   C48       1.0  0.5988212328934922  0.2030809243315232  0.7083134323434095  1.0000
  N   N1        1.0  0.9601018390868249  0.09843176583363795  0.3427545640275795  1.0000
  N   N2        1.0  0.8620350659848837  0.9015953025948418  0.15720416339269144  1.0000
  N   N3        1.0  0.039897124784928996  0.9015643015408584  0.657247106586716  1.0000
  N   N4        1.0  0.1379608042045817  0.09840362562796658  0.8427990381612318  1.0000
  N   N5        1.0  0.2542028497686318  0.1282992326378292  0.4114691002707573  1.0000
  N   N6        1.0  0.12633439959097356  0.871558002117318  0.08852953570350046  1.0000
  N   N7        1.0  0.7457965595034537  0.8716977257824823  0.5885304652309385  1.0000
  N   N8        1.0  0.8736600351968703  0.12843805263999286  0.9114715746433504  1.0000
  Cl  Cl1       1.0  0.24639753882043178  0.5659299336398788  0.10124780093061496  1.0000
  Cl  Cl2       1.0  0.6810584338035852  0.4343324726775108  0.39866175674446674  1.0000
  Cl  Cl3       1.0  0.7536120287146986  0.4340783042211811  0.8987511622492833  1.0000
  Cl  Cl4       1.0  0.3189466122773154  0.5656606799358526  0.6013361410723093  1.0000
  O   O1        1.0  0.5052893789374694  0.14099942890604208  0.2545347882032303  1.0000
  O   O2        1.0  0.3646606147825438  0.8593030658133214  0.2455198680313301  1.0000
  O   O3        1.0  0.49468442879649643  0.8589945664984099  0.7454587639378119  1.0000
  O   O4        1.0  0.6353411735988388  0.1406986550057567  0.7544820619428378  1.0000
  O   O5        1.0  0.7715899576842347  0.18254493417263967  0.1787336289853556  1.0000
  O   O6        1.0  0.5894546621400423  0.8174501742737444  0.3211676057667744  1.0000
  O   O7        1.0  0.22841065749706488  0.8174634921372995  0.8212731806408655  1.0000
  O   O8        1.0  0.4105427545612771  0.18254581321553326  0.6788307022858646  1.0000
  O   O9        1.0  0.7883345475341914  0.33038967202367076  0.09466358584901968  1.0000
  O   O10       1.0  0.4583087431810713  0.6698908577213986  0.405336363357975  1.0000
  O   O11       1.0  0.2116641273247737  0.6696148695781119  0.9053381937558028  1.0000
  O   O12       1.0  0.5416955618733325  0.33010986471823134  0.594663188125601  1.0000
