data_image0
_chemical_formula_structural       Cu4H24C24I4N8O4
_chemical_formula_sum              "Cu4 H24 C24 I4 N8 O4"
_cell_length_a       4.057796199000381
_cell_length_b       13.334297050096588
_cell_length_c       14.857087901764926
_cell_angle_alpha    105.55957056331823
_cell_angle_beta     90.00004118101056
_cell_angle_gamma    89.99997301282718

_space_group_name_H-M_alt    "P 1"
_space_group_IT_number       1

loop_
  _space_group_symop_operation_xyz
  'x, y, z'

loop_
  _atom_site_type_symbol
  _atom_site_label
  _atom_site_symmetry_multiplicity
  _atom_site_fract_x
  _atom_site_fract_y
  _atom_site_fract_z
  _atom_site_occupancy
  Cu  Cu1       1.0  0.8653600014942242  0.53616091083574  0.8075618211223414  1.0000
  Cu  Cu2       1.0  0.6346379227875687  0.5361646135548596  0.3075622776344034  1.0000
  Cu  Cu3       1.0  0.134639758716979  0.46383735263921716  0.19243565815094854  1.0000
  Cu  Cu4       1.0  0.36535690863922105  0.4638375424528433  0.6924354663469146  1.0000
  H   H1        1.0  0.48445773242367807  0.9777195471965923  0.290202629003808  1.0000
  H   H2        1.0  0.0155512786075462  0.9777166931458793  0.7902050135622646  1.0000
  H   H3        1.0  0.5155494209685118  0.02227949397361329  0.7097984030293106  1.0000
  H   H4        1.0  0.984453410393577  0.022280012442884398  0.209796128862493  1.0000
  H   H5        1.0  0.1188910433682295  0.6393132189671251  0.9989263047471654  1.0000
  H   H6        1.0  0.3810818419707828  0.6393176508922025  0.49892428386993976  1.0000
  H   H7        1.0  0.8811037880577716  0.3606811522878104  0.0010695637338003113  1.0000
  H   H8        1.0  0.6189055962748711  0.36068217046970813  0.5010695322514778  1.0000
  H   H9        1.0  0.8125221569702319  0.9611118785408478  0.0627795557228055  1.0000
  H   H10       1.0  0.6874846240128533  0.9611136600677308  0.5627851037021969  1.0000
  H   H11       1.0  0.18748992521008026  0.0388887189559739  0.937224543578168  1.0000
  H   H12       1.0  0.3125102074253546  0.038886937274980896  0.437219668639699  1.0000
  H   H13       1.0  0.5517957508447182  0.9192082112374889  0.9029227585056105  1.0000
  H   H14       1.0  0.9482096531588767  0.9192102919686247  0.4029296049789508  1.0000
  H   H15       1.0  0.4482212601153747  0.08079472230809868  0.0970792112782277  1.0000
  H   H16       1.0  0.0517802494958914  0.08079341927568608  0.5970759175628118  1.0000
  H   H17       1.0  0.5871621288607758  0.7384068841224192  0.8007530752891512  1.0000
  H   H18       1.0  0.9128307334924061  0.7384113086871051  0.3007550961696595  1.0000
  H   H19       1.0  0.4128474889236031  0.2615952709486321  0.19924870694424607  1.0000
  H   H20       1.0  0.0871616335440208  0.26159551801664077  0.6992444461536067  1.0000
  H   H21       1.0  0.26112945539654925  0.749182060619262  0.14999012956432273  1.0000
  H   H22       1.0  0.23886445696496142  0.7491807192450961  0.6499888756437713  1.0000
  H   H23       1.0  0.7388850911711912  0.2508162020749154  0.850010714919165  1.0000
  H   H24       1.0  0.7611303744615155  0.25081832286149813  0.3500081181374028  1.0000
  C   C1        1.0  0.9911403239490824  0.7035894058083938  0.9811946315092896  1.0000
  C   C2        1.0  0.5088309426914392  0.7035946912555031  0.4811941031401473  1.0000
  C   C3        1.0  0.0088545074846849  0.2964088567319222  0.0188068860149926  1.0000
  C   C4        1.0  0.4911564955584993  0.2964059079582526  0.5188025926988189  1.0000
  C   C5        1.0  0.9832872783792296  0.8028588459019159  0.04435096454199784  1.0000
  C   C6        1.0  0.5166973529278494  0.8028606627800983  0.5443531284448753  1.0000
  C   C7        1.0  0.016712481836187  0.19713941694961074  0.955649206898805  1.0000
  C   C8        1.0  0.4832950141110359  0.1971391571785901  0.4556467450537128  1.0000
  C   C9        1.0  0.8222983483142556  0.8827795525838695  0.016180248553261823  1.0000
  C   C10       1.0  0.6776886150476784  0.8827828938216981  0.51618280534219  1.0000
  C   C11       1.0  0.1776989475155233  0.11721793085748539  0.9838237735886254  1.0000
  C   C12       1.0  0.3222914300343049  0.11722081820290238  0.48381935198964504  1.0000
  C   C13       1.0  0.677982528762179  0.8601407629024463  0.9283675960914695  1.0000
  C   C14       1.0  0.822025451908992  0.860145983235597  0.4283745057822657  1.0000
  C   C15       1.0  0.3220246246215126  0.13985750103933728  0.0716278640566017  1.0000
  C   C16       1.0  0.17796691513036217  0.13985850757475043  0.5716264930165238  1.0000
  C   C17       1.0  0.6965072995906779  0.7590830209652208  0.8702813436338416  1.0000
  C   C18       1.0  0.8034906976506376  0.7590882462964071  0.37028286694247475  1.0000
  C   C19       1.0  0.3035047825863941  0.24091679852389794  0.1297205489914646  1.0000
  C   C20       1.0  0.19650166938571087  0.24091780193206347  0.6297164878307555  1.0000
  C   C21       1.0  0.15506198336056087  0.8176793089468646  0.13297512189827643  1.0000
  C   C22       1.0  0.34494662424064865  0.8176802809012639  0.6329771345143484  1.0000
  C   C23       1.0  0.8449476344210893  0.1823166186336991  0.867023813851084  1.0000
  C   C24       1.0  0.655055600367703  0.1823179817941565  0.3670237099684641  1.0000
  I   I1        1.0  0.8614413477660036  0.5621782990950094  0.6391604266124062  1.0000
  I   I2        1.0  0.6385584996276136  0.5621788869636716  0.13916080639923223  1.0000
  I   I3        1.0  0.1385485548748377  0.4378230787496307  0.36083578373484937  1.0000
  I   I4        1.0  0.36144865375825214  0.43782015514167216  0.8608361873826242  1.0000
  N   N1        1.0  0.8522224262696766  0.6818791606803101  0.8958865890643041  1.0000
  N   N2        1.0  0.6477658362077605  0.6818836396836756  0.39588521545165634  1.0000
  N   N3        1.0  0.1477896559074026  0.31812065880880874  0.10411530356099519  1.0000
  N   N4        1.0  0.352221602043933  0.3181239656517078  0.6041138413794941  1.0000
  N   N5        1.0  0.2022896510590897  0.909068415273566  0.18858528342234848  1.0000
  N   N6        1.0  0.2977141512120056  0.909070175264517  0.6885874783705432  1.0000
  N   N7        1.0  0.7977175023326241  0.09092595504498037  0.8114146233105546  1.0000
  N   N8        1.0  0.7022954665709306  0.09092808758601476  0.3114126930707997  1.0000
  O   O1        1.0  0.3780797780837375  0.9061375012862598  0.2682913084545788  1.0000
  O   O2        1.0  0.1219292039783895  0.9061369609703219  0.7682949404575155  1.0000
  O   O3        1.0  0.6219249109174713  0.09385998277777928  0.7317100215202148  1.0000
  O   O4        1.0  0.8780730206319872  0.09386052293810816  0.23170706255901763  1.0000
