data_image0
_chemical_formula_structural       Al4H12C68O28F24
_chemical_formula_sum              "Al4 H12 C68 O28 F24"
_cell_length_a       6.645398192527545
_cell_length_b       23.6222986223932
_cell_length_c       26.191920980091798
_cell_angle_alpha    78.48254277886063
_cell_angle_beta     90.38951428383322
_cell_angle_gamma    90.4923597689734

_space_group_name_H-M_alt    "P 1"
_space_group_IT_number       1

loop_
  _space_group_symop_operation_xyz
  'x, y, z'

loop_
  _atom_site_type_symbol
  _atom_site_label
  _atom_site_symmetry_multiplicity
  _atom_site_fract_x
  _atom_site_fract_y
  _atom_site_fract_z
  _atom_site_occupancy
  Al  Al1       1.0  0.7322014047171521  0.25395554057757846  0.7488916346956601  1.0000
  Al  Al2       1.0  0.256040699967663  0.7500775086960867  0.2510806503600165  1.0000
  Al  Al3       1.0  0.23181593319543484  0.24884123242156156  0.7502203190382134  1.0000
  Al  Al4       1.0  0.7567202798746493  0.7523584661134063  0.24997279422023416  1.0000
  H   H1        1.0  0.0030160384347582008  0.39411374681758826  0.03410744959812461  1.0000
  H   H2        1.0  0.0080472239648302  0.6064119981275695  0.9673653922881726  1.0000
  H   H3        1.0  0.5075340397303166  0.10570409071747379  0.46521514537874975  1.0000
  H   H4        1.0  0.4947630022961819  0.8942290647091082  0.5360561490799469  1.0000
  H   H5        1.0  0.6856747680070043  0.7865335919073075  0.08749709110328752  1.0000
  H   H6        1.0  0.5814020499934146  0.364300089431687  0.8065884853245964  1.0000
  H   H7        1.0  0.9164402438238213  0.860964826095312  0.30713847185759147  1.0000
  H   H8        1.0  0.08184042612287361  0.14095825495075326  0.6917934511758758  1.0000
  H   H9        1.0  0.46958874048191757  0.3245728904084118  0.7227780987274882  1.0000
  H   H10       1.0  0.5071789822417047  0.683285515906803  0.23492612146636563  1.0000
  H   H11       1.0  0.9663290981733184  0.17742079341915232  0.7749508084965414  1.0000
  H   H12       1.0  0.0165292692076449  0.8241641384196255  0.22155917467613762  1.0000
  C   C1        1.0  0.48715760763049337  0.17396017744540868  0.8249476690192666  1.0000
  C   C2        1.0  0.5054331449140221  0.8295016501845109  0.17459550706711016  1.0000
  C   C3        1.0  0.9886934339077555  0.3285444482722894  0.6739991589274866  1.0000
  C   C4        1.0  0.9991534234464226  0.6755997995009082  0.3266442601822703  1.0000
  C   C5        1.0  0.4841264342338292  0.19197470762620122  0.6835988794850894  1.0000
  C   C6        1.0  0.5057259513000076  0.8093209882332743  0.31656991746898205  1.0000
  C   C7        1.0  0.9884398766016034  0.31050845042039293  0.8155277216659088  1.0000
  C   C8        1.0  0.007549962744789701  0.6900467187197917  0.1863087821618379  1.0000
  C   C9        1.0  0.15118755918416585  0.6087842633556021  0.1498633387476147  1.0000
  C   C10       1.0  0.8620996239319965  0.34113738231056356  0.8962248020884047  1.0000
  C   C11       1.0  0.6371686112006643  0.8396294874555466  0.3976441956241744  1.0000
  C   C12       1.0  0.3585867964011556  0.16059583418918777  0.6025106442178654  1.0000
  C   C13       1.0  0.15024445443035012  0.5722518629965733  0.11406548137577491  1.0000
  C   C14       1.0  0.8663117121637284  0.37868756877423937  0.9310651649389571  1.0000
  C   C15       1.0  0.6348853458559915  0.8768986790956319  0.43275134766305007  1.0000
  C   C16       1.0  0.3634713555039255  0.12296819643376006  0.5677542270721077  1.0000
  C   C17       1.0  0.0061496028886907  0.5769391414966236  0.07432742442072991  1.0000
  C   C18       1.0  0.010130533653260401  0.4229270702042952  0.9275877821627959  1.0000
  C   C19       1.0  0.49270334129636956  0.9209009109011744  0.429148173557138  1.0000
  C   C20       1.0  0.5067880297176544  0.07918952724769204  0.5720198848627476  1.0000
  C   C21       1.0  0.8630122463945044  0.6206915717431086  0.0724183513862116  1.0000
  C   C22       1.0  0.15420612011450882  0.4261360461104218  0.8880062028508676  1.0000
  C   C23       1.0  0.34725598825826154  0.9239074780069244  0.38948974822614707  1.0000
  C   C24       1.0  0.6504414203595273  0.07679476690112355  0.6120184909995602  1.0000
  C   C25       1.0  0.859649381127241  0.6579323184296229  0.10737220143221998  1.0000
  C   C26       1.0  0.1530787241912535  0.3898089515906447  0.8523089425617486  1.0000
  C   C27       1.0  0.346072976474602  0.8878299021477003  0.3536504724535164  1.0000
  C   C28       1.0  0.6489216967724191  0.1132316793668124  0.64758247200907  1.0000
  C   C29       1.0  0.007247980787127504  0.6520301293183195  0.14697596264799273  1.0000
  C   C30       1.0  0.0002099084353801984  0.3475330646958524  0.8555823484109412  1.0000
  C   C31       1.0  0.4982224767275127  0.8460604310514552  0.35680881933487296  1.0000
  C   C32       1.0  0.49547323169328905  0.15474265758045652  0.6437772349472296  1.0000
  C   C33       1.0  0.002963412986872498  0.47802286128253246  0.05312787343341802  1.0000
  C   C34       1.0  0.0096436090716452  0.5224832889975985  0.9482204883116766  1.0000
  C   C35       1.0  0.49953668750409724  0.020962718448750195  0.4479699599987513  1.0000
  C   C36       1.0  0.5031085582151675  0.9789900493493416  0.5533303240725048  1.0000
  C   C37       1.0  0.0053567139423336  0.4404729862909703  0.0187374934703257  1.0000
  C   C38       1.0  0.007857617194815699  0.5600554059522549  0.9826606762639187  1.0000
  C   C39       1.0  0.5038622555870091  0.05955323063786008  0.4814485878678312  1.0000
  C   C40       1.0  0.4987285348735142  0.940385731693823  0.5198427593926596  1.0000
  C   C41       1.0  0.0104559615346389  0.46228513343290695  0.9648572056512279  1.0000
  C   C42       1.0  0.006206882853092601  0.5382123154888775  0.03652815036746661  1.0000
  C   C43       1.0  0.506251677225464  0.03900366840671407  0.535518735120192  1.0000
  C   C44       1.0  0.49589527888830537  0.9609400897684421  0.46577497878185886  1.0000
  C   C45       1.0  0.16556984684613946  0.4940942642654633  0.533145517466096  1.0000
  C   C46       1.0  0.8297206589878955  0.5098941641576146  0.46776699717477754  1.0000
  C   C47       1.0  0.6637953377557437  0.008096943240609333  0.9651820460369012  1.0000
  C   C48       1.0  0.332698748729058  0.9918576919343562  0.031365053385620505  1.0000
  C   C49       1.0  0.9993350793913294  0.45636263914730074  0.5450865796093752  1.0000
  C   C50       1.0  0.9957202453113612  0.5477518440457202  0.4558797233847187  1.0000
  C   C51       1.0  0.4981461725806041  0.045509220848650486  0.9535119106741591  1.0000
  C   C52       1.0  0.498356893251561  0.9544366179390096  0.04304068266291241  1.0000
  C   C53       1.0  0.8315604528150403  0.46534883889692924  0.5112255844065173  1.0000
  C   C54       1.0  0.16359579455959763  0.538699631523684  0.48972161035877804  1.0000
  C   C55       1.0  0.3327423070685072  0.03623250615289915  0.98773498597663  1.0000
  C   C56       1.0  0.6635563791313928  0.9636751305435992  0.008754159398471002  1.0000
  C   C57       1.0  0.9991973708238789  0.4116722584810546  0.5894707687760886  1.0000
  C   C58       1.0  0.9950309502717829  0.5926227733784016  0.4116105388661495  1.0000
  C   C59       1.0  0.49685273948333014  0.09026941911263008  0.9091753866440371  1.0000
  C   C60       1.0  0.4998248536742623  0.9100598966452723  0.0877268570946228  1.0000
  C   C61       1.0  0.9965414359830261  0.631127543274438  0.37309157668877196  1.0000
  C   C62       1.0  0.9956022856031622  0.3733017011838342  0.6280642659147587  1.0000
  C   C63       1.0  0.5008863812808073  0.8725065983422692  0.12702817451195614  1.0000
  C   C64       1.0  0.4934770318439163  0.12883028665084584  0.8707217580868943  1.0000
  C   C65       1.0  0.7033708481242373  0.7044831791649102  0.10073720511175571  1.0000
  C   C66       1.0  0.3134519058880372  0.3934053293481127  0.8110284087066761  1.0000
  C   C67       1.0  0.1844343397201271  0.8914557612871616  0.3121918426122506  1.0000
  C   C68       1.0  0.8115724684976869  0.11081335574363035  0.6886848679032482  1.0000
  O   O1        1.0  0.31081674223307226  0.19958881444107848  0.7018303723880662  1.0000
  O   O2        1.0  0.6760970506982815  0.8025676539138967  0.2966325513329621  1.0000
  O   O3        1.0  0.814133420380294  0.3023132033916127  0.7974313146809706  1.0000
  O   O4        1.0  0.17802450252588642  0.7061436153827143  0.2002444822510014  1.0000
  O   O5        1.0  0.6549538494166997  0.1944024522558933  0.8064488533711726  1.0000
  O   O6        1.0  0.3372061089465249  0.813953069034895  0.19566638184131344  1.0000
  O   O7        1.0  0.15629346703016725  0.30783210377740733  0.6923696264431669  1.0000
  O   O8        1.0  0.829925262637879  0.696473408654569  0.30994774220523885  1.0000
  O   O9        1.0  0.6501754615965822  0.2109642315589397  0.6971912329760529  1.0000
  O   O10       1.0  0.33890904145693673  0.7897584522093979  0.30409664138897347  1.0000
  O   O11       1.0  0.1536949831079966  0.2923810389654591  0.8016722216236688  1.0000
  O   O12       1.0  0.8368561237823969  0.7022597150555898  0.2029462728117082  1.0000
  O   O13       1.0  0.8153682161321996  0.3136000919187509  0.692597096138222  1.0000
  O   O14       1.0  0.1699542881858207  0.6893071721396496  0.30614017692747103  1.0000
  O   O15       1.0  0.3136066880011725  0.18934043373030815  0.8067508668774793  1.0000
  O   O16       1.0  0.6795469142212769  0.8113954162071693  0.19063475120810844  1.0000
  O   O17       1.0  0.4794115034517716  0.28714430488022197  0.7462553162451115  1.0000
  O   O18       1.0  0.5070390667537694  0.7170048241377956  0.2509251134604114  1.0000
  O   O19       1.0  0.9778463010215289  0.2155904653652456  0.752728929750191  1.0000
  O   O20       1.0  0.008349763154647897  0.7876081303197251  0.24639901110958112  1.0000
  O   O21       1.0  0.5224896844755804  0.6960249213344055  0.1034200118982653  1.0000
  O   O22       1.0  0.7917855938302694  0.7574727408494226  0.08950947813320911  1.0000
  O   O23       1.0  0.285126215189571  0.41101422000038906  0.7645839905005972  1.0000
  O   O24       1.0  0.48789815383568685  0.3727088835554468  0.8331804716772312  1.0000
  O   O25       1.0  0.21191229061698644  0.9100980115435744  0.2659132650062119  1.0000
  O   O26       1.0  0.010692380653992502  0.869612455935865  0.3339203717446821  1.0000
  O   O27       1.0  0.7859554533686224  0.09403113656102141  0.7353163292768629  1.0000
  O   O28       1.0  0.9849881328780867  0.1313836990628374  0.6659271294903633  1.0000
  F   F1        1.0  0.2914613638892689  0.5994084085529323  0.18803776108406106  1.0000
  F   F2        1.0  0.7263737453315569  0.297541208406379  0.9039453342292488  1.0000
  F   F3        1.0  0.7715301017749995  0.7962904435261179  0.40518673729165766  1.0000
  F   F4        1.0  0.22370101324388972  0.20382983080618536  0.5941237883140432  1.0000
  F   F5        1.0  0.2958522677505543  0.5322206091185676  0.11799942641423658  1.0000
  F   F6        1.0  0.7243144639099128  0.3718645855100178  0.9685785601589033  1.0000
  F   F7        1.0  0.7771872989721729  0.8701515953690159  0.4705697669699092  1.0000
  F   F8        1.0  0.22261735734693394  0.12922999373657967  0.5295936619946887  1.0000
  F   F9        1.0  0.7223507723878767  0.62729986487237  0.0338648518014679  1.0000
  F   F10       1.0  0.3038127089192528  0.46603691823374044  0.8851856680584475  1.0000
  F   F11       1.0  0.19871939002576514  0.9634584330573828  0.38670398615499824  1.0000
  F   F12       1.0  0.800124711987884  0.03753129213992417  0.6153944587793633  1.0000
  F   F13       1.0  0.9927767756533116  0.4550870659284455  0.10499982337874061  1.0000
  F   F14       1.0  0.0057995214303617005  0.5453315531110263  0.8963105785305957  1.0000
  F   F15       1.0  0.5042717281222195  0.042608852075744594  0.3958485952705928  1.0000
  F   F16       1.0  0.4982697962467101  0.9573459996086482  0.6054589973982518  1.0000
  F   F17       1.0  0.3242336181622322  0.5741052233949941  0.47990340966560313  1.0000
  F   F18       1.0  0.67096416960635  0.42987823703081307  0.5210647229528504  1.0000
  F   F19       1.0  0.823601201168735  0.9285269288505091  0.0183963207275895  1.0000
  F   F20       1.0  0.1726849766082665  0.07126460450641764  0.9781812829706455  1.0000
  F   F21       1.0  0.32797662174708364  0.4871431234193934  0.5646044143997032  1.0000
  F   F22       1.0  0.6674532505964593  0.5166473286624013  0.43621833798852094  1.0000
  F   F23       1.0  0.823903489988048  0.015273499333467578  0.933401490967704  1.0000
  F   F24       1.0  0.17288848463742573  0.984817291446646  0.06324803232264742  1.0000
