data_image0
_chemical_formula_structural       Zn8H64C80N24O26
_chemical_formula_sum              "Zn8 H64 C80 N24 O26"
_cell_length_a       23.929699968033916
_cell_length_b       23.929501683131708
_cell_length_c       23.93004487991167
_cell_angle_alpha    66.46020254393935
_cell_angle_beta     72.52756951992023
_cell_angle_gamma    107.47746585285395

_space_group_name_H-M_alt    "P 1"
_space_group_IT_number       1

loop_
  _space_group_symop_operation_xyz
  'x, y, z'

loop_
  _atom_site_type_symbol
  _atom_site_label
  _atom_site_symmetry_multiplicity
  _atom_site_fract_x
  _atom_site_fract_y
  _atom_site_fract_z
  _atom_site_occupancy
  Zn  Zn1       1.0  0.05668703541115871  0.9581708486669811  0.4858925299168888  1.0000
  Zn  Zn2       1.0  0.056701840685519825  0.09852452114378712  0.4574164882069168  1.0000
  Zn  Zn3       1.0  0.9432979107471843  0.9858688866386204  0.45817194473480044  1.0000
  Zn  Zn4       1.0  0.9433058297406804  0.9574300580108429  0.5985269231461318  1.0000
  Zn  Zn5       1.0  0.944049054384145  0.5425704326031067  0.014114372675322957  1.0000
  Zn  Zn6       1.0  0.05596035020072795  0.5141317683436101  0.04256983332659552  1.0000
  Zn  Zn7       1.0  0.9440491668805893  0.40147993785609526  0.04182582735324999  1.0000
  Zn  Zn8       1.0  0.05595592875535271  0.5418339046446263  0.9014823490902298  1.0000
  H   H1        1.0  0.9241689688102005  0.7161210288637752  0.17544997107731283  1.0000
  H   H2        1.0  0.07578538132452933  0.6754197490854567  0.21616365485220246  1.0000
  H   H3        1.0  0.9237557791431857  0.8243705480660994  0.284833924525081  1.0000
  H   H4        1.0  0.07614651366001378  0.7846407732774736  0.32458771352593635  1.0000
  H   H5        1.0  0.07582001511435274  0.4003814619242974  0.7080583659547128  1.0000
  H   H6        1.0  0.9241981822555518  0.208058237216875  0.9003567933411458  1.0000
  H   H7        1.0  0.07619400809571895  0.2915077118273359  0.5992757041108161  1.0000
  H   H8        1.0  0.9237704673254472  0.09939866802123737  0.7913849096958  1.0000
  H   H9        1.0  0.6092162496453001  0.40065741860573223  0.1755375098373833  1.0000
  H   H10       1.0  0.6092137655487379  0.20854979992253686  0.21519991628224483  1.0000
  H   H11       1.0  0.39158324229574515  0.2919433804965551  0.2838497848275736  1.0000
  H   H12       1.0  0.39156197745197124  0.09961500737749428  0.3245428947782114  1.0000
  H   H13       1.0  0.3907899021241407  0.6754772409032271  0.9006997058206917  1.0000
  H   H14       1.0  0.39078776258919146  0.7151721371168023  0.7085855878499173  1.0000
  H   H15       1.0  0.6084325282783072  0.783853229850628  0.7919363432400458  1.0000
  H   H16       1.0  0.608419528176356  0.8245469646481499  0.5996362425190608  1.0000
  H   H17       1.0  0.9210309517317304  0.8452796372858844  0.7485812030353569  1.0000
  H   H18       1.0  0.9116020122832541  0.8032917656035752  0.8306708588283694  1.0000
  H   H19       1.0  0.09382449264015963  0.6695744007234339  0.7514301482905735  1.0000
  H   H20       1.0  0.13395170052804434  0.7422563997783413  0.6693466363984084  1.0000
  H   H21       1.0  0.9061472555619974  0.6547057588441163  0.9242448818634083  1.0000
  H   H22       1.0  0.8660404849838488  0.6966878042837552  0.8916881342784676  1.0000
  H   H23       1.0  0.07899602903347626  0.8304387770739512  0.5757569149352618  1.0000
  H   H24       1.0  0.08838918847393988  0.7577529672835085  0.6083117909902497  1.0000
  H   H25       1.0  0.9210013576182802  0.0757422275256232  0.3303922362072527  1.0000
  H   H26       1.0  0.9115874221498076  0.10830230036314961  0.2577182976335665  1.0000
  H   H27       1.0  0.093843539006592  0.4242472846855137  0.15475197406697552  1.0000
  H   H28       1.0  0.1339471186294787  0.391683078665551  0.19673205830482499  1.0000
  H   H29       1.0  0.9061617032469444  0.2514507863334999  0.16957333715314596  1.0000
  H   H30       1.0  0.866042063742505  0.1693553112533907  0.2422396532977017  1.0000
  H   H31       1.0  0.07896414911965632  0.24853929479415637  0.3452821841781527  1.0000
  H   H32       1.0  0.08837241109743135  0.3306290862721539  0.3033247667603476  1.0000
  H   H33       1.0  0.9168067324036431  0.6353020669390118  0.0780076893972392  1.0000
  H   H34       1.0  0.8901335936808155  0.6833963374910966  0.1081054995710601  1.0000
  H   H35       1.0  0.08318538198937404  0.5780068746312852  0.1353189231858564  1.0000
  H   H36       1.0  0.10984118625040673  0.6080992057355135  0.1834225122812753  1.0000
  H   H37       1.0  0.9082886453918634  0.9115281760627807  0.3759730492022228  1.0000
  H   H38       1.0  0.8790906078921601  0.8783629898035489  0.33091321849134603  1.0000
  H   H39       1.0  0.09166937909404285  0.8759017452098875  0.4116353085338458  1.0000
  H   H40       1.0  0.12086526395272307  0.8308036719976357  0.3784945536812429  1.0000
  H   H41       1.0  0.0832092887725297  0.5051898604168985  0.7815105877293715  1.0000
  H   H42       1.0  0.10987470903458557  0.5017526027079813  0.7067542616435104  1.0000
  H   H43       1.0  0.916819878779002  0.28149800292084864  0.005170396237765775  1.0000
  H   H44       1.0  0.8901576324090003  0.20674329991756946  0.0017392400828624625  1.0000
  H   H45       1.0  0.09170204576915356  0.21577582381629415  0.49670020113665453  1.0000
  H   H46       1.0  0.12090112144365156  0.29006815734211244  0.5006449996702499  1.0000
  H   H47       1.0  0.9082873287646441  0.9967672083654127  0.7157193468649363  1.0000
  H   H48       1.0  0.8790928372941097  0.0007427056081397099  0.789968567556343  1.0000
  H   H49       1.0  0.7875141175487671  0.5032591577511027  0.08845832046165464  1.0000
  H   H50       1.0  0.7092853803895239  0.49929811372547317  0.12161114947120674  1.0000
  H   H51       1.0  0.7875028417027822  0.28423416659228457  0.1240490463469754  1.0000
  H   H52       1.0  0.709282567395178  0.20997420286957458  0.16909842317429016  1.0000
  H   H53       1.0  0.21332654986766642  0.21849926263890757  0.3646910826552769  1.0000
  H   H54       1.0  0.29151481753917363  0.2932582066181126  0.3165884431692517  1.0000
  H   H55       1.0  0.21330230783115706  0.9948123158115153  0.42195855426133716  1.0000
  H   H56       1.0  0.2915014193201418  0.9982418510066255  0.39185704862397586  1.0000
  H   H57       1.0  0.21249080329305803  0.5884258742874807  0.0032739288265090506  1.0000
  H   H58       1.0  0.29073155972301395  0.6215659408577922  0.9993214655101637  1.0000
  H   H59       1.0  0.2124909077336314  0.6240460944192564  0.7842535746738902  1.0000
  H   H60       1.0  0.2907024464556331  0.6690863664503582  0.7100106678545898  1.0000
  H   H61       1.0  0.7866797568552999  0.8646696166881043  0.718504940865827  1.0000
  H   H62       1.0  0.7085016925901759  0.816586562897662  0.7932482760517556  1.0000
  H   H63       1.0  0.7866752237805058  0.9219893373806299  0.49482403273610487  1.0000
  H   H64       1.0  0.7084779894152364  0.8918794247028006  0.49825833185774826  1.0000
  C   C1        1.0  0.18364911099958905  0.09182045729687624  0.40817287655594464  1.0000
  C   C2        1.0  6.917202455327896e-07  0.138907425844792  0.3610515638789308  1.0000
  C   C3        1.0  0.9999744995938549  0.9085215238981735  0.4086360572577161  1.0000
  C   C4        1.0  0.8163505351566376  0.9081722788374976  0.5918252126249823  1.0000
  C   C5        1.0  2.577400133004647e-05  0.8611093854103516  0.6389374031506488  1.0000
  C   C6        1.0  0.9999987736599182  0.091462981484277  0.5913816044827908  1.0000
  C   C7        1.0  0.9999985686299839  0.5918258369683472  0.09181848755041946  1.0000
  C   C8        1.0  1.2714985416732993e-05  0.36108666338328993  0.13891658842309335  1.0000
  C   C9        1.0  0.81715404567823  0.40857263498399043  0.09141537499415599  1.0000
  C   C10       1.0  1.5602228842945474e-06  0.4081767392126636  0.908178470952734  1.0000
  C   C11       1.0  0.9999963503706512  0.6389153539905197  0.8610684551275015  1.0000
  C   C12       1.0  0.18285444142907895  0.5914164492231819  0.9085915317125381  1.0000
  C   C13       1.0  1.7922864579269873e-05  0.8048077826518211  0.6952227959042075  1.0000
  C   C14       1.0  0.9999983572855203  0.6952095527651638  0.8047831683759125  1.0000
  C   C15       1.0  0.9576657087535599  0.7779225710019237  0.7663711347434723  1.0000
  C   C16       1.0  0.0442795315208145  0.7240240208077324  0.7336371250863606  1.0000
  C   C17       1.0  0.95572837638948  0.7220870731472147  0.820258081646891  1.0000
  C   C18       1.0  0.042358885503944205  0.7760023174658528  0.6797489299162576  1.0000
  C   C19       1.0  2.0862361083828912e-06  0.19520516388628556  0.3047688160402443  1.0000
  C   C20       1.0  3.616620198070146e-06  0.30478744281901987  0.19520558902144808  1.0000
  C   C21       1.0  0.9576489096219734  0.17973997727617796  0.275966158783028  1.0000
  C   C22       1.0  0.04426870327798586  0.3202515942831354  0.22209619772722525  1.0000
  C   C23       1.0  0.9557219827382756  0.23363871481439014  0.2240053394656838  1.0000
  C   C24       1.0  0.04233765390517874  0.2663522094870033  0.27791513386415545  1.0000
  C   C25       1.0  0.9999904136511408  0.6283424725514312  0.12834334488042018  1.0000
  C   C26       1.0  0.9564332433627742  0.6585851186614137  0.13541599801317253  1.0000
  C   C27       1.0  0.957407909103381  0.6936533756101753  0.17042099226455318  1.0000
  C   C28       1.0  0.9999752033186271  0.6995158982490751  0.19956226086279832  1.0000
  C   C29       1.0  0.042559922954666575  0.6704025886007374  0.19368031417021558  1.0000
  C   C30       1.0  0.04354216651859871  0.6354169884792784  0.1585954375136821  1.0000
  C   C31       1.0  0.9999616569911897  0.7349024254192856  0.2350067195684387  1.0000
  C   C32       1.0  0.9999520019371322  0.7653510156267062  0.26553605735225017  1.0000
  C   C33       1.0  0.9999450884286324  0.8007478594504537  0.30096104592551814  1.0000
  C   C34       1.0  0.9568908580148521  0.829275735367361  0.3074370443776499  1.0000
  C   C35       1.0  0.9563576892204683  0.8648282047095537  0.3419436581064941  1.0000
  C   C36       1.0  0.9999660617413328  0.8719767997144672  0.37213738973446187  1.0000
  C   C37       1.0  0.04356747541928762  0.8417778410453353  0.36500914125312517  1.0000
  C   C38       1.0  0.04300432351561089  0.8072366579177983  0.32949145834564303  1.0000
  C   C39       1.0  9.715210019684906e-06  0.37166010461425714  0.8716531953432349  1.0000
  C   C40       1.0  0.043574508236858454  0.40814663316655947  0.7978595637805979  1.0000
  C   C41       1.0  0.04258931891300944  0.37217444792496224  0.763758962603802  1.0000
  C   C42       1.0  2.4475789360644405e-06  0.3004729961293151  0.8004506665161627  1.0000
  C   C43       1.0  0.9574334758171762  0.2637650724220751  0.8721491665729529  1.0000
  C   C44       1.0  0.9564611512309824  0.2978599467808608  0.9081236888697644  1.0000
  C   C45       1.0  0.9999987452093252  0.2650629369620958  0.7650257697290782  1.0000
  C   C46       1.0  8.497918528930334e-07  0.23461457354937917  0.7345040486426412  1.0000
  C   C47       1.0  0.9999865922578691  0.19921074708350534  0.699083867025692  1.0000
  C   C48       1.0  0.04304572605185098  0.23577558498932666  0.6275060361190936  1.0000
  C   C49       1.0  0.04359901140443164  0.20179614320142752  0.5914267377674277  1.0000
  C   C50       1.0  0.99998748457611  0.12799903675099963  0.6278903287383883  1.0000
  C   C51       1.0  0.9563766264449571  0.09153660362932942  0.7016824097458495  1.0000
  C   C52       1.0  0.9569192729743039  0.12762883340651138  0.7356554833273562  1.0000
  C   C53       1.0  0.744105770338557  0.37205036016191445  0.12794316364554692  1.0000
  C   C54       1.0  0.7067796679471459  0.4085175676196331  0.13509233775518942  1.0000
  C   C55       1.0  0.6367166550416316  0.3724297952183521  0.1706167814404082  1.0000
  C   C56       1.0  0.6017014716797606  0.3008478852760916  0.19911650342356066  1.0000
  C   C57       1.0  0.6367117572026687  0.2642750116177839  0.19263207805899188  1.0000
  C   C58       1.0  0.7067745145283838  0.2982548438964301  0.15811967531377033  1.0000
  C   C59       1.0  0.5308872294300288  0.26543829719473416  0.23452165947893627  1.0000
  C   C60       1.0  0.4698999295960037  0.2349498230254526  0.2650182258095625  1.0000
  C   C61       1.0  0.3990788137434721  0.19953018752030272  0.3004469963885653  1.0000
  C   C62       1.0  0.3640831535320006  0.2362349959823363  0.30632548307713847  1.0000
  C   C63       1.0  0.2940127109338207  0.20213701933010245  0.3414036585897334  1.0000
  C   C64       1.0  0.25668830316029567  0.12833623735223657  0.3716491512860856  1.0000
  C   C65       1.0  0.2939996078792222  0.09185199937518727  0.3645655276022167  1.0000
  C   C66       1.0  0.3640699058728387  0.12782420416099421  0.32957332503520576  1.0000
  C   C67       1.0  0.25589934285566335  0.627911410915587  0.8720777031318646  1.0000
  C   C68       1.0  0.2932286758169841  0.6350459880220783  0.9085490400009062  1.0000
  C   C69       1.0  0.36328556731636047  0.6705608911476091  0.8724722370890203  1.0000
  C   C70       1.0  0.39829549520598584  0.6990704290856018  0.8008914919678388  1.0000
  C   C71       1.0  0.3632848801747815  0.6925888062907223  0.7643134691604415  1.0000
  C   C72       1.0  0.29322480502793297  0.6580854168335011  0.79828594855514  1.0000
  C   C73       1.0  0.4691128033349729  0.7344935154314384  0.7654700188925074  1.0000
  C   C74       1.0  0.530094700600735  0.7650062197059386  0.7349692117045588  1.0000
  C   C75       1.0  0.6009185103525215  0.8004425801871025  0.6995409229249743  1.0000
  C   C76       1.0  0.635924673101407  0.8063270171587646  0.7362347529763367  1.0000
  C   C77       1.0  0.7059918023091643  0.8414047583057995  0.7021338627549977  1.0000
  C   C78       1.0  0.7433114305263545  0.8716545350049857  0.6283371553734796  1.0000
  C   C79       1.0  0.7059900709200734  0.8645778368660259  0.5918600560576336  1.0000
  C   C80       1.0  0.6359205288557563  0.8295759362422573  0.6278370923873949  1.0000
  N   N1        1.0  0.9139045402094511  0.8013522081294937  0.7883251744575899  1.0000
  N   N2        1.0  0.08965984606668806  0.7022110468449512  0.7116811964001215  1.0000
  N   N3        1.0  0.9103269593100412  0.6986323588417921  0.8874477543305657  1.0000
  N   N4        1.0  0.08610786482452701  0.7978024068815799  0.612557008346215  1.0000
  N   N5        1.0  0.9138888338087344  0.11254711759538344  0.2977623400968312  1.0000
  N   N6        1.0  0.08965983905017084  0.3874387152512995  0.1986739308706262  1.0000
  N   N7        1.0  0.9103346575598225  0.21169679404032146  0.2021929638959817  1.0000
  N   N8        1.0  0.08608818444078285  0.28829514733381967  0.3013647206924616  1.0000
  N   N9        1.0  0.9120104202167316  0.6529949233933368  0.11037021666115973  1.0000
  N   N10       1.0  0.0879670509573957  0.6103672468811966  0.15301637008030153  1.0000
  N   N11       1.0  0.9146407139077656  0.8933002525679188  0.3441242889673572  1.0000
  N   N12       1.0  0.08530401757351314  0.8439943529167239  0.39346680275865953  1.0000
  N   N13       1.0  0.08800117976596074  0.4776148924999433  0.7590256117831584  1.0000
  N   N14       1.0  0.9120336204283745  0.25901980808428976  0.9775935095845297  1.0000
  N   N15       1.0  0.08533346159990174  0.2413123630351564  0.5212445238214656  1.0000
  N   N16       1.0  0.9146510187838786  0.02135090668833343  0.741215205106016  1.0000
  N   N17       1.0  0.7374373824153508  0.47869815333096  0.10665844778034737  1.0000
  N   N18       1.0  0.7374270146012166  0.2587228117998139  0.15591575658922333  1.0000
  N   N19       1.0  0.26338608202971164  0.24098075581214576  0.34698781854522304  1.0000
  N   N20       1.0  0.26336423785595303  0.022380415526789967  0.38960561781731673  1.0000
  N   N21       1.0  0.26256634018296443  0.6065979630083335  0.9787326802681874  1.0000
  N   N22       1.0  0.2625707561659497  0.6559005126700086  0.7587541532110292  1.0000
  N   N23       1.0  0.7366288825761914  0.8469965645316863  0.7409720946396516  1.0000
  N   N24       1.0  0.7366194769529176  0.8896209719939068  0.5223942389263311  1.0000
  O   O1        1.0  0.9999912308492469  8.644523747167795e-07  0.5000036045042648  1.0000
  O   O2        1.0  0.15201777484087842  0.02512267362230604  0.4370408181085849  1.0000
  O   O3        1.0  0.03919345284014503  0.1548840244994238  0.38555346817757646  1.0000
  O   O4        1.0  0.9579324741504537  0.9320918617004851  0.41665738121488255  1.0000
  O   O5        1.0  0.15202521255166354  0.1269034402171201  0.4109259759269648  1.0000
  O   O6        1.0  0.04202175083547427  0.9165741015913015  0.43219208679694515  1.0000
  O   O7        1.0  0.9608068924642482  0.07521785262059683  0.38425126139730986  1.0000
  O   O8        1.0  0.8479795882684518  0.9370785001636507  0.525116895246178  1.0000
  O   O9        1.0  0.9608424815820771  0.8856144815508175  0.654920311912889  1.0000
  O   O10       1.0  0.8479821232283841  0.9108878375292379  0.6269068332896025  1.0000
  O   O11       1.0  0.03922917557770263  0.8843304476711115  0.5752486805352884  1.0000
  O   O12       1.0  0.04205992557869821  0.1254573816417164  0.525785561880383  1.0000
  O   O13       1.0  0.9579581999047663  0.025856417528729032  0.6253928450227233  1.0000
  O   O14       1.0  5.142321796880886e-06  0.5000012217544239  1.830991465183592e-07  1.0000
  O   O15       1.0  0.9621797487923589  0.5890817363977875  0.06292823577740592  1.0000
  O   O16       1.0  0.040505630113223424  0.4247741846011266  0.11441816187944907  1.0000
  O   O17       1.0  0.8487492905471471  0.374564716802688  0.08337530236001807  1.0000
  O   O18       1.0  0.037823645864236505  0.5629458270286136  0.0890748268746008  1.0000
  O   O19       1.0  0.8487548123271083  0.4741807856851779  0.06784967734137132  1.0000
  O   O20       1.0  0.9595213049952421  0.34511188434358797  0.11571261464710864  1.0000
  O   O21       1.0  0.9621796706307679  0.3731013485752541  0.9748793721536301  1.0000
  O   O22       1.0  0.040483532523012504  0.6157133722063364  0.8450832490036715  1.0000
  O   O23       1.0  0.03782734822104341  0.4748843346440951  0.8731043706449096  1.0000
  O   O24       1.0  0.9595133394829108  0.6144106091011141  0.9247558077187744  1.0000
  O   O25       1.0  0.15125565374105332  0.5678690178713168  0.9741891223604068  1.0000
  O   O26       1.0  0.15125407027251495  0.5833938136953593  0.8745773884874949  1.0000
