data_image0
_chemical_formula_structural       Zn2H34C46I2N2O12
_chemical_formula_sum              "Zn2 H34 C46 I2 N2 O12"
_cell_length_a       10.849330084391871
_cell_length_b       18.215325145168443
_cell_length_c       19.633592309332183
_cell_angle_alpha    90.09107651892452
_cell_angle_beta     90.0802537837232
_cell_angle_gamma    90.19703094156986

_space_group_name_H-M_alt    "P 1"
_space_group_IT_number       1

loop_
  _space_group_symop_operation_xyz
  'x, y, z'

loop_
  _atom_site_type_symbol
  _atom_site_label
  _atom_site_symmetry_multiplicity
  _atom_site_fract_x
  _atom_site_fract_y
  _atom_site_fract_z
  _atom_site_occupancy
  Zn  Zn1       1.0  0.49998175654149435  0.42397041708591837  0.4997802051176095  1.0000
  Zn  Zn2       1.0  0.49931031064806325  0.5744126189979396  0.5015274633387679  1.0000
  H   H1        1.0  0.8823334205159127  0.3811362762183421  0.4729249286399908  1.0000
  H   H2        1.0  0.9106966166343612  0.6040140238979531  0.5410786835733177  1.0000
  H   H3        1.0  0.48246290524470953  0.6155776917511844  0.8448661100713298  1.0000
  H   H4        1.0  0.5356748567688073  0.3812481104100555  0.8448574140978382  1.0000
  H   H5        1.0  0.4818307681479369  0.6145545246818002  0.7173686258255288  1.0000
  H   H6        1.0  0.5342618890030623  0.381601799916119  0.7173161029155893  1.0000
  H   H7        1.0  0.35316110137615203  0.3103220237652948  0.4344850404596343  1.0000
  H   H8        1.0  0.35133648104528  0.6877988258955198  0.43457952193755034  1.0000
  H   H9        1.0  0.6591443239053306  0.1676706413173363  0.5621135207878398  1.0000
  H   H10       1.0  0.6487343144025389  0.8328557688281533  0.5678457130133837  1.0000
  H   H11       1.0  0.6609933973120974  0.3058327161190846  0.559506384354471  1.0000
  H   H12       1.0  0.6485271639779598  0.6946728338577015  0.5666150857189509  1.0000
  H   H13       1.0  0.6898504039937664  0.06665737845553109  0.46927045848833165  1.0000
  H   H14       1.0  0.687256837695209  0.9304457266836297  0.4702200783497903  1.0000
  H   H15       1.0  0.30615888698066845  0.9329790430193512  0.5315658443578428  1.0000
  H   H16       1.0  0.3090336558012866  0.0686551424954658  0.5311049791264112  1.0000
  H   H17       1.0  0.11155385382304671  0.3846933109162336  0.541118899603248  1.0000
  H   H18       1.0  0.08880185303164011  0.5025038807813758  0.6087404969776885  1.0000
  H   H19       1.0  0.09244706474588331  0.38918290202498435  0.45187370595487414  1.0000
  H   H20       1.0  0.1186300275295267  0.5885866977591546  0.5697900133094222  1.0000
  H   H21       1.0  0.9033575583109724  0.4838595264744823  0.39170520396938  1.0000
  H   H22       1.0  0.8822891423708016  0.5755356438209274  0.418394867998984  1.0000
  H   H23       1.0  0.11492598507846452  0.5122379707019887  0.38983379539475754  1.0000
  H   H24       1.0  0.0947123408403314  0.5931068656173082  0.43808279533767813  1.0000
  H   H25       1.0  0.5609595052921108  0.6124945600554098  0.28517013672240676  1.0000
  H   H26       1.0  0.4319799731340483  0.38992694709407527  0.28412603659151614  1.0000
  H   H27       1.0  0.5654702398271709  0.6126465450532732  0.15815973913519346  1.0000
  H   H28       1.0  0.4374886706400432  0.388482841025926  0.15723330290475707  1.0000
  H   H29       1.0  0.33857650433289177  0.4332221248328382  0.0627731364227699  1.0000
  H   H30       1.0  0.6704377312229256  0.5665400291363981  0.06497149198710163  1.0000
  H   H31       1.0  0.33460594009676475  0.42886422289007703  0.8838216696334983  1.0000
  H   H32       1.0  0.6838706408810539  0.5676947900833155  0.8861200389711642  1.0000
  H   H33       1.0  0.8864242192533427  0.4283220211036535  0.6079560594835556  1.0000
  H   H34       1.0  0.7878318721298713  0.5453109755713967  0.6157942538071596  1.0000
  C   C1        1.0  0.5067670468086476  0.49840345484889786  0.6335967381674622  1.0000
  C   C2        1.0  0.0700646375244673  0.5346398684426744  0.4355141429116928  1.0000
  C   C3        1.0  0.5342107529592043  0.563780461516181  0.25638731133437187  1.0000
  C   C4        1.0  0.460419195062457  0.4384733969506627  0.25577765038898553  1.0000
  C   C5        1.0  0.537271583826069  0.5633304532659693  0.18554610771312954  1.0000
  C   C6        1.0  0.4630010630922925  0.4381830936242179  0.1849994042527499  1.0000
  C   C7        1.0  0.5015713485070777  0.5005620368670661  0.1485092612784982  1.0000
  C   C8        1.0  0.49593127605857024  0.5012860961484902  0.29226636452018084  1.0000
  C   C9        1.0  0.4138205141303787  0.4611239465102415  0.03672851518253141  1.0000
  C   C10       1.0  0.5966370638283465  0.5380872797890884  0.03795962057819221  1.0000
  C   C11       1.0  0.41628106224479927  0.46045424194724643  0.9657219639783676  1.0000
  C   C12       1.0  0.5980285029238815  0.5374660532709185  0.966931517728334  1.0000
  C   C13       1.0  0.5081870970894825  0.4986314505580863  0.9292412409265794  1.0000
  C   C14       1.0  0.5041656683062996  0.4999620780550698  0.07326701892932871  1.0000
  C   C15       1.0  0.495447621470639  0.5642873973248257  0.8170055394038942  1.0000
  C   C16       1.0  0.5227009526688634  0.43242730978811034  0.8169715983141972  1.0000
  C   C17       1.0  0.738666995781493  0.4981639002199785  0.4994636097641703  1.0000
  C   C18       1.0  0.4945868302866431  0.5640048925721786  0.7460859837271131  1.0000
  C   C19       1.0  0.5225889740450996  0.43235274459384954  0.7459915670468718  1.0000
  C   C20       1.0  0.5081910534258114  0.4980975182915657  0.7100246560145608  1.0000
  C   C21       1.0  0.5092087382097717  0.49843431586270276  0.8537919757821939  1.0000
  C   C22       1.0  0.4187803224646559  0.2762067775677082  0.4620262429681434  1.0000
  C   C23       1.0  0.41535174583993495  0.7224310440372221  0.46313881805335916  1.0000
  C   C24       1.0  0.4136199744478617  0.19974572610360747  0.4593076248798411  1.0000
  C   C25       1.0  0.4103407041315138  0.7989364157802328  0.4602145078198703  1.0000
  C   C26       1.0  0.4996480533770439  0.1580495419940249  0.4964856779434683  1.0000
  C   C27       1.0  0.49449384487281384  0.8413151611873245  0.49848883145148193  1.0000
  C   C28       1.0  0.5903130468815334  0.19744281213708345  0.5326494180776251  1.0000
  C   C29       1.0  0.5818609698191323  0.80257071796926  0.5371510442412132  1.0000
  C   C30       1.0  0.5913360517797059  0.27367488788279104  0.5323493938927442  1.0000
  C   C31       1.0  0.581966260025233  0.7264142195579949  0.5373612055315817  1.0000
  C   C32       1.0  0.6058676409498603  0.03732941136191669  0.4833242317023976  1.0000
  C   C33       1.0  0.6043758561207184  0.9608296169041991  0.48379584790602354  1.0000
  C   C34       1.0  0.4958437775594292  0.9224270824558259  0.49943431386874  1.0000
  C   C35       1.0  0.498854223539965  0.0769657678859588  0.49862203675451877  1.0000
  C   C36       1.0  0.4940109671437939  0.5008792300668433  0.36836603410522883  1.0000
  C   C37       1.0  0.38991444450893903  0.9621526038682046  0.5170768404732797  1.0000
  C   C38       1.0  0.39150633659058093  0.03843362685647379  0.5167640428132785  1.0000
  C   C39       1.0  0.2605178316813551  0.49774867914784693  0.501373610332088  1.0000
  C   C40       1.0  0.9272937853672761  0.4166724052199484  0.5109061636109972  1.0000
  C   C41       1.0  0.931124231469923  0.5470827425849052  0.5562558903407862  1.0000
  C   C42       1.0  0.0687561758223509  0.4165629231878327  0.5001401695456877  1.0000
  C   C43       1.0  0.07063640223822182  0.5358722521687156  0.5631660666153877  1.0000
  C   C44       1.0  0.9287258261917731  0.5238314480912792  0.43139421766030495  1.0000
  C   C45       1.0  0.8791709596503029  0.4954993630672816  0.5005199210223594  1.0000
  C   C46       1.0  0.11987012547697871  0.49532483189997106  0.49950316542295786  1.0000
  I   I1        1.0  0.2804027294164159  0.1536177287023435  0.39376788039631094  1.0000
  I   I2        1.0  0.28030254895621454  0.8447329674780519  0.39308518785224333  1.0000
  N   N1        1.0  0.5052304447721241  0.3118424981704278  0.4981905916589044  1.0000
  N   N2        1.0  0.49932362943748393  0.6873612803899648  0.5011668343593386  1.0000
  O   O1        1.0  0.534839286526264  0.4389258868923491  0.6032566646273878  1.0000
  O   O2        1.0  0.47807862878796936  0.5587758417979102  0.6049513950817058  1.0000
  O   O3        1.0  0.6815821782524126  0.4420509564084226  0.47780644349435886  1.0000
  O   O4        1.0  0.6877248089552385  0.5575172030473822  0.5200801639328605  1.0000
  O   O5        1.0  0.4615886037472309  0.4414119852237874  0.3975671874793961  1.0000
  O   O6        1.0  0.5254850184693965  0.5600645942339424  0.39902117751599775  1.0000
  O   O7        1.0  0.316687803708426  0.4391214554991337  0.5176906034260256  1.0000
  O   O8        1.0  0.3119875717307962  0.5589764878102129  0.48762564185847174  1.0000
  O   O9        1.0  0.32374914289543705  0.42303170372209553  0.93296177617615  1.0000
  O   O10       1.0  0.6919879585902252  0.5745902112563854  0.9353221184785172  1.0000
  O   O11       1.0  0.8924490210639604  0.3869465537184809  0.5759893239910313  1.0000
  O   O12       1.0  0.8751008937533912  0.5334214973790238  0.6219061910764623  1.0000
