data_image0
_chemical_formula_structural       CoH26C32N10O6
_chemical_formula_sum              "Co1 H26 C32 N10 O6"
_cell_length_a       8.881792257896212
_cell_length_b       8.062241297541911
_cell_length_c       11.143307553476786
_cell_angle_alpha    68.26189822641666
_cell_angle_beta     83.23124930716486
_cell_angle_gamma    80.2551130358983

_space_group_name_H-M_alt    "P 1"
_space_group_IT_number       1

loop_
  _space_group_symop_operation_xyz
  'x, y, z'

loop_
  _atom_site_type_symbol
  _atom_site_label
  _atom_site_symmetry_multiplicity
  _atom_site_fract_x
  _atom_site_fract_y
  _atom_site_fract_z
  _atom_site_occupancy
  Co  Co1       1.0  1.2800380872624725e-05  0.4999944048432638  0.49999160365609197  1.0000
  H   H1        1.0  0.19017555642579967  0.4474902859001162  0.16128501424979902  1.0000
  H   H2        1.0  0.8097540779017862  0.5525483743623524  0.838707985465547  1.0000
  H   H3        1.0  0.95772637191952  0.1742299868936854  0.7185068529551374  1.0000
  H   H4        1.0  0.04227040155466717  0.8257634662128409  0.2814561438554648  1.0000
  H   H5        1.0  0.06161745274177124  0.8461478585154864  0.7808431588888994  1.0000
  H   H6        1.0  0.9383903467661697  0.15384622852988628  0.2191402620788736  1.0000
  H   H7        1.0  0.2329837014317918  0.3054056131285634  0.3796708243834957  1.0000
  H   H8        1.0  0.7670424152666727  0.6945804008266306  0.6203021569528602  1.0000
  H   H9        1.0  0.7246167490547466  0.5700537857421749  0.056802688666344615  1.0000
  H   H10       1.0  0.2753109165034929  0.43002106353547026  0.9431871000198983  1.0000
  H   H11       1.0  0.26385989525712733  0.7482783078611205  0.6342864559774455  1.0000
  H   H12       1.0  0.7361895108758391  0.2517246843299716  0.3657099847671503  1.0000
  H   H13       1.0  0.45738531207079103  0.3273836196560892  0.06064189879757726  1.0000
  H   H14       1.0  0.5425877078030086  0.6726067766515271  0.9393598621393406  1.0000
  H   H15       1.0  0.6315900248870675  0.7200264692528437  0.3143311602148415  1.0000
  H   H16       1.0  0.36842680900605274  0.27995883180441433  0.6856724506524757  1.0000
  H   H17       1.0  0.24816937277500983  0.6555709979085403  0.32811353427772627  1.0000
  H   H18       1.0  0.7518563892436846  0.3444091291690441  0.6718689880472156  1.0000
  H   H19       1.0  0.865129005887887  0.9698433855902948  0.8890390633537423  1.0000
  H   H20       1.0  0.13491937315494337  0.030155793879167392  0.11100149888755341  1.0000
  H   H21       1.0  0.7668421578392922  0.8362330333419551  0.11621479971618241  1.0000
  H   H22       1.0  0.23317587314011942  0.16377991247301796  0.8838215173374238  1.0000
  H   H23       1.0  0.5638408566918897  0.4416962574757405  0.8295901532643697  1.0000
  H   H24       1.0  0.43614501337207656  0.5582837665235588  0.17041478170891375  1.0000
  H   H25       1.0  0.31122081317349887  0.6137794052836156  0.46348131698366773  1.0000
  H   H26       1.0  0.6887842061156634  0.3862332237367879  0.5365032429831302  1.0000
  C   C1        1.0  0.894801296470263  0.5282582835814084  0.251015753820198  1.0000
  C   C2        1.0  0.10517290183192071  0.471746362772869  0.7489950208496057  1.0000
  C   C3        1.0  0.9511547608098356  0.5121976608563585  0.12175432321238594  1.0000
  C   C4        1.0  0.048773534322506945  0.48784194327838276  0.8782448524713332  1.0000
  C   C5        1.0  0.8451570247163717  0.5398834735242701  0.030301130760669523  1.0000
  C   C6        1.0  0.15476889985582423  0.4601723330589991  0.969693428530704  1.0000
  C   C7        1.0  0.10712784035793989  0.4712605175110482  0.09042364219326524  1.0000
  C   C8        1.0  0.8927983430062554  0.5287858677270876  0.9095722802175458  1.0000
  C   C9        1.0  0.04343752610346741  0.1249419914917169  0.6572486887470107  1.0000
  C   C10       1.0  0.9565765312690003  0.8750490107408027  0.34272235387182093  1.0000
  C   C11       1.0  0.10269589784214618  0.9439587065476334  0.6908633677514828  1.0000
  C   C12       1.0  0.8973137546419355  0.05603802073947861  0.30912194336976023  1.0000
  C   C13       1.0  0.2140926130918714  0.8890421360114972  0.609270188058254  1.0000
  C   C14       1.0  0.7859405466047988  0.11094819954405473  0.390726267931342  1.0000
  C   C15       1.0  0.26166034749758893  0.020159297761459492  0.49407381309072923  1.0000
  C   C16       1.0  0.7383673085111441  0.9798374181801961  0.5059242770469936  1.0000
  C   C17       1.0  0.19639985398760737  0.19972346592822987  0.4663549661714584  1.0000
  C   C18       1.0  0.8036222654487517  0.8002658831994792  0.5336274387117542  1.0000
  C   C19       1.0  0.37887924584076416  0.9757784262834193  0.40310071409113857  1.0000
  C   C20       1.0  0.6211441436904296  0.024208266882610015  0.5969064696418229  1.0000
  C   C21       1.0  0.528959739700369  0.001583682116738301  0.23618708672956504  1.0000
  C   C22       1.0  0.4710515864400976  0.9984078986154757  0.7638199791575319  1.0000
  C   C23       1.0  0.6019755268952381  0.07196578534509261  0.106736149564469  1.0000
  C   C24       1.0  0.39802333432530906  0.9280332239020908  0.8932729121248145  1.0000
  C   C25       1.0  0.5478176807340207  0.24616029181868268  0.024144766012710782  1.0000
  C   C26       1.0  0.45217203801938427  0.7538318930604503  0.9758604725000098  1.0000
  C   C27       1.0  0.607880199680892  0.3089474872202446  0.8970351210071217  1.0000
  C   C28       1.0  0.39210990637514  0.6910418042211075  0.10297437690832834  1.0000
  C   C29       1.0  0.7744902046033745  0.047570058395045606  0.9290245827840594  1.0000
  C   C30       1.0  0.2255320946243485  0.9524304330356871  0.07099821122716321  1.0000
  C   C31       1.0  0.7202127625656446  0.9720947067949695  0.05719869813614054  1.0000
  C   C32       1.0  0.2798016601200358  0.0279057895994015  0.9428185050553708  1.0000
  N   N1        1.0  0.08908632251819174  0.2517361643046812  0.546022496532551  1.0000
  N   N2        1.0  0.9109342803305155  0.7482559782587543  0.453956671131067  1.0000
  N   N3        1.0  0.41855019645971225  0.09724372745954918  0.2858580455889382  1.0000
  N   N4        1.0  0.5814633841860654  0.9027479525656333  0.7141487968035564  1.0000
  N   N5        1.0  0.4586600737392388  0.8098240069678652  0.4282410318605301  1.0000
  N   N6        1.0  0.541358816943152  0.19016273939009662  0.5717620466824798  1.0000
  N   N7        1.0  0.5535102145005055  0.8293941053092836  0.3216745546010814  1.0000
  N   N8        1.0  0.4465045015273861  0.1705978257846539  0.6783285343008104  1.0000
  N   N9        1.0  0.7196227240602441  0.21211216318980766  0.8484238410628396  1.0000
  N   N10       1.0  0.2803889181450572  0.7878843476641747  0.15159098211638894  1.0000
  O   O1        1.0  0.0014684014002668277  0.5084104561134736  0.3250820519643156  1.0000
  O   O2        1.0  0.9985348583499699  0.49156014949699056  0.6749119535187377  1.0000
  O   O3        1.0  0.7523509424693345  0.5594889819733451  0.2752522728529457  1.0000
  O   O4        1.0  0.2476303436480904  0.4405115077993358  0.724790314246441  1.0000
  O   O5        1.0  0.24224888210518716  0.5739627865205181  0.42041749775705023  1.0000
  O   O6        1.0  0.7577846299772943  0.42601085804163574  0.5795668086684813  1.0000
