data_image0
_chemical_formula_structural       Zn2H20C44N8O22
_chemical_formula_sum              "Zn2 H20 C44 N8 O22"
_cell_length_a       9.652304702402656
_cell_length_b       10.998343568429569
_cell_length_c       23.639820112614057
_cell_angle_alpha    91.16889289020786
_cell_angle_beta     93.38860411045111
_cell_angle_gamma    87.38787478218501

_space_group_name_H-M_alt    "P 1"
_space_group_IT_number       1

loop_
  _space_group_symop_operation_xyz
  'x, y, z'

loop_
  _atom_site_type_symbol
  _atom_site_label
  _atom_site_symmetry_multiplicity
  _atom_site_fract_x
  _atom_site_fract_y
  _atom_site_fract_z
  _atom_site_occupancy
  Zn  Zn1       1.0  0.6320178672168666  0.5088656183170316  0.49815187955702805  1.0000
  Zn  Zn2       1.0  0.3456968595218796  0.5186383067938394  0.4932340561066795  1.0000
  H   H1        1.0  0.8024983694570481  0.6046639062824398  0.06347827812301429  1.0000
  H   H2        1.0  0.26958343064386275  0.22925155140278977  0.03987698564831989  1.0000
  H   H3        1.0  0.26858496591740527  0.23928788708430201  0.9330102819454991  1.0000
  H   H4        1.0  0.7166116127349865  0.35094955560033014  0.22952925003443872  1.0000
  H   H5        1.0  0.6964449035281391  0.3881171060831009  0.33347350201367476  1.0000
  H   H6        1.0  0.2829527957700364  0.5428626736555416  0.3014827137959414  1.0000
  H   H7        1.0  0.30519989948633247  0.5118076027976316  0.1974016911963332  1.0000
  H   H8        1.0  0.6537745833045746  0.30961817152257265  0.7738576423477284  1.0000
  H   H9        1.0  0.2699516662561479  0.14440418326096702  0.4964010821704149  1.0000
  H   H10       1.0  0.8101846589464331  0.0940607190562801  0.5499883748393585  1.0000
  H   H11       1.0  0.7993310000747441  0.872954381133475  0.4689790771825883  1.0000
  H   H12       1.0  0.8027494204336846  0.8671793458226348  0.5447659895442384  1.0000
  H   H13       1.0  0.13848991034041802  0.45178678966464514  0.5802333610225644  1.0000
  H   H14       1.0  0.8785510884516085  0.44799462364067477  0.5810105067272245  1.0000
  H   H15       1.0  0.8349523730124487  0.5653840712672747  0.36757330952893597  1.0000
  H   H16       1.0  0.8307948740925396  0.7130173652496623  0.39996234782260837  1.0000
  H   H17       1.0  0.09814603134289258  0.5675258589687219  0.36787258716850596  1.0000
  H   H18       1.0  0.0928787465752023  0.7160794782658898  0.40046894556457596  1.0000
  H   H19       1.0  0.6675221065629131  0.3658163462085612  0.6272903146737079  1.0000
  H   H20       1.0  0.9335844451262216  0.06900872963281303  0.46438703293058115  1.0000
  C   C1        1.0  0.4772980165199954  0.7464927914119526  0.5005404732902292  1.0000
  C   C2        1.0  0.4803075184994867  0.4947139213687422  0.3857469234458647  1.0000
  C   C3        1.0  0.4959903361095356  0.27952911542764985  0.4983325469922446  1.0000
  C   C4        1.0  0.49845815460944454  0.5104265290689158  0.6086773836273949  1.0000
  C   C5        1.0  0.4296485592240344  0.3672318304506704  0.8717522961707257  1.0000
  C   C6        1.0  0.6238615750482592  0.513044053809061  0.8803392998031395  1.0000
  C   C7        1.0  0.6308718921527471  0.4983823792063902  0.9424879794906074  1.0000
  C   C8        1.0  0.5341184808915215  0.426282395672992  0.9679110994427303  1.0000
  C   C9        1.0  0.435564512479921  0.3602983316373739  0.9343878413312721  1.0000
  C   C10       1.0  0.726757717361217  0.5588699445026323  0.9776068517031501  1.0000
  C   C11       1.0  0.7281304898920311  0.5541835215622799  0.03684502749378279  1.0000
  C   C12       1.0  0.6320449915023404  0.4860846197913773  0.06188088572319829  1.0000
  C   C13       1.0  0.5345012235253463  0.42012396624969756  0.028070638651740892  1.0000
  C   C14       1.0  0.43689530486006584  0.3491939360343821  0.053258133318585976  1.0000
  C   C15       1.0  0.3429519623435624  0.2838363167758616  0.019374116036843195  1.0000
  C   C16       1.0  0.34245960063697817  0.28941984188769254  0.9600585254429103  1.0000
  C   C17       1.0  0.6305896614313156  0.4868148193756525  0.12462612292744517  1.0000
  C   C18       1.0  0.43212481925677076  0.3461890325622151  0.1158276021448827  1.0000
  C   C19       1.0  0.6225132106070674  0.3939583181520377  0.24551048874742065  1.0000
  C   C20       1.0  0.6112921146248952  0.4151383799132591  0.3033543204626525  1.0000
  C   C21       1.0  0.4894639092316311  0.46980309536558457  0.32361255919103366  1.0000
  C   C22       1.0  0.3779883255877009  0.5017341766149103  0.28543002978636167  1.0000
  C   C23       1.0  0.39014788991870825  0.48429170715817804  0.22746398586031083  1.0000
  C   C24       1.0  0.5127631870271258  0.4310062653771921  0.20783940549056715  1.0000
  C   C25       1.0  0.4351337084385634  0.5622386025149809  0.7659122256754639  1.0000
  C   C26       1.0  0.4315828396791801  0.5777650311761421  0.7072930338425746  1.0000
  C   C27       1.0  0.5058381384224616  0.49935594232647434  0.6717896255391975  1.0000
  C   C28       1.0  0.5904408574219316  0.403312659671009  0.6968197177448513  1.0000
  C   C29       1.0  0.5899022112969804  0.3841934871929952  0.7552343310392542  1.0000
  C   C30       1.0  0.5138529808833994  0.4622371078804051  0.789228140540416  1.0000
  C   C31       1.0  0.6030899440722236  0.9406026870144688  0.5043005910108106  1.0000
  C   C32       1.0  0.4780528818871375  0.8819538309421304  0.5037627284265866  1.0000
  C   C33       1.0  0.35886257182423253  0.9617593334970499  0.5008142898170007  1.0000
  C   C34       1.0  0.36547574892821183  0.08769308459734053  0.4982985022094154  1.0000
  C   C35       1.0  0.4935147501013475  0.14411443198855522  0.4991705277269175  1.0000
  C   C36       1.0  0.6121196469967815  0.06683993508026022  0.5019879427465384  1.0000
  C   C37       1.0  0.7708571757640142  0.05901997173397432  0.5081683954466101  1.0000
  C   C38       1.0  0.758592049637464  0.9157733258631997  0.5073547686876906  1.0000
  C   C39       1.0  0.05156561693765127  0.5686466249833232  0.45785184316443395  1.0000
  C   C40       1.0  0.0721000064798574  0.48420961376320554  0.5443242985403031  1.0000
  C   C41       1.0  0.9279350181043144  0.4823397121034247  0.5446776357164964  1.0000
  C   C42       1.0  0.907379107310419  0.5668013625752623  0.45807811237867196  1.0000
  C   C43       1.0  0.8852620938597865  0.6232812439191308  0.40022903839484764  1.0000
  C   C44       1.0  0.04989943358922489  0.6253492846161848  0.4002631768973259  1.0000
  N   N1        1.0  0.5260184350124248  0.44362345690264954  0.8493746556196128  1.0000
  N   N2        1.0  0.5267410164171409  0.41956069139693863  0.1475521480374411  1.0000
  N   N3        1.0  0.1366929138542972  0.5260455267727978  0.49957992997180145  1.0000
  N   N4        1.0  0.8422533083197266  0.5221498948069937  0.5005256438823692  1.0000
  N   N5        1.0  0.8348748426474231  0.6329034102386046  0.9549499927169406  1.0000
  N   N6        1.0  0.3460388016464435  0.6800177677260139  0.680939104038998  1.0000
  N   N7        1.0  0.21678954057788505  0.9173480410280919  0.5032592883861396  1.0000
  N   N8        1.0  0.36701055557391266  0.6528730859825417  0.8025084618309605  1.0000
  O   O1        1.0  0.5910373121609709  0.689746718226232  0.515492461478047  1.0000
  O   O2        1.0  0.36655283697089663  0.6983185893025451  0.48132186821187867  1.0000
  O   O3        1.0  0.5930983546605547  0.5226898697992938  0.41291943937147824  1.0000
  O   O4        1.0  0.36292143622266343  0.4864437992862137  0.406900932588826  1.0000
  O   O5        1.0  0.6111458140576502  0.3248594520877504  0.48939023017961586  1.0000
  O   O6        1.0  0.3821312723554584  0.3385735767659386  0.5072930134029717  1.0000
  O   O7        1.0  0.6105369002261439  0.4745157525525983  0.5848529215904178  1.0000
  O   O8        1.0  0.387334198317383  0.5476756188590103  0.5830127486538642  1.0000
  O   O9        1.0  0.3478359425369105  0.3123369986830795  0.8402252674338155  1.0000
  O   O10       1.0  0.6960263617608219  0.5827266651980452  0.8563486659251109  1.0000
  O   O11       1.0  0.7126564834399787  0.544495583832017  0.15508831332329714  1.0000
  O   O12       1.0  0.3500965439240104  0.28556220403331883  0.1397049318170431  1.0000
  O   O13       1.0  0.8118200852108686  0.7441120229337201  0.9554895326930646  1.0000
  O   O14       1.0  0.9422601217879388  0.57712976478323  0.9417243551011082  1.0000
  O   O15       1.0  0.40943709277779305  0.7611691086666216  0.6603207793950359  1.0000
  O   O16       1.0  0.2189441088250774  0.6723168147825407  0.6812544809959105  1.0000
  O   O17       1.0  0.6711017603310265  0.32867107203622237  0.6660040652920073  1.0000
  O   O18       1.0  0.19175318222730198  0.8529579390260694  0.5430319855397413  1.0000
  O   O19       1.0  0.12940018156801614  0.953489305733619  0.4654067299594046  1.0000
  O   O20       1.0  0.8406463720719088  0.10853283291479701  0.4635371196870252  1.0000
  O   O21       1.0  0.32025530636013844  0.6169441693418707  0.8467220342763183  1.0000
  O   O22       1.0  0.3623745419238205  0.75994803616306  0.7870354522003922  1.0000
