data_image0
_chemical_formula_structural       Al2H18C30O15
_chemical_formula_sum              "Al2 H18 C30 O15"
_cell_length_a       4.06185496731531
_cell_length_b       17.195893407321375
_cell_length_c       17.195848222284457
_cell_angle_alpha    119.99983376350174
_cell_angle_beta     90.00140419349245
_cell_angle_gamma    89.9992197142075

_space_group_name_H-M_alt    "P 1"
_space_group_IT_number       1

loop_
  _space_group_symop_operation_xyz
  'x, y, z'

loop_
  _atom_site_type_symbol
  _atom_site_label
  _atom_site_symmetry_multiplicity
  _atom_site_fract_x
  _atom_site_fract_y
  _atom_site_fract_z
  _atom_site_occupancy
  Al  Al1       1.0  0.9763436985206436  0.5000031131797655  0.500000925490575  1.0000
  Al  Al2       1.0  0.921456816236862  0.1666685763042963  0.8333347459338043  1.0000
  H   H1        1.0  0.13690115594639707  0.3941097815757716  0.8081691306485298  1.0000
  H   H2        1.0  0.6182312206034621  0.1045314129656916  0.517847030454881  1.0000
  H   H3        1.0  0.0008620837751180996  0.1511371445712513  0.5729790078937641  1.0000
  H   H4        1.0  0.03460858128097039  0.24091519326543676  0.49435790572766786  1.0000
  H   H5        1.0  0.6539251136711073  0.19355061225451206  0.43899152490312326  1.0000
  H   H6        1.0  0.13688844557002258  0.9140630548239698  0.6058882624596577  1.0000
  H   H7        1.0  0.6182646239010056  0.9133223078171113  0.8954659125102111  1.0000
  H   H8        1.0  0.0008962847283129  0.9218395087350542  0.8488611765179569  1.0000
  H   H9        1.0  0.0346101093604503  0.7534392388927528  0.7590852923899475  1.0000
  H   H10       1.0  0.6539160109252506  0.745449289721911  0.8064502974245612  1.0000
  H   H11       1.0  0.13689702258309208  0.19182489142012568  0.0859388438791555  1.0000
  H   H12       1.0  0.6182329837966731  0.4821398719956419  0.08667953733733207  1.0000
  H   H13       1.0  0.0008708502745307  0.42701613272151917  0.07815993784058149  1.0000
  H   H14       1.0  0.03461305850669309  0.5056417296810521  0.2465619518321489  1.0000
  H   H15       1.0  0.6539126967728065  0.5610015858195182  0.2545535076581444  1.0000
  H   H16       1.0  0.11708316641849588  0.5126297657750597  0.6915931253813099  1.0000
  H   H17       1.0  0.11706064396918948  0.678968653909905  0.48737449766522883  1.0000
  H   H18       1.0  0.1170626004676762  0.30840996942364285  0.321036407709073  1.0000
  C   C1        1.0  0.4763035367628916  0.42952450096419875  0.36181803134577706  1.0000
  C   C2        1.0  0.4763190503207894  0.43229613547649154  0.5704762341326131  1.0000
  C   C3        1.0  0.4763106346132771  0.6381875273519454  0.5677081287930507  1.0000
  C   C4        1.0  0.4211035450383136  0.23264898575478543  0.7618060131377219  1.0000
  C   C5        1.0  0.42110711115363125  0.029158469465549872  0.7673523811865265  1.0000
  C   C6        1.0  0.421114075983148  0.23818942416249922  0.9708438280860463  1.0000
  C   C7        1.0  0.42494013803751324  0.2813764630110924  0.7101450270683217  1.0000
  C   C8        1.0  0.4513908919692042  0.3802882992361134  0.6160908830965752  1.0000
  C   C9        1.0  0.5815574207083428  0.24686415322052116  0.6269843116035858  1.0000
  C   C10       1.0  0.2750240244246669  0.4130865504137589  0.6985487554855894  1.0000
  C   C11       1.0  0.5994421672614152  0.2960553044772637  0.5831023629040715  1.0000
  C   C12       1.0  0.27148749794807964  0.3650699956493852  0.7449523752844341  1.0000
  C   C13       1.0  0.7636672987668192  0.16658023692720297  0.5533426157882388  1.0000
  C   C14       1.0  0.7847348178875819  0.2228050961621406  0.5035237054418217  1.0000
  C   C15       1.0  0.42494445281079857  0.928773137880128  0.7186187592850003  1.0000
  C   C16       1.0  0.4513835028882554  0.7358059219301081  0.6197123030256221  1.0000
  C   C17       1.0  0.5815804604557753  0.8801243441400856  0.7531322608936719  1.0000
  C   C18       1.0  0.27501765233498787  0.7854670660643633  0.5869114677408332  1.0000
  C   C19       1.0  0.5994517182844346  0.7870534426295137  0.7039451109718372  1.0000
  C   C20       1.0  0.2714796492464728  0.8798852593136813  0.6349258164626193  1.0000
  C   C21       1.0  0.7637006783823208  0.8867693282696366  0.8334225472327148  1.0000
  C   C22       1.0  0.7847379837581201  0.7807228057915409  0.7771958222051794  1.0000
  C   C23       1.0  0.42493923862716076  0.2898448634511013  0.07122981008537009  1.0000
  C   C24       1.0  0.451377722513193  0.3839079646745489  0.2641956879469091  1.0000
  C   C25       1.0  0.5815697860504443  0.37300827432991207  0.11987942242696192  1.0000
  C   C26       1.0  0.2750172016710265  0.30144728296395573  0.2145350780957358  1.0000
  C   C27       1.0  0.5994419889026473  0.41689284436519347  0.21295081851740602  1.0000
  C   C28       1.0  0.27148573961756733  0.2550410605248885  0.12011585074176877  1.0000
  C   C29       1.0  0.7636762821000572  0.4466510849271969  0.11323302031877351  1.0000
  C   C30       1.0  0.7847297935386661  0.49647047327640337  0.21927993105982332  1.0000
  O   O1        1.0  0.717185200549089  0.599950477497373  0.5829614129820727  1.0000
  O   O2        1.0  0.7171766882801123  0.48301458461725116  0.40005380962348613  1.0000
  O   O3        1.0  0.7171943767904522  0.41704210711942835  0.5169877111243649  1.0000
  O   O4        1.0  0.25222394420115524  0.5948431694595869  0.5070027246650286  1.0000
  O   O5        1.0  0.2522407997862146  0.4930015757049516  0.5878398086117684  1.0000
  O   O6        1.0  0.2522189705527609  0.4121636400663462  0.4051613881591152  1.0000
  O   O7        1.0  0.6569246543896977  0.18325618416889713  0.932659090057463  1.0000
  O   O8        1.0  0.6569119369307541  0.24940052646948632  0.8167431435230127  1.0000
  O   O9        1.0  0.6569161566441648  0.06734443560882401  0.7506010428445576  1.0000
  O   O10       1.0  0.18532772867020947  0.25293995986235984  0.9310947398101845  1.0000
  O   O11       1.0  0.18533472421105296  0.06890826217564697  0.8218476612702544  1.0000
  O   O12       1.0  0.18532535471739206  0.17815481630737662  0.7470611354397789  1.0000
  O   O13       1.0  0.111236489204785  0.492181114001312  0.7363779471770117  1.0000
  O   O14       1.0  0.11121276550231576  0.74420197101567  0.5078195407758059  1.0000
  O   O15       1.0  0.1112134473785744  0.26362190891850185  0.25580175107878483  1.0000
