data_image0
_chemical_formula_structural       Zn2H14C13N2O11
_chemical_formula_sum              "Zn2 H14 C13 N2 O11"
_cell_length_a       7.9094963141379155
_cell_length_b       9.090788719508945
_cell_length_c       11.166947503520928
_cell_angle_alpha    86.35293921989573
_cell_angle_beta     80.89622342332449
_cell_angle_gamma    82.8148642338501

_space_group_name_H-M_alt    "P 1"
_space_group_IT_number       1

loop_
  _space_group_symop_operation_xyz
  'x, y, z'

loop_
  _atom_site_type_symbol
  _atom_site_label
  _atom_site_symmetry_multiplicity
  _atom_site_fract_x
  _atom_site_fract_y
  _atom_site_fract_z
  _atom_site_occupancy
  Zn  Zn1       1.0  0.6801816895548785  0.47436846518231585  0.4681383126711296  1.0000
  Zn  Zn2       1.0  0.31831983232378047  0.4951258779741251  0.49872587594479256  1.0000
  H   H1        1.0  0.5966913827682346  0.5003976169715401  0.8691313716998579  1.0000
  H   H2        1.0  0.2577139638751262  0.43606986111675644  0.13230680560347  1.0000
  H   H3        1.0  0.1411554825882106  0.3020901884149225  0.0029025505068816  1.0000
  H   H4        1.0  0.0931373558747097  0.4558010645279181  0.9020194064291687  1.0000
  H   H5        1.0  0.21600043606404282  0.29346803163470975  0.8439508192467287  1.0000
  H   H6        1.0  0.7499136482844334  0.4598545158376766  0.11871137383907641  1.0000
  H   H7        1.0  0.22896576499669416  0.9265117899293288  0.384625070105848  1.0000
  H   H8        1.0  0.20154462571590412  0.0046553579035731  0.5274016120497791  1.0000
  H   H9        1.0  0.27732916229999194  0.11248152073963523  0.39512133864106863  1.0000
  H   H10       1.0  0.8212839177611287  0.05135285370363361  0.46561581544668934  1.0000
  H   H11       1.0  0.08114150406949963  0.32014471841780784  0.6752181118167755  1.0000
  H   H12       1.0  0.8820415788641185  0.3157300094109415  0.6165008300702155  1.0000
  H   H13       1.0  0.08429485829446293  0.22579643387386744  0.5409074933897813  1.0000
  H   H14       1.0  0.8542948646447782  0.7123930929349243  0.41694213613249076  1.0000
  C   C1        1.0  0.4946066914999109  0.7741299371132371  0.4592752541361804  1.0000
  C   C2        1.0  0.5950957069338898  0.022519311806966896  0.4575769071581206  1.0000
  C   C3        1.0  0.503273006043642  0.47121401347436637  0.2500618774959804  1.0000
  C   C4        1.0  0.5723718547998614  0.18903490194830397  0.4692398201205492  1.0000
  C   C5        1.0  0.47158604740896254  0.4675360323552339  0.7173355714099117  1.0000
  C   C6        1.0  0.35604926996575165  0.4250832631657602  0.9400490037259601  1.0000
  C   C7        1.0  0.47918985114997514  0.4646347416510039  0.8476742370259628  1.0000
  C   C8        1.0  0.37384113841859795  0.4399627876766985  0.06559699798206249  1.0000
  C   C9        1.0  0.5157076752733617  0.45649468736788623  0.11591939323887601  1.0000
  C   C10       1.0  0.4660324772800308  0.9385622391852096  0.44972822736589524  1.0000
  C   C11       1.0  0.1928708725546572  0.36555238918479915  0.9212533830142532  1.0000
  C   C12       1.0  0.2835662227382016  0.0008286005608013952  0.4379573087662934  1.0000
  C   C13       1.0  0.020881600219112815  0.32079454934446255  0.5931424154786455  1.0000
  N   N1        1.0  0.06059722073624842  0.4566018187550255  0.5233653662612099  1.0000
  N   N2        1.0  0.9372315349382775  0.529665771245746  0.4816502463479538  1.0000
  O   O1        1.0  0.6463482420956125  0.7030302506519986  0.43569112722428116  1.0000
  O   O2        1.0  0.359276763801894  0.7102408040470537  0.4922861909422733  1.0000
  O   O3        1.0  0.6497380147299339  0.4635710132757466  0.2874029912820504  1.0000
  O   O4        1.0  0.3556551525100105  0.4903985375334016  0.31393983586595203  1.0000
  O   O5        1.0  0.7158769223100165  0.24334703101928307  0.46772150230628273  1.0000
  O   O6        1.0  0.4248167953041317  0.2614697277372926  0.48232555357954243  1.0000
  O   O7        1.0  0.6158332996844537  0.4811369177482519  0.647816315128196  1.0000
  O   O8        1.0  0.32930909472987213  0.46091033069140525  0.6779970615187664  1.0000
  O   O9        1.0  0.6778104200691927  0.4566807410173368  0.05440831517768168  1.0000
  O   O10       1.0  0.7609408315658611  0.963247435131784  0.4605834397937869  1.0000
  O   O11       1.0  0.9740542086420589  0.6597576402016472  0.42587893157418216  1.0000
