data_image0
_chemical_formula_structural       La2H18C22O17
_chemical_formula_sum              "La2 H18 C22 O17"
_cell_length_a       6.119965262013613
_cell_length_b       8.927749725599567
_cell_length_c       12.415721249592444
_cell_angle_alpha    104.74120043376716
_cell_angle_beta     92.60688378926527
_cell_angle_gamma    103.72294718000175

_space_group_name_H-M_alt    "P 1"
_space_group_IT_number       1

loop_
  _space_group_symop_operation_xyz
  'x, y, z'

loop_
  _atom_site_type_symbol
  _atom_site_label
  _atom_site_symmetry_multiplicity
  _atom_site_fract_x
  _atom_site_fract_y
  _atom_site_fract_z
  _atom_site_occupancy
  La  La1       1.0  0.2606822450701004  0.7113970001810302  0.1070527800357226  1.0000
  La  La2       1.0  0.7474593867188163  0.2974495417840117  0.9070183706510592  1.0000
  H   H1        1.0  0.97914647576242  0.0270189893563071  0.3598696155169421  1.0000
  H   H2        1.0  0.02310617854448092  0.9702489633748004  0.652155206793175  1.0000
  H   H3        1.0  0.8976180098742292  0.8441213468996482  0.39939852034272144  1.0000
  H   H4        1.0  0.09800008660352692  0.14591524436970363  0.6037856181515338  1.0000
  H   H5        1.0  0.29123343459607304  0.7111289982110165  0.45110963790105524  1.0000
  H   H6        1.0  0.7108905182002305  0.28807298165102685  0.5582279007520796  1.0000
  H   H7        1.0  0.42509642716603224  0.17221447650346283  0.38550912564919315  1.0000
  H   H8        1.0  0.5774524693812638  0.8268842647581991  0.6236201938362028  1.0000
  H   H9        1.0  0.16789525774234468  0.779816276451385  0.7953572849816767  1.0000
  H   H10       1.0  0.8436846966243368  0.21983818373622202  0.2040216805292303  1.0000
  H   H11       1.0  0.9206304420608051  0.8408975638828695  0.8396570091471532  1.0000
  H   H12       1.0  0.09397373514932643  0.160479611155381  0.1631739331047868  1.0000
  H   H13       1.0  0.6838621286701142  0.6189245680637114  0.475810927616564  1.0000
  H   H14       1.0  0.3164254429865494  0.3753360805223309  0.5273951031584616  1.0000
  H   H15       1.0  0.22153939376928386  0.5637047231140002  0.6884728882851832  1.0000
  H   H16       1.0  0.7789083017280731  0.43068231606056173  0.3147659375260758  1.0000
  H   H17       1.0  0.337312693249487  0.4169528376562042  0.9332692150646693  1.0000
  H   H18       1.0  0.5239553413498754  0.5803501648413273  0.9385343839410468  1.0000
  C   C1        1.0  0.8114127673643597  0.8205566345991147  0.22549055929800232  1.0000
  C   C2        1.0  0.19772509077246533  0.1864975885394884  0.7772674564814253  1.0000
  C   C3        1.0  0.967702234681532  0.8977723043961632  0.3335316488496147  1.0000
  C   C4        1.0  0.033392296994861716  0.0993753433070381  0.6736717450871694  1.0000
  C   C5        1.0  0.34406161427384774  0.9367533294104078  0.41141009297902537  1.0000
  C   C6        1.0  0.6576600520119626  0.062436202020506905  0.5979608989833949  1.0000
  C   C7        1.0  0.3832080627188789  0.837178334953066  0.4760970798008231  1.0000
  C   C8        1.0  0.6183906200376086  0.1621159474332643  0.5333605544207529  1.0000
  C   C9        1.0  0.4596186312007476  0.09838556376141132  0.4385296596660595  1.0000
  C   C10       1.0  0.5420784540676139  0.9008962134816728  0.5709190810604384  1.0000
  C   C11       1.0  0.9042038179929366  0.597288705280164  0.8318573422475878  1.0000
  C   C12       1.0  0.11169396632580941  0.405215868241136  0.174210552439078  1.0000
  C   C13       1.0  0.9815589145467815  0.7426710436840056  0.7875115684906078  1.0000
  C   C14       1.0  0.030194020326938204  0.2572686808262858  0.21518150726710417  1.0000
  C   C15       1.0  0.9457513333726768  0.606147567007561  0.5926926028402946  1.0000
  C   C16       1.0  0.05530632039928216  0.3886495967829404  0.4105808681549661  1.0000
  C   C17       1.0  0.8236555917142924  0.5660995725287279  0.48686193667656846  1.0000
  C   C18       1.0  0.1765297974381924  0.4280558743681483  0.516529209755511  1.0000
  C   C19       1.0  0.12239456646461384  0.5356823986315504  0.6075210381977243  1.0000
  C   C20       1.0  0.8778138413527828  0.4584553049486644  0.3958021119463666  1.0000
  C   C21       1.0  0.43597533654853754  0.05447066277323391  0.03687395930183611  1.0000
  C   C22       1.0  0.5721025330779314  0.9461775429040244  0.9647343134415891  1.0000
  O   O1        1.0  0.8831266490961909  0.7376294652653997  0.14274207445222936  1.0000
  O   O2        1.0  0.130472517885778  0.2818781734687689  0.856588714370332  1.0000
  O   O3        1.0  0.6154206496144498  0.8443675232231485  0.2258682346978347  1.0000
  O   O4        1.0  0.39274296500823885  0.1638322765267333  0.7793734824717901  1.0000
  O   O5        1.0  0.1873960172305545  0.8706243184864277  0.3150573064071338  1.0000
  O   O6        1.0  0.8158649943336941  0.12849123288659564  0.6938379555845771  1.0000
  O   O7        1.0  0.014201685841086956  0.5944886339320945  0.9218617178775261  1.0000
  O   O8        1.0  0.007451961492165513  0.40775818548655  0.08197707248250909  1.0000
  O   O9        1.0  0.7339089515134206  0.48546430708405114  0.7824021540446466  1.0000
  O   O10       1.0  0.2742220711105433  0.5192539289012431  0.2276097481604253  1.0000
  O   O11       1.0  0.8835472350625297  0.7175664946497734  0.6762103640878293  1.0000
  O   O12       1.0  0.12010257337448853  0.27863195261632967  0.327249462703044  1.0000
  O   O13       1.0  0.2883148330023816  0.9880826323713592  0.09014132212829654  1.0000
  O   O14       1.0  0.7224314918825601  0.0137297357526762  0.9131841271424223  1.0000
  O   O15       1.0  0.4837453997399592  0.2000754148628232  0.03638683923058749  1.0000
  O   O16       1.0  0.5197280921076343  0.7997605515062887  0.963522142111323  1.0000
  O   O17       1.0  0.4760109781973156  0.49877406471317437  0.9791829368448006  1.0000
