data_image0
_chemical_formula_structural       Zn8H37C66NO28
_chemical_formula_sum              "Zn8 H37 C66 N1 O28"
_cell_length_a       18.47987085262093
_cell_length_b       18.486713093872567
_cell_length_c       18.47571644661632
_cell_angle_alpha    60.03713987998291
_cell_angle_beta     60.129943738446244
_cell_angle_gamma    90.10450641942062

_space_group_name_H-M_alt    "P 1"
_space_group_IT_number       1

loop_
  _space_group_symop_operation_xyz
  'x, y, z'

loop_
  _atom_site_type_symbol
  _atom_site_label
  _atom_site_symmetry_multiplicity
  _atom_site_fract_x
  _atom_site_fract_y
  _atom_site_fract_z
  _atom_site_occupancy
  Zn  Zn1       1.0  0.5435931085266291  0.9555278359216925  0.9142661469535367  1.0000
  Zn  Zn2       1.0  0.5447281390323298  0.13000788204968913  0.9125548672116395  1.0000
  Zn  Zn3       1.0  0.543015864022955  0.9552894357939297  0.0875815707066465  1.0000
  Zn  Zn4       1.0  0.37049571071683113  0.9571378511469816  0.086953723559823  1.0000
  Zn  Zn5       1.0  0.9571860771893339  0.5421446414678357  0.0882482099065243  1.0000
  Zn  Zn6       1.0  0.9579572639852784  0.5438733332865551  0.913348734799328  1.0000
  Zn  Zn7       1.0  0.9594488646897259  0.37016002873837556  0.0864905902627129  1.0000
  Zn  Zn8       1.0  0.13128882917086324  0.5439199335940895  0.9133920914066777  1.0000
  H   H1        1.0  0.4012350280195279  0.5703447883645935  0.1247036154225611  1.0000
  H   H2        1.0  0.28870046115664394  0.968189202102259  0.9348588923933149  1.0000
  H   H3        1.0  0.19582628032018326  0.025763521610656374  0.8748060877635879  1.0000
  H   H4        1.0  0.09987551128376285  0.9298806724483129  0.8750038968973186  1.0000
  H   H5        1.0  0.09771260909606382  0.7770929704595841  0.9349643881539293  1.0000
  H   H6        1.0  0.2113639087173382  0.5321630452075394  0.0662238290004353  1.0000
  H   H7        1.0  0.3056845379918443  0.47492435039734454  0.1241132938512308  1.0000
  H   H8        1.0  0.40232451168759553  0.7225942384660157  0.0667972680047484  1.0000
  H   H9        1.0  0.7095184783564932  0.8030117791251357  0.1104738534338239  1.0000
  H   H10       1.0  0.8054803921773014  0.7089024085050326  0.1094358877033486  1.0000
  H   H11       1.0  0.8370169305351851  0.740008501072154  0.790051437823145  1.0000
  H   H12       1.0  0.7411238615027428  0.643579733629714  0.8919090106955706  1.0000
  H   H13       1.0  0.7400492678644071  0.8360713182109334  0.7908421733190565  1.0000
  H   H14       1.0  0.6441789021475658  0.739560239022822  0.8922891916523596  1.0000
  H   H15       1.0  0.41332661081366967  0.7960321171192958  0.4058351442059375  1.0000
  H   H16       1.0  0.3182213497006927  0.7012067086743556  0.5958386872004837  1.0000
  H   H17       1.0  0.03209578579453881  0.6549921374907868  0.5959641140417062  1.0000
  H   H18       1.0  0.032910483863268794  0.751291338852837  0.5961706214001836  1.0000
  H   H19       1.0  0.12869339626310253  0.7516409911472407  0.40302372090169314  1.0000
  H   H20       1.0  0.1296532644291589  0.8479411707392828  0.4032028462990808  1.0000
  H   H21       1.0  0.4157495849736179  0.31905830126957097  0.8907843603693663  1.0000
  H   H22       1.0  0.32093488852329  0.41419615965260426  0.8907751936880002  1.0000
  H   H23       1.0  0.0325745418916057  0.1273986836656461  0.2103624109029241  1.0000
  H   H24       1.0  0.037119870225140496  0.1326569372823059  0.1091525839088661  1.0000
  H   H25       1.0  0.12908337452210358  0.030969282239510683  0.2097960185277756  1.0000
  H   H26       1.0  0.133408901368341  0.03591324285045518  0.1088704058630867  1.0000
  H   H27       1.0  0.7029752046427901  0.08624627175959179  0.1174136118948326  1.0000
  H   H28       1.0  0.799330043176461  0.1825206926605744  0.115499180440203  1.0000
  H   H29       1.0  0.7455907721474728  0.4646345873958069  0.8821126487404028  1.0000
  H   H30       1.0  0.8440590686580336  0.4685750631147768  0.7830107359423905  1.0000
  H   H31       1.0  0.7482557886545821  0.369508736874806  0.7836573396093768  1.0000
  H   H32       1.0  0.7009132036430684  0.08511584720761779  0.5955424943901235  1.0000
  H   H33       1.0  0.7957756011115933  0.1801453717142393  0.4055050660737153  1.0000
  H   H34       1.0  0.8484564516040862  0.4659634956979275  0.4038780810636595  1.0000
  H   H35       1.0  0.7519122215714517  0.4667375582447448  0.40413244162400735  1.0000
  H   H36       1.0  0.7521979340357773  0.3695700077814053  0.5969747760748021  1.0000
  H   H37       1.0  0.6558960664129359  0.3703082264943943  0.5971230995929132  1.0000
  C   C1        1.0  0.363860584365014  0.13912558077988257  0.9985056533188229  1.0000
  C   C2        1.0  0.6380035028587656  0.8602769842963056  0.0021316377597742  1.0000
  C   C3        1.0  0.6395394969166475  0.13659193694198268  0.7239270539477118  1.0000
  C   C4        1.0  0.3623404716409269  0.8614085069634783  0.2769358364177634  1.0000
  C   C5        1.0  0.6380423016806774  0.1368470327290083  0.0018642306850509  1.0000
  C   C6        1.0  0.3612940393680192  0.8612108161367756  0.0011932873817527999  1.0000
  C   C7        1.0  0.247557548766018  0.9259774093285598  0.9347910944103432  1.0000
  C   C8        1.0  0.19537595069123623  0.9580383627202591  0.9016395956591695  1.0000
  C   C9        1.0  0.14096195381505794  0.9036385150673636  0.9016461822421107  1.0000
  C   C10       1.0  0.14003570169865756  0.8184181423444413  0.9347520036603142  1.0000
  C   C11       1.0  0.19351472738571124  0.7824130884583836  0.9696045307906473  1.0000
  C   C12       1.0  0.24884289822826844  0.8377174941170792  0.9696859848343493  1.0000
  C   C13       1.0  0.1957515273466157  0.6960310421098513  0.0012337664389221  1.0000
  C   C14       1.0  0.2506622254880996  0.6621602375848069  0.0326998040638316  1.0000
  C   C15       1.0  0.3060533894227575  0.7174379303184677  0.0327331522772241  1.0000
  C   C16       1.0  0.30368159610095796  0.8038083261361989  0.0013351847906904  1.0000
  C   C17       1.0  0.25237438077606106  0.5741453859487606  0.0666630872999718  1.0000
  C   C18       1.0  0.3052283714987283  0.542217341632593  0.09874559905485822  1.0000
  C   C19       1.0  0.3595887177103592  0.5964877325616057  0.09892016787591733  1.0000
  C   C20       1.0  0.35995527011883155  0.6814300285984274  0.0669102080489878  1.0000
  C   C21       1.0  0.7201046241727627  0.7724248390116555  0.940594318478851  1.0000
  C   C22       1.0  0.6952933153704421  0.8039422821302155  0.0011609948831932  1.0000
  C   C23       1.0  0.7276510301981176  0.7795008306061247  0.06218081303811121  1.0000
  C   C24       1.0  0.7814163345923006  0.7267563240160513  0.06161948909238649  1.0000
  C   C25       1.0  0.8062127546719041  0.6950691708942855  1.6531123918599992e-05  1.0000
  C   C26       1.0  0.7739912533941293  0.719492956328558  0.9400675244035952  1.0000
  C   C27       1.0  0.7724480890071845  0.7111563160571701  0.8632413225715825  1.0000
  C   C28       1.0  0.7116055101356411  0.7712117582702119  0.8637037589315355  1.0000
  C   C29       1.0  0.2128162131974065  0.7770867767095594  0.4466838640743021  1.0000
  C   C30       1.0  0.3049267069382394  0.8046256758445833  0.39049706414530766  1.0000
  C   C31       1.0  0.34150074535033786  0.7756501667008848  0.44739547182904  1.0000
  C   C32       1.0  0.2882118373697438  0.7224783963162977  0.5538684421245748  1.0000
  C   C33       1.0  0.19490576016865907  0.6948216192704634  0.6101955150207415  1.0000
  C   C34       1.0  0.15936510593681424  0.7236838556098134  0.5534502783946493  1.0000
  C   C35       1.0  0.0741385308309148  0.7209748098507021  0.5601237962647474  1.0000
  C   C36       1.0  0.13468260867501414  0.7814624396373658  0.4392531312251862  1.0000
  C   C37       1.0  0.214985918172232  0.1603231572082819  0.0597463760794739  1.0000
  C   C38       1.0  0.3070390754246402  0.19585096303971003  0.9992351411007264  1.0000
  C   C39       1.0  0.3439696926690913  0.2890952919236579  0.9382192170717047  1.0000
  C   C40       1.0  0.29074016129154506  0.3424279230384783  0.9385233915479034  1.0000
  C   C41       1.0  0.19747488650638448  0.30588320215379367  0.9998747605342118  1.0000
  C   C42       1.0  0.16169543680657478  0.2137819299877322  0.0600696020690208  1.0000
  C   C43       1.0  0.07644353068120321  0.13561044555249416  0.1373223710540472  1.0000
  C   C44       1.0  0.13682123718137257  0.07510713805186947  0.1369902305814392  1.0000
  C   C45       1.0  0.723497799381583  0.28608633726847166  0.9379773921082943  1.0000
  C   C46       1.0  0.6950720209928961  0.19399680358989  0.0016529535073744  1.0000
  C   C47       1.0  0.7239502953020535  0.158080464908906  0.0659855942431236  1.0000
  C   C48       1.0  0.7780536633937987  0.21212769923351263  0.0647722048102111  1.0000
  C   C49       1.0  0.8066003483353938  0.305316208551133  0.9994834753530242  1.0000
  C   C50       1.0  0.7770369764224654  0.3402916881712981  0.9367320958692743  1.0000
  C   C51       1.0  0.7790433956789754  0.42521385056888733  0.8558610483698673  1.0000
  C   C52       1.0  0.7203522770268407  0.3632656112655041  0.8552588200629927  1.0000
  C   C53       1.0  0.7243967541676639  0.2859677238480599  0.5538867643627725  1.0000
  C   C54       1.0  0.6955842132405012  0.19377830342627772  0.6103331213890968  1.0000
  C   C55       1.0  0.7226883653784881  0.15700665650181364  0.5537351935050481  1.0000
  C   C56       1.0  0.7757721421848274  0.21026020552643826  0.44726660684122527  1.0000
  C   C57       1.0  0.8049546758620069  0.3036491567885591  0.3906271474294982  1.0000
  C   C58       1.0  0.7775159858452768  0.3393768289578459  0.44707950053719253  1.0000
  C   C59       1.0  0.7819829798608566  0.42472473863806204  0.4400592382934576  1.0000
  C   C60       1.0  0.7217910213370329  0.3642966406377254  0.5609096049184927  1.0000
  C   C61       1.0  0.13859669103373307  0.6380640169716115  0.7237616524627413  1.0000
  C   C62       1.0  0.8620864047827158  0.36005905843159514  0.2770381259938333  1.0000
  C   C63       1.0  0.8632889823388651  0.6385039660475442  0.00016273304974129995  1.0000
  C   C64       1.0  0.14101598427023293  0.36298307072295416  0.9998813049102466  1.0000
  C   C65       1.0  0.8639350282946693  0.36214499204417167  0.9993107348383745  1.0000
  C   C66       1.0  0.1384861457730864  0.6386185629240018  0.0010556471943132997  1.0000
  N   N1        1.0  0.6293009295219251  0.37182663260639237  0.8880978723357557  1.0000
  O   O1        1.0  0.5006617437013788  0.9998095768771335  9.242714516230027e-05  1.0000
  O   O2        1.0  0.32345389979727196  0.055404951192571196  0.0591346115632518  1.0000
  O   O3        1.0  0.6130436407432285  0.879258525774304  0.9433222480049465  1.0000
  O   O4        1.0  0.6187029582041534  0.17681951447362104  0.7673749627604421  1.0000
  O   O5        1.0  0.4459472454086039  0.8820498399760621  0.23310559614417056  1.0000
  O   O6        1.0  0.6175104864645109  0.17763324908533198  0.9388642086383072  1.0000
  O   O7        1.0  0.32196169591221485  0.8820702313122761  0.06381743066058479  1.0000
  O   O8        1.0  0.6153694618358543  0.05341584289183738  0.0637533457029136  1.0000
  O   O9        1.0  0.44463995388834143  0.88412375562951  0.9384435010637302  1.0000
  O   O10       1.0  0.6172032955172995  0.05284367632251005  0.7684620980321029  1.0000
  O   O11       1.0  0.32268769845761375  0.8847584068750725  0.2327777651581187  1.0000
  O   O12       1.0  0.4474916214885312  0.17807311269433493  0.9378649776677079  1.0000
  O   O13       1.0  0.6185072572039445  0.8848972657377914  0.0611442337846242  1.0000
  O   O14       1.0  0.0011666693862580001  0.5001014904825354  0.0001920250071095  1.0000
  O   O15       1.0  0.17795873288260122  0.615020200008466  0.7681235728974513  1.0000
  O   O16       1.0  0.8829355726676623  0.4437509294192877  0.23344358055349798  1.0000
  O   O17       1.0  0.8829239032270026  0.6146147022491985  0.9403683588641556  1.0000
  O   O18       1.0  0.057382143984568805  0.32277305891388847  0.0592257797455886  1.0000
  O   O19       1.0  0.8855783704577931  0.44567382475909034  0.937068897886924  1.0000
  O   O20       1.0  0.17822780595627566  0.6199670270512172  0.9364159273083814  1.0000
  O   O21       1.0  0.8861112911492557  0.32282903612824754  0.0607120776582804  1.0000
  O   O22       1.0  0.0551378913374094  0.613432734966942  0.0656086279850427  1.0000
  O   O23       1.0  0.8878376070949797  0.6185568267901684  0.0593734111444562  1.0000
  O   O24       1.0  0.1799158480944102  0.44671451566825476  0.9413906526359168  1.0000
  O   O25       1.0  0.054874459298616875  0.6171067704466322  0.7673746461178296  1.0000
  O   O26       1.0  0.8856941924117621  0.3208179314492199  0.2325255699091073  1.0000
  O   O27       1.0  0.6087130101662768  0.3907993042592464  0.8280898372614443  1.0000
  O   O28       1.0  0.5826841940690458  0.36058738404624074  0.971808034036023  1.0000
