data_image0
_chemical_formula_structural       Mg4H40C36N4O20
_chemical_formula_sum              "Mg4 H40 C36 N4 O20"
_cell_length_a       7.37750762812904
_cell_length_b       11.634844134788182
_cell_length_c       12.408912249586344
_cell_angle_alpha    80.08208252521231
_cell_angle_beta     72.74891635160658
_cell_angle_gamma    71.5011915208903

_space_group_name_H-M_alt    "P 1"
_space_group_IT_number       1

loop_
  _space_group_symop_operation_xyz
  'x, y, z'

loop_
  _atom_site_type_symbol
  _atom_site_label
  _atom_site_symmetry_multiplicity
  _atom_site_fract_x
  _atom_site_fract_y
  _atom_site_fract_z
  _atom_site_occupancy
  Mg  Mg1       1.0  0.5395622780512144  0.7489099030355673  0.7573140135439757  1.0000
  Mg  Mg2       1.0  0.045934028873717066  0.7509689692276992  0.7426125344343998  1.0000
  Mg  Mg3       1.0  0.4604373754017033  0.25108976010410805  0.24268518495469482  1.0000
  Mg  Mg4       1.0  0.9540648200151839  0.24903069342658304  0.2573874697974502  1.0000
  H   H1        1.0  0.8394895163743572  0.5694175850167298  0.556039534588123  1.0000
  H   H2        1.0  0.9647353111908078  0.9309326703561568  0.9439737001372206  1.0000
  H   H3        1.0  0.16050643401707998  0.430586625695895  0.44396091254258596  1.0000
  H   H4        1.0  0.0352695792326614  0.0690624441183942  0.05602555715027078  1.0000
  H   H5        1.0  0.8971119216695767  0.9136876575924334  0.5306708956653947  1.0000
  H   H6        1.0  0.3415771467234596  0.5866051032661089  0.9692060725553088  1.0000
  H   H7        1.0  0.10288137969037373  0.08631564559578209  0.46932700919047915  1.0000
  H   H8        1.0  0.6584265203493088  0.4133909204318014  0.030793917898492357  1.0000
  H   H9        1.0  0.5419927701263351  0.820269928417218  0.39409835730417325  1.0000
  H   H10       1.0  0.7561057811521863  0.6800418152030757  0.10597075075326493  1.0000
  H   H11       1.0  0.45800204403792605  0.17973246269591664  0.6059027898495797  1.0000
  H   H12       1.0  0.24389383929134592  0.3199596678394768  0.8940274968785216  1.0000
  H   H13       1.0  0.4443816034148754  0.9763374140096984  0.4142096007448827  1.0000
  H   H14       1.0  0.8348018091750974  0.5239480475434773  0.08601861531109016  1.0000
  H   H15       1.0  0.5556140153133954  0.0236649775888225  0.5857907406757048  1.0000
  H   H16       1.0  0.1651985406135171  0.47605343392152105  0.9139817454747143  1.0000
  H   H17       1.0  0.29151301448701666  0.8946767563294881  0.3914621461105127  1.0000
  H   H18       1.0  0.5776378635414192  0.6056931133304103  0.10819417644668045  1.0000
  H   H19       1.0  0.7084822184639354  0.10532472507490806  0.6085390736101031  1.0000
  H   H20       1.0  0.4223629261386607  0.3943083694087547  0.8918043220289532  1.0000
  H   H21       1.0  0.4145202639478927  0.3739647478964513  0.631659054070745  1.0000
  H   H22       1.0  0.42021971513740664  0.12598143629998046  0.8683182319762394  1.0000
  H   H23       1.0  0.5854773615903073  0.6260358239811976  0.36834168332740785  1.0000
  H   H24       1.0  0.579779025523194  0.8740200441942465  0.13168374027590338  1.0000
  H   H25       1.0  0.6180385051966157  0.3541940668782288  0.6897138697653131  1.0000
  H   H26       1.0  0.6619834169501079  0.1457688498675225  0.8103898976528893  1.0000
  H   H27       1.0  0.38195870155489325  0.645807414708159  0.310286795065977  1.0000
  H   H28       1.0  0.3380205817858266  0.8542289929444848  0.1896101985110333  1.0000
  H   H29       1.0  0.6265184920589706  0.4193036379291187  0.5493695790066082  1.0000
  H   H30       1.0  0.5954400793571184  0.08056276584252937  0.9506701396940326  1.0000
  H   H31       1.0  0.3734815801806307  0.5806951155018041  0.45062969205893194  1.0000
  H   H32       1.0  0.4045603575550275  0.9194359867996196  0.049330187948520156  1.0000
  H   H33       1.0  0.9300413321441422  0.5652405487338541  0.3424929118026723  1.0000
  H   H34       1.0  0.8379336268881943  0.9348707680885366  0.15749531823144736  1.0000
  H   H35       1.0  0.06996021989039779  0.4347591125248725  0.657508650693863  1.0000
  H   H36       1.0  0.1620731291075262  0.06512616440795678  0.842505352187018  1.0000
  H   H37       1.0  0.9720160257339432  0.9334114811297735  0.31836844124968877  1.0000
  H   H38       1.0  0.22384976502159776  0.5665903057080468  0.18145957258556678  1.0000
  H   H39       1.0  0.027982060800504176  0.06659000300494708  0.6816284989612524  1.0000
  H   H40       1.0  0.7761527328146233  0.433405718293251  0.8185401670243946  1.0000
  C   C1        1.0  0.34584025837995125  0.8567382400892996  0.5581734949158272  1.0000
  C   C2        1.0  0.761113275665139  0.6433030436229785  0.9417035760477642  1.0000
  C   C3        1.0  0.6541550286851604  0.14326233239512476  0.4418267407946387  1.0000
  C   C4        1.0  0.2388891891617105  0.356694800281204  0.058295212695305965  1.0000
  C   C5        1.0  0.43658900382264004  0.5402271797911381  0.6772508589763075  1.0000
  C   C6        1.0  0.654385054154496  0.9597175012669722  0.8227367838701196  1.0000
  C   C7        1.0  0.5634122046441378  0.4597733932392812  0.3227477120661816  1.0000
  C   C8        1.0  0.3456113599376068  0.040281248948239985  0.1772675724382679  1.0000
  C   C9        1.0  0.88111285747317  0.6423537279507912  0.4962029665455459  1.0000
  C   C10       1.0  0.019784952866160662  0.8579806856378198  0.003755697551248693  1.0000
  C   C11       1.0  0.118882707140955  0.3576495725677091  0.5037983588851913  1.0000
  C   C12       1.0  0.9802233581434341  0.14201715674941784  0.9962443454110284  1.0000
  C   C13       1.0  0.9060565194062491  0.8417911884711342  0.48288466081738307  1.0000
  C   C14       1.0  0.23088894521408312  0.6585125057352029  0.01699456543423847  1.0000
  C   C15       1.0  0.09393714662624578  0.1582121139283004  0.5171143006154962  1.0000
  C   C16       1.0  0.7691155264226953  0.3414835184480934  0.9830046192863902  1.0000
  C   C17       1.0  0.40730557680976187  0.8894899607281914  0.4319104643055878  1.0000
  C   C18       1.0  0.7287294915553489  0.6107919595167955  0.06802642454221088  1.0000
  C   C19       1.0  0.5926908253777442  0.11051152037281038  0.5680910062588678  1.0000
  C   C20       1.0  0.27127049356072824  0.38920952273697645  0.9319728796665812  1.0000
  C   C21       1.0  0.5276616775233763  0.4142414931317829  0.6350388216305018  1.0000
  C   C22       1.0  0.577057376958898  0.08572028343109386  0.8649682600731337  1.0000
  C   C23       1.0  0.4723375571428436  0.5857590797166381  0.3649603043013129  1.0000
  C   C24       1.0  0.4229430058390875  0.9142793781310274  0.13503305157955475  1.0000
  C   C25       1.0  0.927403603866537  0.6444225608155705  0.3797065310750367  1.0000
  C   C26       1.0  0.9518188453371365  0.8557741815411363  0.12024050067391553  1.0000
  C   C27       1.0  0.07259636014475773  0.3555780104552965  0.6202947080107959  1.0000
  C   C28       1.0  0.04819102068631796  0.14422457073683853  0.879758914832166  1.0000
  C   C29       1.0  0.9473939048873278  0.8492328528412685  0.3662053751283593  1.0000
  C   C30       1.0  0.16304848300622865  0.650931778618009  0.13368216246890086  1.0000
  C   C31       1.0  0.05260535088366694  0.1507686309900649  0.6337918159264218  1.0000
  C   C32       1.0  0.8369551840665465  0.34906424507990147  0.8663178279849004  1.0000
  C   C33       1.0  0.9648752172052183  0.7484271216344496  0.3119480174677917  1.0000
  C   C34       1.0  0.02542161548498715  0.7516412258339285  0.18796364703597843  1.0000
  C   C35       1.0  0.03512719350747808  0.2515716311896981  0.6880517552854212  1.0000
  C   C36       1.0  0.9745859120653718  0.24835752705082823  0.8120352667824303  1.0000
  N   N1        1.0  0.8790343635334995  0.7381219687084765  0.5456486257364189  1.0000
  N   N2        1.0  0.16302537047063512  0.7622718993406677  0.9542689673628002  1.0000
  N   N3        1.0  0.1209612221854003  0.2618822427929289  0.4543507648172776  1.0000
  N   N4        1.0  0.8369814396392385  0.23772412423585368  0.045730719045515345  1.0000
  O   O1        1.0  0.8439787594035835  0.7301917676904351  0.6576377121183226  1.0000
  O   O2        1.0  0.23161041764486626  0.7702449030003035  0.8422675861351434  1.0000
  O   O3        1.0  0.15601284570482954  0.26981426334985065  0.34236183734714126  1.0000
  O   O4        1.0  0.7683908568406609  0.22975203022435406  0.15773288664112775  1.0000
  O   O5        1.0  0.4723688537362706  0.8422216727895632  0.6134929402889424  1.0000
  O   O6        1.0  0.928401331630113  0.6577025193870581  0.8864880039267359  1.0000
  O   O7        1.0  0.5276290823603206  0.15777980721927065  0.38650983769636577  1.0000
  O   O8        1.0  0.07159954517349833  0.34229623452925034  0.11351046140563166  1.0000
  O   O9        1.0  0.5523565993959921  0.5854645618318912  0.7038579434317567  1.0000
  O   O10       1.0  0.8419530958018132  0.9144783151592504  0.7964054080102655  1.0000
  O   O11       1.0  0.447649394245282  0.4145341921450266  0.2961396629657996  1.0000
  O   O12       1.0  0.15804498153245572  0.08551952710676858  0.20359635282163413  1.0000
  O   O13       1.0  0.6208683951336983  0.6537553947638486  0.8975278592974757  1.0000
  O   O14       1.0  0.1720065834119283  0.8462277901588849  0.6022300835057733  1.0000
  O   O15       1.0  0.3791336509064607  0.34624335884907953  0.10247085687873175  1.0000
  O   O16       1.0  0.8279925971401385  0.15377369160950138  0.3977700264361913  1.0000
  O   O17       1.0  0.5287621044524684  0.9084360876598152  0.8176490907049041  1.0000
  O   O18       1.0  0.25466392664248655  0.5915490363207707  0.6820863475316299  1.0000
  O   O19       1.0  0.471235038984709  0.09156266097784278  0.18235737875750144  1.0000
  O   O20       1.0  0.7453400271794807  0.40845335727991744  0.31790991202147  1.0000
