data_image0
_chemical_formula_structural       Mn12H24C24O48
_chemical_formula_sum              "Mn12 H24 C24 O48"
_cell_length_a       8.407691072860073
_cell_length_b       11.545919960880841
_cell_length_c       12.916448538995962
_cell_angle_alpha    89.98396993529296
_cell_angle_beta     89.99683422485843
_cell_angle_gamma    90.0013586592452

_space_group_name_H-M_alt    "P 1"
_space_group_IT_number       1

loop_
  _space_group_symop_operation_xyz
  'x, y, z'

loop_
  _atom_site_type_symbol
  _atom_site_label
  _atom_site_symmetry_multiplicity
  _atom_site_fract_x
  _atom_site_fract_y
  _atom_site_fract_z
  _atom_site_occupancy
  Mn  Mn1       1.0  0.1363036807036977  0.21813964201700736  0.5346078018571634  1.0000
  Mn  Mn2       1.0  0.8630277464564315  0.7186722107787348  0.4652751132635944  1.0000
  Mn  Mn3       1.0  0.3632122939984512  0.21862738325788916  0.03497558549799611  1.0000
  Mn  Mn4       1.0  0.6358741138837445  0.7184918969630302  0.9651534931224933  1.0000
  Mn  Mn5       1.0  0.8749535588230797  0.35027408304226537  0.6969343999532429  1.0000
  Mn  Mn6       1.0  0.1257141534030524  0.8497406907131975  0.3031198037233481  1.0000
  Mn  Mn7       1.0  0.6258456430482582  0.3498855273133615  0.19674804611720026  1.0000
  Mn  Mn8       1.0  0.3745378025228944  0.8500564837171397  0.8033526242377252  1.0000
  Mn  Mn9       1.0  0.5016865833603886  0.27947189666949873  0.623632674215344  1.0000
  Mn  Mn10      1.0  0.4981082483854492  0.7794609621469419  0.37663979512478124  1.0000
  Mn  Mn11      1.0  0.9982066904251782  0.27962172929205314  0.12345600698973414  1.0000
  Mn  Mn12      1.0  0.0023255906676453997  0.7796481398588145  0.8762496874192042  1.0000
  H   H1        1.0  0.15140983131216498  0.05677130576769681  0.7334192968635451  1.0000
  H   H2        1.0  0.8480900599410859  0.5562350837073283  0.2675440687527698  1.0000
  H   H3        1.0  0.3480592772087192  0.05608972108060332  0.23259162493397414  1.0000
  H   H4        1.0  0.6517724872213293  0.5564352699903169  0.7673823591118069  1.0000
  H   H5        1.0  0.7999331260109983  0.28821032190933243  0.41633545885904527  1.0000
  H   H6        1.0  0.20004756276433971  0.7885912951703633  0.583251911230761  1.0000
  H   H7        1.0  0.6997715370807213  0.2884017477099761  0.9167162802442878  1.0000
  H   H8        1.0  0.2998606261517621  0.7882698285019883  0.08365306118219004  1.0000
  H   H9        1.0  0.16718312516891842  0.5296744463625133  0.6944022766508343  1.0000
  H   H10       1.0  0.8329594078883104  0.029772026717651612  0.3057641819785034  1.0000
  H   H11       1.0  0.3330987916684762  0.5298352085444337  0.19423622661690138  1.0000
  H   H12       1.0  0.6670818479803556  0.029349020145829702  0.8047379860704356  1.0000
  H   H13       1.0  0.4117577216699572  0.019338139932394006  0.5092214444442151  1.0000
  H   H14       1.0  0.58858310748915  0.5193590057745185  0.4909956190712353  1.0000
  H   H15       1.0  0.0881989493929893  0.019557849785044802  0.008704224690404803  1.0000
  H   H16       1.0  0.9118100816908311  0.5196192390152916  0.9907238679469831  1.0000
  H   H17       1.0  0.8446489932799606  0.0304586278029504  0.5525979908147323  1.0000
  H   H18       1.0  0.15520575364320882  0.5301805699800825  0.44693811892223334  1.0000
  H   H19       1.0  0.6553660367718309  0.030230723684631804  0.053103450812223216  1.0000
  H   H20       1.0  0.34439351731725754  0.5301718856469153  0.947334641102238  1.0000
  H   H21       1.0  0.29925021017119485  0.2983574208936801  0.32802483434001334  1.0000
  H   H22       1.0  0.7009912426449034  0.7981489042816181  0.6721445806683308  1.0000
  H   H23       1.0  0.2011807534432819  0.2981790597785334  0.82826321037755  1.0000
  H   H24       1.0  0.7993045250904558  0.7980371437031624  0.17176533107948447  1.0000
  C   C1        1.0  0.2761014581969263  0.08415657862115473  0.7192789118708592  1.0000
  C   C2        1.0  0.7233541385146793  0.5838996642773893  0.2810171379365444  1.0000
  C   C3        1.0  0.2233506626851138  0.08385983356717472  0.21910912810964336  1.0000
  C   C4        1.0  0.7763927756797813  0.5843125000934961  0.7809948986630888  1.0000
  C   C5        1.0  0.8986212810336623  0.2847191533294904  0.3600655508285089  1.0000
  C   C6        1.0  0.10151866620186209  0.7848902947627611  0.6396458191090917  1.0000
  C   C7        1.0  0.6013449347621743  0.28453297264733385  0.8602618489062197  1.0000
  C   C8        1.0  0.3986011189154581  0.7847533483675733  0.13988312085645305  1.0000
  C   C9        1.0  0.21401072573962668  0.4494997233560126  0.6586423859463724  1.0000
  C   C10       1.0  0.7862355337328352  0.9494502581198176  0.34140850208169143  1.0000
  C   C11       1.0  0.28632161285091934  0.44956176298792644  0.15862978405997555  1.0000
  C   C12       1.0  0.7138104810511406  0.9494107924310243  0.8410603229040635  1.0000
  C   C13       1.0  0.29766463333949394  0.9873550606517231  0.4772726679971983  1.0000
  C   C14       1.0  0.702775508744125  0.4873290339147686  0.5227896022729086  1.0000
  C   C15       1.0  0.20257699143222396  0.9875734576037944  0.977159450487108  1.0000
  C   C16       1.0  0.7976954662656794  0.4875930995438438  0.02262946723899261  1.0000
  C   C17       1.0  0.7994987219949365  0.11412725131948781  0.5827266072965929  1.0000
  C   C18       1.0  0.20027422293438948  0.6140663165275626  0.4171794209835442  1.0000
  C   C19       1.0  0.7004212860826654  0.11410113638275733  0.08288589016017774  1.0000
  C   C20       1.0  0.2991910782520861  0.6138568136598723  0.9172470131751357  1.0000
  C   C21       1.0  0.40243194574307484  0.288882775704714  0.3803334317689605  1.0000
  C   C22       1.0  0.5976438772845611  0.7887501944845  0.619962231189078  1.0000
  C   C23       1.0  0.09772669511925611  0.28873293309349185  0.8803541145994489  1.0000
  C   C24       1.0  0.90249306376311  0.7887840605802908  0.11942439030411124  1.0000
  O   O1        1.0  0.369359076888948  0.2704567426370943  0.47607396271909175  1.0000
  O   O2        1.0  0.6303974005508692  0.7700392953587285  0.5242271473745534  1.0000
  O   O3        1.0  0.1302354398914005  0.2700502386855846  0.9761469131412784  1.0000
  O   O4        1.0  0.8694389903170004  0.7704917750583818  0.02368657185202491  1.0000
  O   O5        1.0  0.3617408091111685  0.4344554225226248  0.6560782093041555  1.0000
  O   O6        1.0  0.6385323202806744  0.9342829974845587  0.34412280010931817  1.0000
  O   O7        1.0  0.1386257606149428  0.4343910010234994  0.15601908919045834  1.0000
  O   O8        1.0  0.8615046488131382  0.9343509058955706  0.8440294036572598  1.0000
  O   O9        1.0  0.10779047629061007  0.37874329238178467  0.6237240910504769  1.0000
  O   O10       1.0  0.8926248187178629  0.8786381071604413  0.3760581290068858  1.0000
  O   O11       1.0  0.3926817147237002  0.3787552157668232  0.12391436775382664  1.0000
  O   O12       1.0  0.6073482098795822  0.8789353293932365  0.8761960840260133  1.0000
  O   O13       1.0  0.8607554644887329  0.30055740693797633  0.2649057333679395  1.0000
  O   O14       1.0  0.13967162740581074  0.8005636159838831  0.7347567672009493  1.0000
  O   O15       1.0  0.6396676820779418  0.29976042463450636  0.7651316999061779  1.0000
  O   O16       1.0  0.36078078341275693  0.8005048046290002  0.2350465294437002  1.0000
  O   O17       1.0  0.6522265397793346  0.13012763461088644  0.5859556990060215  1.0000
  O   O18       1.0  0.3475362020759362  0.6303257744903732  0.4142048602390888  1.0000
  O   O19       1.0  0.8476639833845211  0.13038478231840142  0.08587736301847575  1.0000
  O   O20       1.0  0.15193343672359558  0.6299551832843238  0.9141678566826461  1.0000
  O   O21       1.0  0.9073106706039197  0.18719110632289224  0.6114315752405732  1.0000
  O   O22       1.0  0.09238727827329998  0.6871319830612707  0.3886132536108421  1.0000
  O   O23       1.0  0.5924831645856939  0.18716310905659136  0.11141436634488144  1.0000
  O   O24       1.0  0.40700188787045727  0.6869062383102007  0.8884431402374207  1.0000
  O   O25       1.0  0.3882202386263955  0.023051170815044503  0.7524306739710699  1.0000
  O   O26       1.0  0.6113702146737339  0.522946425266639  0.24751296488896207  1.0000
  O   O27       1.0  0.11127470915189257  0.02288232235836321  0.2524847995459042  1.0000
  O   O28       1.0  0.8886178426291521  0.5234235707738932  0.7477135090922362  1.0000
  O   O29       1.0  0.17031786273145139  0.0414734182353129  0.4943001921155813  1.0000
  O   O30       1.0  0.8299677776358649  0.5416221228883346  0.5057386445798218  1.0000
  O   O31       1.0  0.3297162437454589  0.041732113774514815  0.9945903784091572  1.0000
  O   O32       1.0  0.6703898012106605  0.5417254447974288  0.005535901384099901  1.0000
  O   O33       1.0  0.5412421507356058  0.2951306444265215  0.34517651230258667  1.0000
  O   O34       1.0  0.4589456741149006  0.7953458083836011  0.6552251492573763  1.0000
  O   O35       1.0  0.9591062798207944  0.2952513975488955  0.844959585897499  1.0000
  O   O36       1.0  0.04129804740426119  0.7951524334325696  0.15461213136958216  1.0000
  O   O37       1.0  0.03848224826698039  0.2660941787558287  0.39041065453684365  1.0000
  O   O38       1.0  0.9615893046022919  0.7661730491387714  0.609453283061413  1.0000
  O   O39       1.0  0.46133346308949535  0.2660598977065902  0.890483984995868  1.0000
  O   O40       1.0  0.5384526327001212  0.766196919671181  0.10947441227725115  1.0000
  O   O41       1.0  0.2943622003717081  0.17860062097093285  0.6683959176795898  1.0000
  O   O42       1.0  0.7049168180813083  0.6785406619711482  0.3314915914871578  1.0000
  O   O43       1.0  0.20506508682805696  0.1786273909181163  0.16877489187013597  1.0000
  O   O44       1.0  0.7944720267849376  0.6790517083245291  0.8313587427521586  1.0000
  O   O45       1.0  0.30334357635825876  0.8942120204848013  0.4231261946605828  1.0000
  O   O46       1.0  0.6973077037152747  0.39401056720795685  0.5767326626769391  1.0000
  O   O47       1.0  0.1973159487408864  0.8943809465687739  0.9230511171550835  1.0000
  O   O48       1.0  0.8033769701689478  0.3944254012423942  0.07678366566090494  1.0000
