data_image0
_chemical_formula_structural       Al2H16C8Cl6O4
_chemical_formula_sum              "Al2 H16 C8 Cl6 O4"
_cell_length_a       6.351161760275403
_cell_length_b       6.394089815925498
_cell_length_c       13.852128867127153
_cell_angle_alpha    89.98163298397553
_cell_angle_beta     90.0074263362988
_cell_angle_gamma    118.96079605060193

_space_group_name_H-M_alt    "P 1"
_space_group_IT_number       1

loop_
  _space_group_symop_operation_xyz
  'x, y, z'

loop_
  _atom_site_type_symbol
  _atom_site_label
  _atom_site_symmetry_multiplicity
  _atom_site_fract_x
  _atom_site_fract_y
  _atom_site_fract_z
  _atom_site_occupancy
  Al  Al1       1.0  0.4436246083919713  0.950881472605886  0.2500059438403994  1.0000
  Al  Al2       1.0  0.5563968281316677  0.04913966204445331  0.7499956505762242  1.0000
  H   H1        1.0  0.5971200957588464  0.313148100963673  0.4434267952797696  1.0000
  H   H2        1.0  0.4028660623096272  0.6868593002298127  0.9434785097920366  1.0000
  H   H3        1.0  0.4028374566858164  0.6868833482656244  0.5565863472040888  1.0000
  H   H4        1.0  0.5971043527826083  0.31307809583824303  0.05650143274768739  1.0000
  H   H5        1.0  0.28498374751466565  0.16145516631750204  0.41036524072399766  1.0000
  H   H6        1.0  0.7150311735694003  0.8385588591192598  0.9104282041809524  1.0000
  H   H7        1.0  0.7149788959178166  0.8385495525172857  0.589660898448983  1.0000
  H   H8        1.0  0.284943438752677  0.16136534686364712  0.08955390526809028  1.0000
  H   H9        1.0  0.8132683625790449  0.096422113795235  0.44121783578637513  1.0000
  H   H10       1.0  0.18674606920447456  0.9035862660387864  0.9411639774723068  1.0000
  H   H11       1.0  0.18671494794421767  0.9036222629482398  0.5588126321811301  1.0000
  H   H12       1.0  0.8132457749184567  0.09634145724730561  0.05881596641019369  1.0000
  H   H13       1.0  0.6574736820780341  0.7873773821365402  0.4068223258027429  1.0000
  H   H14       1.0  0.3425696265886273  0.21267426382506477  0.9067289086143474  1.0000
  H   H15       1.0  0.34256716889426303  0.21272757563190234  0.5931951443724515  1.0000
  H   H16       1.0  0.6574085565995702  0.7872588367010422  0.0932546440295283  1.0000
  C   C1        1.0  0.4264225294325357  0.1445467176941406  0.44924375245787457  1.0000
  C   C2        1.0  0.5735677665661854  0.8554711212070174  0.9492857580367157  1.0000
  C   C3        1.0  0.5735731891652874  0.8555364573617935  0.5507614458190628  1.0000
  C   C4        1.0  0.42639881037469957  0.14444883082730794  0.050699239189483984  1.0000
  C   C5        1.0  0.6429213390555119  0.9273419111110996  0.4471820298788032  1.0000
  C   C6        1.0  0.3571172333608034  0.07266358009066211  0.9471308024531735  1.0000
  C   C7        1.0  0.3571411204014083  0.07273806086322311  0.5528260580440615  1.0000
  C   C8        1.0  0.6428397003643836  0.9272638748088723  0.0528606911101477  1.0000
  Cl  Cl1       1.0  0.42924702411188775  0.6079937209393761  0.2500658056954491  1.0000
  Cl  Cl2       1.0  0.5708186072500608  0.3920507989608524  0.7499567233936801  1.0000
  Cl  Cl3       1.0  0.10118288381904264  0.9421480156670017  0.24998398672433095  1.0000
  Cl  Cl4       1.0  0.8988392229460586  0.05786296740512141  0.7500139989779055  1.0000
  Cl  Cl5       1.0  0.7767604085152582  0.28548851917031465  0.24996093707702013  1.0000
  Cl  Cl6       1.0  0.22327388690256808  0.7145015985375237  0.7500283877039705  1.0000
  O   O1        1.0  0.4542829879311938  0.9579110071531075  0.3997133295093319  1.0000
  O   O2        1.0  0.5457615683516793  0.042124740892894905  0.8996870126028181  1.0000
  O   O3        1.0  0.5457380457310278  0.042128824068988976  0.6002998139548268  1.0000
  O   O4        1.0  0.4542379521213534  0.9578378682121669  0.10029004101397017  1.0000
