data_image0
_chemical_formula_structural       Cd2H44C68N8O8
_chemical_formula_sum              "Cd2 H44 C68 N8 O8"
_cell_length_a       9.245200875770587
_cell_length_b       17.214921074200394
_cell_length_c       17.215033963275815
_cell_angle_alpha    80.29285297784585
_cell_angle_beta     86.96119568833434
_cell_angle_gamma    86.96119924175088

_space_group_name_H-M_alt    "P 1"
_space_group_IT_number       1

loop_
  _space_group_symop_operation_xyz
  'x, y, z'

loop_
  _atom_site_type_symbol
  _atom_site_label
  _atom_site_symmetry_multiplicity
  _atom_site_fract_x
  _atom_site_fract_y
  _atom_site_fract_z
  _atom_site_occupancy
  Cd  Cd1       1.0  0.5817604949130981  0.7015723602720669  0.7015695903233663  1.0000
  Cd  Cd2       1.0  0.41823871722380085  0.2984266195357391  0.2984240137872263  1.0000
  H   H1        1.0  0.1006275441951487  0.6469556576673484  0.6469645365240666  1.0000
  H   H2        1.0  0.89937681655865  0.3530437895813847  0.3530393374539358  1.0000
  H   H3        1.0  0.909617780402364  0.5865004860395829  0.5865023556949325  1.0000
  H   H4        1.0  0.09038418860185968  0.41350311771058296  0.4134991648006263  1.0000
  H   H5        1.0  0.2401496724431098  0.46138365730385544  0.4613827423394881  1.0000
  H   H6        1.0  0.7598503423151611  0.5386164141473416  0.5386199653243722  1.0000
  H   H7        1.0  0.4258936983444953  0.5234130518265304  0.5234179331480817  1.0000
  H   H8        1.0  0.5741042107734202  0.4765852415404839  0.47658742804912885  1.0000
  H   H9        1.0  0.7689167761507959  0.8645476799607794  0.6501858552259918  1.0000
  H   H10       1.0  0.23108530943920869  0.349814898665926  0.1354534728623946  1.0000
  H   H11       1.0  0.2310918839580935  0.13545414885022924  0.3498123161615041  1.0000
  H   H12       1.0  0.7689104117005171  0.6501864227627293  0.8645439008524605  1.0000
  H   H13       1.0  0.8819325839342013  0.8121102757960658  0.4221685952070331  1.0000
  H   H14       1.0  0.1180565261301396  0.5778331202581698  0.1878862697810177  1.0000
  H   H15       1.0  0.11805477084544692  0.18788698009728935  0.5778278673133741  1.0000
  H   H16       1.0  0.8819445493100561  0.4221687506848538  0.8121120609548313  1.0000
  H   H17       1.0  0.7137146855655913  0.6929014245691008  0.5077325301288411  1.0000
  H   H18       1.0  0.2862756355797913  0.49227278072900305  0.3071005254310535  1.0000
  H   H19       1.0  0.2862676543208806  0.3071040519945001  0.4922697023788984  1.0000
  H   H20       1.0  0.7137393385818882  0.5077325665647195  0.6928952036261293  1.0000
  H   H21       1.0  0.0850366379868603  0.8039470971108856  0.5898445835668439  1.0000
  H   H22       1.0  0.9149597525614225  0.4101564974865397  0.1960511316631468  1.0000
  H   H23       1.0  0.9149692633425275  0.1960488972445162  0.4101493502821825  1.0000
  H   H24       1.0  0.08503333449166209  0.5898500934945757  0.8039512687278788  1.0000
  H   H25       1.0  0.6516116315641867  0.9449714124152206  0.4609588548571537  1.0000
  H   H26       1.0  0.34838637394380356  0.5390363355102109  0.055027067961930215  1.0000
  H   H27       1.0  0.3483975579470808  0.055023974015753714  0.5390351039642667  1.0000
  H   H28       1.0  0.6515992412693165  0.460968527999377  0.9449757715711015  1.0000
  H   H29       1.0  0.536725099063503  0.06805375996223971  0.3891617958855988  1.0000
  H   H30       1.0  0.4632820428446037  0.6108324251550388  0.9319471219128559  1.0000
  H   H31       1.0  0.46328402617164943  0.9319416008207783  0.6108350732003273  1.0000
  H   H32       1.0  0.5367082073415544  0.38916769533631174  0.06805637268037398  1.0000
  H   H33       1.0  0.6694325222472485  0.19264806353574224  0.36479472230275434  1.0000
  H   H34       1.0  0.33056918292156473  0.6352030189493477  0.807352728940863  1.0000
  H   H35       1.0  0.33057123583220976  0.807346742603322  0.6352017718150762  1.0000
  H   H36       1.0  0.66942415454335  0.3647994378272302  0.1926509063549133  1.0000
  H   H37       1.0  0.5236757627818421  0.9660734339467326  0.7730817489171143  1.0000
  H   H38       1.0  0.4763389384770562  0.22691820707090224  0.03393151363862052  1.0000
  H   H39       1.0  0.4763254740397116  0.0339248721412417  0.2269200516705396  1.0000
  H   H40       1.0  0.5236622359805594  0.7730812838823624  0.9660695183670356  1.0000
  H   H41       1.0  0.5043878124350768  0.06070691901394551  0.8659361086765074  1.0000
  H   H42       1.0  0.4956303995195268  0.1340651789924152  0.9392969975173527  1.0000
  H   H43       1.0  0.4956166373491939  0.9392919588852993  0.1340655303544409  1.0000
  H   H44       1.0  0.5043773384466235  0.865933090982395  0.06070466648598937  1.0000
  C   C1        1.0  0.3940244317099016  0.624976999201941  0.624982287905638  1.0000
  C   C2        1.0  0.6059799666534786  0.3750218581789468  0.37502167933691766  1.0000
  C   C3        1.0  0.27619260896266706  0.5889263064915157  0.5889358957341244  1.0000
  C   C4        1.0  0.723811851764644  0.4110713660240748  0.4110688400904294  1.0000
  C   C5        1.0  0.1293647295195299  0.6060742648732005  0.6060824869678355  1.0000
  C   C6        1.0  0.8706406257279012  0.39392574570616296  0.3939235991931723  1.0000
  C   C7        1.0  0.022289815282640294  0.5714786049060693  0.5714838838452323  1.0000
  C   C8        1.0  0.9777110178204963  0.42852437908798185  0.4285218270492308  1.0000
  C   C9        1.0  0.05710198765572727  0.5184109424175247  0.5184104805991083  1.0000
  C   C10       1.0  0.9428956720064505  0.48159209041065043  0.48159180627011017  1.0000
  C   C11       1.0  0.2053131683743743  0.5017710141769669  0.501771863348374  1.0000
  C   C12       1.0  0.7946835710572414  0.4982296703282573  0.498230237290194  1.0000
  C   C13       1.0  0.31183323816777175  0.5364083304687244  0.5364143134044923  1.0000
  C   C14       1.0  0.6881637140660929  0.4635888096998073  0.46358892887426606  1.0000
  C   C15       1.0  0.7782703079855012  0.832585973741729  0.6008460254260442  1.0000
  C   C16       1.0  0.22172646162889723  0.3991543528808918  0.16741289761176864  1.0000
  C   C17       1.0  0.22173202712755113  0.16741354197021957  0.3991514914981451  1.0000
  C   C18       1.0  0.7782638666446856  0.6008464036446172  0.8325852652407946  1.0000
  C   C19       1.0  0.8341259241301839  0.8040491296300092  0.4816210481272449  1.0000
  C   C20       1.0  0.1658700883076918  0.5183808860517871  0.1959506113577518  1.0000
  C   C21       1.0  0.1658698969830539  0.19595041706551095  0.5183771874341545  1.0000
  C   C22       1.0  0.834137500176233  0.4816203486510561  0.8040488401641426  1.0000
  C   C23       1.0  0.7522875825376758  0.7458874310217212  0.5244456039733834  1.0000
  C   C24       1.0  0.2477023946143859  0.4755572439898971  0.2541113179144148  1.0000
  C   C25       1.0  0.24769615556083827  0.25411393096643314  0.4755549304105458  1.0000
  C   C26       1.0  0.7523085601388432  0.5244440188226775  0.7458828268392138  1.0000
  C   C27       1.0  0.14069222423808722  0.8592417816354756  0.5792582614999019  1.0000
  C   C28       1.0  0.8593007155201916  0.4207442444231758  0.14075642858935572  1.0000
  C   C29       1.0  0.859314861545009  0.14075303722454896  0.4207346720083649  1.0000
  C   C30       1.0  0.1406846740354624  0.5792641582935119  0.859245851356384  1.0000
  C   C31       1.0  0.06880925548438202  0.9289137764352448  0.5396017980227086  1.0000
  C   C32       1.0  0.9311819041174018  0.4604010005703217  0.07108370149416737  1.0000
  C   C33       1.0  0.9311989771428346  0.07108045679725451  0.46039004188025257  1.0000
  C   C34       1.0  0.0688023395502171  0.5396085930305149  0.9289178326336297  1.0000
  C   C35       1.0  0.9265462353465209  0.9301092750924201  0.514059524274991  1.0000
  C   C36       1.0  0.07344818706160079  0.4859407363806344  0.06988843438547576  1.0000
  C   C37       1.0  0.0734609880196686  0.0698831791666095  0.48593436434437354  1.0000
  C   C38       1.0  0.9265363198730654  0.5140647281452503  0.930113752594167  1.0000
  C   C39       1.0  0.8546710609752353  0.9985081145711521  0.47507131079614606  1.0000
  C   C40       1.0  0.14533163689552  0.5249260286954681  0.001489315007780977  1.0000
  C   C41       1.0  0.14534163143234477  0.0014843301119497998  0.5249201357913549  1.0000
  C   C42       1.0  0.8546548737938052  0.4750817781345092  0.9985130354384567  1.0000
  C   C43       1.0  0.7101056299129309  0.999364565347598  0.44947702209204715  1.0000
  C   C44       1.0  0.2898989369207285  0.5505196150245056  0.0006338418314441949  1.0000
  C   C45       1.0  0.2899068734906578  0.0006302234181277012  0.5505157975959705  1.0000
  C   C46       1.0  0.7100899921847201  0.44948465081983363  0.9993678585681848  1.0000
  C   C47       1.0  0.6458513303610972  0.0675786856023208  0.4103390640428515  1.0000
  C   C48       1.0  0.3541484568618715  0.589658058002648  0.9324192872197302  1.0000
  C   C49       1.0  0.35415585443941916  0.9324137532679446  0.5896565707352223  1.0000
  C   C50       1.0  0.6458405346075153  0.4103450229764007  0.067583181761897  1.0000
  C   C51       1.0  0.7211172826292441  0.13883032430769052  0.395851501315839  1.0000
  C   C52       1.0  0.27888302356498673  0.6041469979978444  0.8611691820146419  1.0000
  C   C53       1.0  0.2788887434280198  0.8611633003171308  0.6041439696971836  1.0000
  C   C54       1.0  0.7211047458411174  0.3958578483444271  0.1388341940431914  1.0000
  C   C55       1.0  0.5447123905891686  0.8067158134685926  0.8067151681327116  1.0000
  C   C56       1.0  0.4552954344952695  0.19328067664349652  0.19328793977008019  1.0000
  C   C57       1.0  0.5270284443203153  0.8635331456756035  0.8635310424240571  1.0000
  C   C58       1.0  0.4729727677468815  0.1364657554098088  0.1364700828461451  1.0000
  C   C59       1.0  0.5199735656949046  0.9450174532170551  0.8364995770525141  1.0000
  C   C60       1.0  0.48003284229713467  0.16349855918393533  0.054986029966173085  1.0000
  C   C61       1.0  0.48002867943159083  0.054982026587758505  0.1635020142419847  1.0000
  C   C62       1.0  0.5199695294694067  0.8364997614035444  0.945013419645825  1.0000
  C   C63       1.0  0.5090152896075395  0.9978668245568088  0.8895125113001042  1.0000
  C   C64       1.0  0.49100043094071566  0.11048810590619242  0.0021362714208308054  1.0000
  C   C65       1.0  0.4909913015144908  0.0021320310455337  0.11049024630853671  1.0000
  C   C66       1.0  0.509004043597912  0.8895101769956142  0.9978660429275691  1.0000
  C   C67       1.0  0.5045409474771817  0.9717468956001623  0.9717494259789419  1.0000
  C   C68       1.0  0.495466890462481  0.028249599641512198  0.0282530998709447  1.0000
  N   N1        1.0  0.7187065553584944  0.7645761970555043  0.5983500700723283  1.0000
  N   N2        1.0  0.2812901498091803  0.4016500574998787  0.2354238749325219  1.0000
  N   N3        1.0  0.28128799418274747  0.23542630499812137  0.4016477219303809  1.0000
  N   N4        1.0  0.7187174534421458  0.5983523928457898  0.7645713156899703  1.0000
  N   N5        1.0  0.849836766923623  0.8586595647790604  0.5310148524461553  1.0000
  N   N6        1.0  0.15015895995254877  0.4689880995842799  0.1413389461477053  1.0000
  N   N7        1.0  0.1501646598580066  0.14133700248290643  0.4689837356177335  1.0000
  N   N8        1.0  0.8498333463652514  0.5310149889861435  0.8586605442772636  1.0000
  O   O1        1.0  0.35549777557052653  0.6731525194062871  0.6731577813595493  1.0000
  O   O2        1.0  0.6445065347184737  0.3268475125806988  0.32684658140680506  1.0000
  O   O3        1.0  0.525654346345391  0.607869439712566  0.6078761880087953  1.0000
  O   O4        1.0  0.4743501272371446  0.3921282379326172  0.3921279657628531  1.0000
  O   O5        1.0  0.553031070709345  0.8336379136055714  0.7327881314626268  1.0000
  O   O6        1.0  0.4469769272121765  0.2672090933712497  0.1663634717044786  1.0000
  O   O7        1.0  0.44697340382928274  0.16636036929623546  0.26721418288577337  1.0000
  O   O8        1.0  0.5530243234206865  0.732789823102934  0.8336359074070144  1.0000
