data_image0
_chemical_formula_structural       Cd6H12C12N18Cl6
_chemical_formula_sum              "Cd6 H12 C12 N18 Cl6"
_cell_length_a       8.160610552724242
_cell_length_b       8.160602374678483
_cell_length_c       11.834964462622654
_cell_angle_alpha    91.85098405549226
_cell_angle_beta     91.8509314302273
_cell_angle_gamma    114.98071408897704

_space_group_name_H-M_alt    "P 1"
_space_group_IT_number       1

loop_
  _space_group_symop_operation_xyz
  'x, y, z'

loop_
  _atom_site_type_symbol
  _atom_site_label
  _atom_site_symmetry_multiplicity
  _atom_site_fract_x
  _atom_site_fract_y
  _atom_site_fract_z
  _atom_site_occupancy
  Cd  Cd1       1.0  0.3733303668526347  0.6266684676677342  0.7499994824290396  1.0000
  Cd  Cd2       1.0  0.6266700175304507  0.37333060138394814  0.24999941277668822  1.0000
  Cd  Cd3       1.0  0.8708740284583386  0.4413514608875957  0.6443062599853135  1.0000
  Cd  Cd4       1.0  0.5586467471367698  0.12912397864658937  0.8556933075951108  1.0000
  Cd  Cd5       1.0  0.1291257093952254  0.5586489671117575  0.35569349517173515  1.0000
  Cd  Cd6       1.0  0.44135241944859166  0.8708750995401784  0.1443072520924531  1.0000
  H   H1        1.0  0.5960705135326381  0.7266611720295657  0.4888472004169913  1.0000
  H   H2        1.0  0.27333831565429273  0.4039302036774898  0.011151722390856399  1.0000
  H   H3        1.0  0.4039303782247573  0.27334196696352103  0.5111534810332969  1.0000
  H   H4        1.0  0.726662643786135  0.596070218976294  0.9888472134024439  1.0000
  H   H5        1.0  0.807443187454517  0.08795885659723979  0.4414888333273552  1.0000
  H   H6        1.0  0.9120419592998205  0.19256002844751655  0.0585115964683141  1.0000
  H   H7        1.0  0.19255770430287802  0.9120442823958468  0.558511848122933  1.0000
  H   H8        1.0  0.08796015404444542  0.8074431052000007  0.9414882656182326  1.0000
  H   H9        1.0  0.8410864456075872  0.8579536098745492  0.701938364515584  1.0000
  H   H10       1.0  0.1420451266531515  0.15891186671705526  0.7980622039185334  1.0000
  H   H11       1.0  0.15891092054441464  0.1420441162661632  0.298062128830054  1.0000
  H   H12       1.0  0.857952893606651  0.8410845080550187  0.20193911971197306  1.0000
  C   C1        1.0  0.6267442778963356  0.8511563872179976  0.538088538396181  1.0000
  C   C2        1.0  0.14884322594510727  0.37325997322665927  0.9619113928313039  1.0000
  C   C3        1.0  0.3732560388037173  0.14884539817298056  0.46191210246652764  1.0000
  C   C4        1.0  0.851157665812288  0.6267431657664275  0.03808928861898409  1.0000
  C   C5        1.0  0.7310777058262163  0.0296306002802353  0.5142020378107759  1.0000
  C   C6        1.0  0.9703698476162119  0.2689261053651392  0.9857984597311784  1.0000
  C   C7        1.0  0.26892260708469706  0.9703711813212266  0.4857977579338452  1.0000
  C   C8        1.0  0.029631044141183262  0.7310770336279474  0.014202221719109794  1.0000
  C   C9        1.0  0.9764188200199656  0.8752159810579697  0.7262397757023678  1.0000
  C   C10       1.0  0.12478305253286241  0.02357920059039739  0.7737607562506881  1.0000
  C   C11       1.0  0.023578546132036107  0.12478174508274259  0.2737607176432704  1.0000
  C   C12       1.0  0.875216764371146  0.9764185224382158  0.2262397886036496  1.0000
  N   N1        1.0  0.2004814213364909  0.7995179328796879  0.7499995469370191  1.0000
  N   N2        1.0  0.7995189668357272  0.2004811399615107  0.2500001933868035  1.0000
  N   N3        1.0  0.02808655131988046  0.7389181652600739  0.7122933522473573  1.0000
  N   N4        1.0  0.26108129664801544  0.9719121804247948  0.787706610400697  1.0000
  N   N5        1.0  0.9719120326298523  0.261079551745553  0.28770547661645196  1.0000
  N   N6        1.0  0.7389190915242099  0.028086892416403896  0.21229312992312543  1.0000
  N   N7        1.0  0.7273154603379126  0.13379191819866068  0.6044381589913215  1.0000
  N   N8        1.0  0.8662095016933621  0.2726877311419429  0.8955632243714219  1.0000
  N   N9        1.0  0.2726842813047909  0.8662085135902159  0.39556244128381474  1.0000
  N   N10       1.0  0.13379261922918315  0.727315410084614  0.10443832795130699  1.0000
  N   N11       1.0  0.5649758560026187  0.8533056458650133  0.6427046777224348  1.0000
  N   N12       1.0  0.14669496385426586  0.4350229095747337  0.8572934889288746  1.0000
  N   N13       1.0  0.43502330679359613  0.14669342853223102  0.35729503684703445  1.0000
  N   N14       1.0  0.8533060708474736  0.5649748043187939  0.1427053914436271  1.0000
  N   N15       1.0  0.6268491423233584  0.0254999348860494  0.6815116512131283  1.0000
  N   N16       1.0  0.9745007970359085  0.3731512058682043  0.8184871205348968  1.0000
  N   N17       1.0  0.3731500204728562  0.9744991395111952  0.31848806335634083  1.0000
  N   N18       1.0  0.02550016619365885  0.6268492205750957  0.18151266037649796  1.0000
  Cl  Cl1       1.0  0.18279424768913813  0.447353632651634  0.5574702240715439  1.0000
  Cl  Cl2       1.0  0.5526449608788512  0.8172046563271919  0.942529585614025  1.0000
  Cl  Cl3       1.0  0.8172061366939475  0.5526454364000486  0.44252867113418404  1.0000
  Cl  Cl4       1.0  0.4473542019173635  0.18279441807005975  0.05747012895544399  1.0000
  Cl  Cl5       1.0  0.5709344865578175  0.4290642338449614  0.7500002637424856  1.0000
  Cl  Cl6       1.0  0.4290646800275368  0.5709348443418065  0.25000029594507817  1.0000
