data_image0
_chemical_formula_structural       Cu4H36C20N20O12
_chemical_formula_sum              "Cu4 H36 C20 N20 O12"
_cell_length_a       7.399696023198419
_cell_length_b       9.751110379620567
_cell_length_c       12.764862089403664
_cell_angle_alpha    81.18074737652245
_cell_angle_beta     73.17710482420533
_cell_angle_gamma    67.70178117775276

_space_group_name_H-M_alt    "P 1"
_space_group_IT_number       1

loop_
  _space_group_symop_operation_xyz
  'x, y, z'

loop_
  _atom_site_type_symbol
  _atom_site_label
  _atom_site_symmetry_multiplicity
  _atom_site_fract_x
  _atom_site_fract_y
  _atom_site_fract_z
  _atom_site_occupancy
  Cu  Cu1       1.0  0.49276171724211804  0.575541608365178  0.8485747298988996  1.0000
  Cu  Cu2       1.0  0.9171651047137171  0.9243433195146624  0.6514130937861964  1.0000
  Cu  Cu3       1.0  0.5072375102631664  0.42446525688684034  0.15142526149844565  1.0000
  Cu  Cu4       1.0  0.08282457375883484  0.07566467872656091  0.3485887910618003  1.0000
  H   H1        1.0  0.4567142811983442  0.3400492950891093  0.7737096178583156  1.0000
  H   H2        1.0  0.5709372001512633  0.15928621212007957  0.7263207469386825  1.0000
  H   H3        1.0  0.543269719207828  0.6599787323243972  0.22629597095110648  1.0000
  H   H4        1.0  0.4290485041510834  0.8407407084217057  0.2736851272881111  1.0000
  H   H5        1.0  0.3085062752526822  0.32322378272942853  0.8856531223910976  1.0000
  H   H6        1.0  0.5168043566692687  0.17690365712297051  0.6145332330500536  1.0000
  H   H7        1.0  0.691490328093145  0.6767697555717122  0.11434655562779741  1.0000
  H   H8        1.0  0.48320908964038256  0.8230898655378383  0.3854651490851139  1.0000
  H   H9        1.0  0.6871345789671035  0.6681062381954492  0.6809348809699499  1.0000
  H   H10       1.0  0.03641672440360097  0.8318425359007832  0.8190600535468703  1.0000
  H   H11       1.0  0.3128673242995675  0.3318950447656164  0.31906252386105644  1.0000
  H   H12       1.0  0.9635847745663638  0.16815876862229834  0.18093915456879725  1.0000
  H   H13       1.0  0.1558897411913945  0.38422434334340494  0.7080804393978822  1.0000
  H   H14       1.0  0.24841262679159837  0.11565677084304583  0.7919953030685247  1.0000
  H   H15       1.0  0.8441148918198985  0.6157769574847267  0.291918461950999  1.0000
  H   H16       1.0  0.7515865266639847  0.8843445280111979  0.20800342914670716  1.0000
  H   H17       1.0  0.00815337636603885  0.5735126440807862  0.7247526818394546  1.0000
  H   H18       1.0  0.30666453972243324  0.926317628128274  0.77533834429628  1.0000
  H   H19       1.0  0.9918487805851864  0.4264864625920169  0.27524842449519576  1.0000
  H   H20       1.0  0.6933323950610486  0.07368257691298652  0.22466176277033864  1.0000
  H   H21       1.0  0.9525232542849833  0.4630523979729589  0.5780034893788722  1.0000
  H   H22       1.0  0.9939068363579577  0.03685032828170879  0.9221337754212439  1.0000
  H   H23       1.0  0.04748253141703165  0.5369489394498217  0.42199847382233463  1.0000
  H   H24       1.0  0.006088889238810584  0.9631532180762008  0.07786720986135261  1.0000
  H   H25       1.0  0.858040531700915  0.34107477295057725  0.6756208795668641  1.0000
  H   H26       1.0  0.8752110867503474  0.15884662479780326  0.824435685129515  1.0000
  H   H27       1.0  0.14196817078740046  0.6589253929144477  0.32437595919771667  1.0000
  H   H28       1.0  0.12478821361398205  0.8411535521520791  0.17556207393543125  1.0000
  H   H29       1.0  0.5733761163748382  0.4475930102412209  0.6053071086984757  1.0000
  H   H30       1.0  0.6266216600682383  0.05244973943092649  0.8945713331249009  1.0000
  H   H31       1.0  0.42663285986449734  0.5524049455753117  0.3946906076676412  1.0000
  H   H32       1.0  0.3733763369932105  0.9475482461980533  0.10542886887602523  1.0000
  H   H33       1.0  0.607723723679214  0.6095280141037095  0.5322484848037873  1.0000
  H   H34       1.0  0.7499193486949163  0.8906641122671106  0.967764863052025  1.0000
  H   H35       1.0  0.39227687628458335  0.39047107753646065  0.46775136296319886  1.0000
  H   H36       1.0  0.2500847695404502  0.10933498787632352  0.032235698565614306  1.0000
  C   C1        1.0  0.9241706872687699  0.4257745653721728  0.8542242511752676  1.0000
  C   C2        1.0  0.2041654431541885  0.0741739823561147  0.6458944600886908  1.0000
  C   C3        1.0  0.07583396210558384  0.5742234250651208  0.1457763579095257  1.0000
  C   C4        1.0  0.7958367338635101  0.9258250905564649  0.3541038223438449  1.0000
  C   C5        1.0  0.0005678507838524059  0.46154002032886876  0.7362814389593523  1.0000
  C   C6        1.0  0.1986044206243137  0.03829335931956731  0.7638299594598051  1.0000
  C   C7        1.0  0.9994362674515139  0.5384590798145723  0.26371912265828706  1.0000
  C   C8        1.0  0.8013947328312693  0.9617079395346695  0.2361687727554269  1.0000
  C   C9        1.0  0.874976366734259  0.45001185724567705  0.6647437145282423  1.0000
  C   C10       1.0  0.9900944090772156  0.049848815689223606  0.8353452416919891  1.0000
  C   C11       1.0  0.12502800888906757  0.5499883432401093  0.3352560169550215  1.0000
  C   C12       1.0  0.009901994567286285  0.9501524990581842  0.16465481790747558  1.0000
  C   C13       1.0  0.55469315187959  0.5632551990510636  0.6143879845745274  1.0000
  C   C14       1.0  0.7326574707798201  0.9367752073088697  0.8856054556661802  1.0000
  C   C15       1.0  0.4453088782293619  0.4367449957658779  0.385611271008301  1.0000
  C   C16       1.0  0.26733583525287224  0.06322276698241323  0.1143937945338749  1.0000
  C   C17       1.0  0.3338370073803178  0.651069114774387  0.6615403142577847  1.0000
  C   C18       1.0  0.6468912156104022  0.8488352608985609  0.838458813125868  1.0000
  C   C19       1.0  0.6661539732044586  0.3489288200878279  0.33845563613972723  1.0000
  C   C20       1.0  0.3531013145549905  0.15115613573507153  0.16154745911534715  1.0000
  N   N1        1.0  0.7328875238226683  0.40444311751477363  0.013159780507578477  1.0000
  N   N2        1.0  0.15061675734541075  0.09534047270177841  0.48688896532225084  1.0000
  N   N3        1.0  0.26711413841909576  0.5955537547131089  0.9868401621937222  1.0000
  N   N4        1.0  0.8493814971040052  0.9046586132695467  0.5131104065442996  1.0000
  N   N5        1.0  0.9207296452083964  0.33443568753752834  0.01891836812374942  1.0000
  N   N6        1.0  0.2741536289953359  0.1653835884437242  0.48118649684159454  1.0000
  N   N7        1.0  0.07927187012462883  0.6655623065947083  0.981082547727837  1.0000
  N   N8        1.0  0.7258448828420465  0.8346165978699531  0.5188120448905805  1.0000
  N   N9        1.0  0.04346058506254002  0.34616562495363473  0.9204071852053132  1.0000
  N   N10       1.0  0.3100193666931049  0.15374789926539736  0.5797418496753507  1.0000
  N   N11       1.0  0.9565408197912642  0.6538301469319026  0.07959358763036303  1.0000
  N   N12       1.0  0.6899797867624784  0.8462533995888465  0.42025688253988136  1.0000
  N   N13       1.0  0.672608296733763  0.56479745755518  0.6889641541649567  1.0000
  N   N14       1.0  0.9266302035593409  0.9351739314957684  0.8110581579452613  1.0000
  N   N15       1.0  0.32739267109721465  0.435204956674042  0.3110350064835643  1.0000
  N   N16       1.0  0.07336673122414797  0.06482627354549211  0.18894194912135728  1.0000
  N   N17       1.0  0.7292907318104154  0.4633162947744085  0.9105631462316238  1.0000
  N   N18       1.0  0.10322721096962795  0.036595300566261806  0.5894977971469898  1.0000
  N   N19       1.0  0.2707122500972827  0.5366794583835388  0.08943606126960187  1.0000
  N   N20       1.0  0.8967736463821363  0.9634048914162533  0.4105012204856209  1.0000
  O   O1        1.0  0.21136568656851296  0.6957951214746246  0.603401027307484  1.0000
  O   O2        1.0  0.5111463402473291  0.8039950143375237  0.8965111627567521  1.0000
  O   O3        1.0  0.7886367969263188  0.3041951206077799  0.3966015481984113  1.0000
  O   O4        1.0  0.48886087070579254  0.19599189493150254  0.10349124838382547  1.0000
  O   O5        1.0  0.2831514630723787  0.6729122371748489  0.7657700784018003  1.0000
  O   O6        1.0  0.7221820263168793  0.8270373496028541  0.7342211981197123  1.0000
  O   O7        1.0  0.7168466645347563  0.3270879369406074  0.23422744271292828  1.0000
  O   O8        1.0  0.277812853066301  0.17295732933023805  0.2657810183839188  1.0000
  O   O9        1.0  0.45284903027727796  0.31128165256789947  0.8508336161501686  1.0000
  O   O10       1.0  0.6144323586524082  0.18895329996411195  0.6493293897389661  1.0000
  O   O11       1.0  0.5471499550124432  0.6887085472510108  0.14916542160296586  1.0000
  O   O12       1.0  0.38558189254725744  0.8110369029420569  0.35066991746489146  1.0000
