data_image0
_chemical_formula_structural       Cs4H8C20N12O24
_chemical_formula_sum              "Cs4 H8 C20 N12 O24"
_cell_length_a       7.78223487209915
_cell_length_b       10.317584541902168
_cell_length_c       12.842613304433247
_cell_angle_alpha    82.21792778129449
_cell_angle_beta     72.37337561034421
_cell_angle_gamma    67.84282535687966

_space_group_name_H-M_alt    "P 1"
_space_group_IT_number       1

loop_
  _space_group_symop_operation_xyz
  'x, y, z'

loop_
  _atom_site_type_symbol
  _atom_site_label
  _atom_site_symmetry_multiplicity
  _atom_site_fract_x
  _atom_site_fract_y
  _atom_site_fract_z
  _atom_site_occupancy
  Cs  Cs1       1.0  0.7653362497167463  0.526726596611489  0.43316445545639937  1.0000
  Cs  Cs2       1.0  0.7250319923000887  0.9733283351341626  0.06690279637614081  1.0000
  Cs  Cs3       1.0  0.2346632392597386  0.47327308174489946  0.5668351144440322  1.0000
  Cs  Cs4       1.0  0.27496937543278926  0.026671343504716595  0.9330962411952013  1.0000
  H   H1        1.0  0.8053261379570741  0.38462454328605833  0.7568431655285508  1.0000
  H   H2        1.0  0.9467010546739587  0.11534603378087377  0.7431974399287286  1.0000
  H   H3        1.0  0.19467367606116426  0.6153751344963467  0.24315742988905234  1.0000
  H   H4        1.0  0.0532987593442798  0.8846536440015242  0.2568031554888677  1.0000
  H   H5        1.0  0.8079072058623069  0.30871754039976895  0.08295940732413953  1.0000
  H   H6        1.0  0.19942317063756573  0.1913176968883192  0.4170886374523946  1.0000
  H   H7        1.0  0.19209287123698726  0.6912831846130344  0.917040389894403  1.0000
  H   H8        1.0  0.8005750277053425  0.8086830278419939  0.5829116920952301  1.0000
  C   C1        1.0  0.7738200923378356  0.43007532525415104  0.8355941621962445  1.0000
  C   C2        1.0  0.039356610512129644  0.06990234030422468  0.6644434170441469  1.0000
  C   C3        1.0  0.22617972168040976  0.5699243525282468  0.16440643322135173  1.0000
  C   C4        1.0  0.9606432035061161  0.9300973374781735  0.33555717837344906  1.0000
  C   C5        1.0  0.7020129863581204  0.5733181191043925  0.8508981882461126  1.0000
  C   C6        1.0  0.1261410760686346  0.9266890788621964  0.649115310881335  1.0000
  C   C7        1.0  0.29798734143638234  0.42668051187585115  0.1491024264474206  1.0000
  C   C8        1.0  0.8738587379496038  0.0733105989202016  0.35088528453626117  1.0000
  C   C9        1.0  0.6750121416116956  0.6376625732645564  0.9517615332581001  1.0000
  C   C10       1.0  0.26431909789199154  0.8623699562230202  0.5482500985705343  1.0000
  C   C11       1.0  0.32499433622824364  0.36233501176100447  0.0482375037241027  1.0000
  C   C12       1.0  0.7356814929835661  0.1376297219876221  0.4517497179239385  1.0000
  C   C13       1.0  0.7204651958613439  0.5287044475342098  0.034736411192618326  1.0000
  C   C14       1.0  0.28371836957020946  0.9713363851686411  0.46528340552298175  1.0000
  C   C15       1.0  0.27953461815689473  0.47129523024818804  0.9652641842249848  1.0000
  C   C16       1.0  0.7162811194062755  0.028663293187747695  0.5347161643774497  1.0000
  C   C17       1.0  0.7760150969000251  0.38790917611551373  0.01941362988405609  1.0000
  C   C18       1.0  0.18310456055191787  0.11214004103857889  0.48062057179740947  1.0000
  C   C19       1.0  0.22398549397553322  0.6120905020951282  0.9805861866104166  1.0000
  C   C20       1.0  0.8168960303236404  0.8878596371720631  0.5193792446970633  1.0000
  N   N1        1.0  0.6572413746436258  0.6594726556693612  0.7580663534915429  1.0000
  N   N2        1.0  0.07475419666420202  0.8404672356767902  0.7419314844294789  1.0000
  N   N3        1.0  0.3427573374755396  0.340527022258783  0.24193399533201185  1.0000
  N   N4        1.0  0.9252447785360188  0.15953348948175963  0.2580680661950154  1.0000
  N   N5        1.0  0.7029279216961937  0.5680151210295891  0.14272754126870515  1.0000
  N   N6        1.0  0.41350301728001426  0.9320426546739711  0.3573014283670801  1.0000
  N   N7        1.0  0.29707215540309323  0.43198560398320746  0.8572722559498303  1.0000
  N   N8        1.0  0.5864970598192798  0.0679580703388254  0.6426983688514554  1.0000
  N   N9        1.0  0.80692074378738  0.33749122146764415  0.919548279010172  1.0000
  N   N10       1.0  0.06380349461881  0.1625142668047559  0.5805003506481938  1.0000
  N   N11       1.0  0.19307984708817835  0.6625084567429977  0.08045153748430073  1.0000
  N   N12       1.0  0.936196319399429  0.8374854109776418  0.4195002447694023  1.0000
  O   O1        1.0  0.7600068732321079  0.6163481905134913  0.6645654848265821  1.0000
  O   O2        1.0  0.040895328339445126  0.8835964106879077  0.8354394382841405  1.0000
  O   O3        1.0  0.23999294078613084  0.3836514872689136  0.3354351105910141  1.0000
  O   O4        1.0  0.959105262536113  0.11640326752273464  0.16456037821033218  1.0000
  O   O5        1.0  0.5174021901549251  0.7716993869080679  0.7738394139245272  1.0000
  O   O6        1.0  0.0628528159602981  0.7282730694590427  0.7261297173318012  1.0000
  O   O7        1.0  0.48259652196423974  0.2283002910200835  0.22616093489903477  1.0000
  O   O8        1.0  0.9371458961588671  0.27172660846910895  0.2738706314917606  1.0000
  O   O9        1.0  0.6209102161240593  0.7661342124557179  0.9667104057172509  1.0000
  O   O10       1.0  0.353666237323118  0.7339074660357524  0.533312062924459  1.0000
  O   O11       1.0  0.3790964504503832  0.23386232634167203  0.0332876250237177  1.0000
  O   O12       1.0  0.6463332516533669  0.2660922123206361  0.46668750697597255  1.0000
  O   O13       1.0  0.7839352521529647  0.6491457758664864  0.14836559631443438  1.0000
  O   O14       1.0  0.5812559525318478  0.8508567533450556  0.3516321330374979  1.0000
  O   O15       1.0  0.21606644062166672  0.35085390219840207  0.8516344667740795  1.0000
  O   O16       1.0  0.41874165768824406  0.1491429247288423  0.6483679691920159  1.0000
  O   O17       1.0  0.6106854641107163  0.5173208502400043  0.22366085710832806  1.0000
  O   O18       1.0  0.35147353033342205  0.9828542805004971  0.27637328694832775  1.0000
  O   O19       1.0  0.38931351108950435  0.4826798749185458  0.7763386935161734  1.0000
  O   O20       1.0  0.648529013645067  0.017147491451204595  0.7236262052592295  1.0000
  O   O21       1.0  0.868342623566015  0.20156145394251715  0.9059606876488004  1.0000
  O   O22       1.0  0.9758479599193353  0.29842094548852316  0.5941577941876232  1.0000
  O   O23       1.0  0.13165906920861678  0.7984382241223782  0.0940393754397135  1.0000
  O   O24       1.0  0.024151854098903483  0.7015787322938748  0.40584280122998007  1.0000
