data_image0
_chemical_formula_structural       Cd4H40C48S8N8O16
_chemical_formula_sum              "Cd4 H40 C48 S8 N8 O16"
_cell_length_a       7.163042732136902
_cell_length_b       13.740697477431635
_cell_length_c       14.19872357690828
_cell_angle_alpha    93.13023392552637
_cell_angle_beta     90.00036310946913
_cell_angle_gamma    90.00180554352039

_space_group_name_H-M_alt    "P 1"
_space_group_IT_number       1

loop_
  _space_group_symop_operation_xyz
  'x, y, z'

loop_
  _atom_site_type_symbol
  _atom_site_label
  _atom_site_symmetry_multiplicity
  _atom_site_fract_x
  _atom_site_fract_y
  _atom_site_fract_z
  _atom_site_occupancy
  Cd  Cd1       1.0  0.7515182004037796  0.7593459443215238  0.35377983176356764  1.0000
  Cd  Cd2       1.0  0.25151569566437354  0.7406443522662228  0.1462085129608468  1.0000
  Cd  Cd3       1.0  0.24849843033732807  0.2406399604363969  0.6462183845456979  1.0000
  Cd  Cd4       1.0  0.7484939548407823  0.2593611706516228  0.853788152916252  1.0000
  H   H1        1.0  0.8872023150329581  0.5351986561283795  0.2768553542245087  1.0000
  H   H2        1.0  0.3871953128792285  0.9647937903336724  0.2231486845347419  1.0000
  H   H3        1.0  0.11280175133118317  0.46478294952525084  0.7231455568624555  1.0000
  H   H4        1.0  0.6128003772386138  0.0352132624609638  0.7768508434205827  1.0000
  H   H5        1.0  0.8955136498937506  0.36523986965276833  0.3347183098457336  1.0000
  H   H6        1.0  0.3954965093915206  0.13475655376272747  0.1652959682413453  1.0000
  H   H7        1.0  0.10449739678158919  0.6347417543065247  0.6652833062060141  1.0000
  H   H8        1.0  0.6044852204827647  0.8652513731088404  0.8347092210052836  1.0000
  H   H9        1.0  0.796007172499337  0.3373601136870406  0.4988706740175958  1.0000
  H   H10       1.0  0.2959911906579008  0.16264511694110687  0.0011451213524082994  1.0000
  H   H11       1.0  0.20399410190055528  0.6626259182964988  0.5011324776543091  1.0000
  H   H12       1.0  0.7039751829720371  0.8373658880691933  0.9988664969624922  1.0000
  H   H13       1.0  0.6754468695262901  0.4069180051974328  0.653202580224111  1.0000
  H   H14       1.0  0.17543023480485687  0.09309408862341677  0.8468028994962538  1.0000
  H   H15       1.0  0.32456696942610824  0.5930709596717347  0.3468013600032478  1.0000
  H   H16       1.0  0.8245570792446981  0.9069276093796432  0.15319986688073334  1.0000
  H   H17       1.0  0.5686911016910372  0.5494512193436378  0.7527473674990974  1.0000
  H   H18       1.0  0.06866692592863902  0.9505614721881199  0.7472534749273905  1.0000
  H   H19       1.0  0.4313171532289033  0.45053783647762197  0.24726009793621986  1.0000
  H   H20       1.0  0.9313287643789181  0.049455835977134696  0.25274846087368275  1.0000
  H   H21       1.0  0.49516002435077405  0.7275966330948691  0.7685107693271434  1.0000
  H   H22       1.0  0.9951623412498236  0.7724064857811753  0.7314869951712453  1.0000
  H   H23       1.0  0.5048384579562252  0.27239158472428937  0.2314924451039815  1.0000
  H   H24       1.0  0.0048347446216894  0.22760985709674492  0.2685057543027228  1.0000
  H   H25       1.0  0.5018875876908737  0.8923236398567626  0.6961001818309854  1.0000
  H   H26       1.0  0.0019028981665200999  0.6076763672222258  0.8038790738144572  1.0000
  H   H27       1.0  0.49812206271835896  0.10766441426453349  0.3038966872152287  1.0000
  H   H28       1.0  0.9981039600177651  0.39233558583776323  0.19611284507034552  1.0000
  H   H29       1.0  0.6425486039421954  0.9049389410271756  0.5382627522054051  1.0000
  H   H30       1.0  0.1425538994639126  0.5950608803460965  0.9617207598810965  1.0000
  H   H31       1.0  0.35748059155872614  0.09504781997888759  0.4617404201125624  1.0000
  H   H32       1.0  0.8574543548402358  0.4049547340656757  0.0382719685760264  1.0000
  H   H33       1.0  0.7432798146656056  0.9720329268098523  0.4034717862397699  1.0000
  H   H34       1.0  0.24325550644866917  0.5279609419321146  0.09652316481647462  1.0000
  H   H35       1.0  0.2567424005629846  0.0279589162663854  0.5965308274897937  1.0000
  H   H36       1.0  0.7567569362406985  0.47204461743810106  0.903474911096126  1.0000
  H   H37       1.0  0.5349171967016702  0.9371151595189245  0.3801768623322417  1.0000
  H   H38       1.0  0.0348999619753556  0.5628768402162052  0.1198101814697736  1.0000
  H   H39       1.0  0.46510222605920853  0.06287360516027009  0.6198193225012005  1.0000
  H   H40       1.0  0.9651096885726886  0.4371294295330729  0.8801872103492274  1.0000
  C   C1        1.0  0.8483608164182284  0.5207212012287884  0.3491039583477615  1.0000
  C   C2        1.0  0.34834217525104805  0.979276715219136  0.1509017106182142  1.0000
  C   C3        1.0  0.15163766579036772  0.4792589835077409  0.6508983210323436  1.0000
  C   C4        1.0  0.6516381583238128  0.0207332700637224  0.8490986061574193  1.0000
  C   C5        1.0  0.8511372972394609  0.4259804593708978  0.38135252788796253  1.0000
  C   C6        1.0  0.3511186795165671  0.07402182317925819  0.11865645591283422  1.0000
  C   C7        1.0  0.1488625810572231  0.5740040971362176  0.6186498769443675  1.0000
  C   C8        1.0  0.648854674120386  0.9259883258610697  0.8813502062079765  1.0000
  C   C9        1.0  0.796029954612024  0.41030909037046104  0.4724217893877452  1.0000
  C   C10       1.0  0.2960130818984651  0.0896973978743247  0.0275862920393735  1.0000
  C   C11       1.0  0.2039615475219847  0.5896777247180508  0.527583498380757  1.0000
  C   C12       1.0  0.703954687526476  0.9103185618811619  0.9724198323906992  1.0000
  C   C13       1.0  0.7382187527269579  0.4904099559048092  0.5316292693823145  1.0000
  C   C14       1.0  0.23820974551203017  0.009599534962312395  0.9683741889156751  1.0000
  C   C15       1.0  0.26177693718451417  0.5095846556438629  0.4683677879945308  1.0000
  C   C16       1.0  0.7617664004226512  0.990415787318852  0.031635439679007504  1.0000
  C   C17       1.0  0.6771141863996346  0.4797175137926786  0.6264344744226946  1.0000
  C   C18       1.0  0.177091112624403  0.020294682018103992  0.873573088820855  1.0000
  C   C19       1.0  0.32288569185571  0.5202713780525271  0.3735666458131065  1.0000
  C   C20       1.0  0.8228836370386218  0.9797263417999458  0.12643177185739063  1.0000
  C   C21       1.0  0.6188909074866942  0.5586091141563542  0.6812188702383966  1.0000
  C   C22       1.0  0.1188713795539655  0.9414014179468138  0.818783030335382  1.0000
  C   C23       1.0  0.3811075746558785  0.44138192713171515  0.3187809026813895  1.0000
  C   C24       1.0  0.8811159344773928  0.058613012011370785  0.1812202319634864  1.0000
  C   C25       1.0  0.6195192297102708  0.6540552950864011  0.6455821004233047  1.0000
  C   C26       1.0  0.1195078826760252  0.8459478595302624  0.8544153488577991  1.0000
  C   C27       1.0  0.3804820443814307  0.345934216165915  0.35441481052419027  1.0000
  C   C28       1.0  0.8804696590037009  0.15406585987002328  0.14558859765385532  1.0000
  C   C29       1.0  0.5516002543606787  0.7368060793207789  0.6981010402711336  1.0000
  C   C30       1.0  0.0515921247129825  0.7632024645911457  0.8018993166502781  1.0000
  C   C31       1.0  0.44840102036560125  0.26318374143887274  0.3019078562032932  1.0000
  C   C32       1.0  0.9483937928116503  0.23681610041580103  0.19809490572435356  1.0000
  C   C33       1.0  0.5565756913176542  0.8268237221469191  0.6593065224122371  1.0000
  C   C34       1.0  0.056564973124736184  0.6731823223281521  0.8406760516364217  1.0000
  C   C35       1.0  0.4434339590915783  0.1731643319743768  0.3406903466339842  1.0000
  C   C36       1.0  0.9434307168786374  0.3268341115614675  0.1593202230057713  1.0000
  C   C37       1.0  0.6320695965432463  0.834221396445919  0.5687153919445862  1.0000
  C   C38       1.0  0.1320767286094124  0.6657773798215769  0.9312675929811932  1.0000
  C   C39       1.0  0.36794005413685926  0.1657631602002922  0.43128701279504617  1.0000
  C   C40       1.0  0.8679217534812976  0.33423613960730586  0.06872859799086942  1.0000
  C   C41       1.0  0.6850661573135497  0.6679340371404693  0.5525865916947766  1.0000
  C   C42       1.0  0.18506027058992908  0.8320730964945042  0.947406856643994  1.0000
  C   C43       1.0  0.3149365129973559  0.33205265066280987  0.4474137607508126  1.0000
  C   C44       1.0  0.8149186668570392  0.1679419345253734  0.05259149142827371  1.0000
  C   C45       1.0  0.742492051329549  0.5841013589124059  0.4938722569469222  1.0000
  C   C46       1.0  0.24248387679758565  0.9159034716300739  0.006125137657704702  1.0000
  C   C47       1.0  0.2575050347526968  0.4158889537306719  0.506127495075198  1.0000
  C   C48       1.0  0.7574866842445543  0.0841064406884371  0.9938723590866376  1.0000
  S   S1        1.0  0.057403516900983186  0.8207142944755004  0.28549582069735646  1.0000
  S   S2        1.0  0.5573987145718391  0.6792739009670613  0.2144878508063712  1.0000
  S   S3        1.0  0.942608925574916  0.17927301285410374  0.7145003223804737  1.0000
  S   S4        1.0  0.4426011635801501  0.32072582922336323  0.7855100579381189  1.0000
  S   S5        1.0  0.2275206743093392  0.838789600584242  0.4062943223945298  1.0000
  S   S6        1.0  0.7275126704830084  0.6612116343893534  0.09369340215481971  1.0000
  S   S7        1.0  0.772494560402272  0.16120938299332727  0.5937028602623899  1.0000
  S   S8        1.0  0.27249418801502406  0.33879756802697597  0.9063047783653035  1.0000
  N   N1        1.0  0.796661301999727  0.5974724264299381  0.4041460050456608  1.0000
  N   N2        1.0  0.29665126864487235  0.9025281170931762  0.09585019463740002  1.0000
  N   N3        1.0  0.2033385760094362  0.40251344167690906  0.5958508013605198  1.0000
  N   N4        1.0  0.703331857000677  0.0974767678535855  0.9041499757353648  1.0000
  N   N5        1.0  0.691820318788352  0.7571911453945785  0.5167355057906278  1.0000
  N   N6        1.0  0.19181573098479274  0.7428124645752519  0.9832548897232058  1.0000
  N   N7        1.0  0.30818933186552033  0.24279485029555298  0.48326623573983346  1.0000
  N   N8        1.0  0.8081715826843877  0.2572032405700284  0.016741364087529607  1.0000
  O   O1        1.0  0.10427423762613591  0.8319827924502619  0.4877639985311221  1.0000
  O   O2        1.0  0.6042702799826785  0.6680206175387937  0.012220591143361005  1.0000
  O   O3        1.0  0.8957382049608071  0.1680190873817367  0.512232562764929  1.0000
  O   O4        1.0  0.3957309943280335  0.3319878743792514  0.9877782735498216  1.0000
  O   O5        1.0  0.312084252623599  0.9374645967049702  0.4015589516546072  1.0000
  O   O6        1.0  0.8120727514745453  0.5625345826642202  0.09842351804082483  1.0000
  O   O7        1.0  0.687930981612311  0.06253052527123508  0.5984296660758018  1.0000
  O   O8        1.0  0.1879410871162648  0.4374752574450156  0.901571158169027  1.0000
  O   O9        1.0  0.36973302294477867  0.7614441534626337  0.3970703534356232  1.0000
  O   O10       1.0  0.8697311256546809  0.7385576142018593  0.1029195037892521  1.0000
  O   O11       1.0  0.6302710434017696  0.23854978419907982  0.6029287980438411  1.0000
  O   O12       1.0  0.13026596055124165  0.2614538103633635  0.8970801496183045  1.0000
  O   O13       1.0  0.6690615724993875  0.9312188837917643  0.3594255105352033  1.0000
  O   O14       1.0  0.1690382246075828  0.568774238450217  0.1405673651826973  1.0000
  O   O15       1.0  0.3309662268196547  0.0687707188696578  0.6405749253156686  1.0000
  O   O16       1.0  0.8309728220214581  0.43123059227500693  0.8594306898322303  1.0000
