data_image0
_chemical_formula_structural       Ag2P2H34C44N2O4F6
_chemical_formula_sum              "Ag2 P2 H34 C44 N2 O4 F6"
_cell_length_a       8.301849965686841
_cell_length_b       9.034625365901821
_cell_length_c       15.02051524959028
_cell_angle_alpha    103.13373088792446
_cell_angle_beta     92.44406704137093
_cell_angle_gamma    111.9714915553717

_space_group_name_H-M_alt    "P 1"
_space_group_IT_number       1

loop_
  _space_group_symop_operation_xyz
  'x, y, z'

loop_
  _atom_site_type_symbol
  _atom_site_label
  _atom_site_symmetry_multiplicity
  _atom_site_fract_x
  _atom_site_fract_y
  _atom_site_fract_z
  _atom_site_occupancy
  Ag  Ag1       1.0  0.06846294564019222  0.19297873974003477  0.10262820501032618  1.0000
  Ag  Ag2       1.0  0.9315366813231237  0.8070275361629342  0.8973747582312868  1.0000
  P   P1        1.0  0.17690705559913772  0.21876674667273485  0.25344275423000784  1.0000
  P   P2        1.0  0.8230947788143155  0.7812333262469339  0.7465587546872214  1.0000
  H   H1        1.0  0.7515023216861466  0.2948915906587358  0.0427546374483185  1.0000
  H   H2        1.0  0.24849878655849272  0.7051096864778614  0.9572436894124933  1.0000
  H   H3        1.0  0.714950471602229  0.5178191230937158  0.9822950938884244  1.0000
  H   H4        1.0  0.28504943221146567  0.48218215691310473  0.017703207976339307  1.0000
  H   H5        1.0  0.45500836310314  0.3710758819883609  0.1544021580805222  1.0000
  H   H6        1.0  0.5449894760722741  0.6289204647147101  0.8455967676800424  1.0000
  H   H7        1.0  0.7257267259461955  0.6255401971604826  0.19794355654588  1.0000
  H   H8        1.0  0.2742703954820556  0.3744573608660104  0.8020528540663603  1.0000
  H   H9        1.0  0.8064545136330423  0.8047445622933936  0.35904931692628844  1.0000
  H   H10       1.0  0.19354656092497893  0.19525668641723123  0.6409463423021504  1.0000
  H   H11       1.0  0.6164965247476034  0.7225264621794167  0.4783527107437918  1.0000
  H   H12       1.0  0.3835121583412758  0.2774785041371502  0.5216456066294484  1.0000
  H   H13       1.0  0.34527568086500793  0.4643382940359473  0.4357294850411363  1.0000
  H   H14       1.0  0.6547301066782154  0.5356654695678529  0.5642712724922843  1.0000
  H   H15       1.0  0.9451930649624954  0.3908481786619618  0.27219971007411903  1.0000
  H   H16       1.0  0.05480772871016631  0.6091494204993353  0.7278014438829175  1.0000
  H   H17       1.0  0.7516810060940957  0.4344185125856442  0.3874890103548267  1.0000
  H   H18       1.0  0.24831804593391382  0.5655778383536969  0.612510607309879  1.0000
  H   H19       1.0  0.7258572368408451  0.30458856073779833  0.519680466159194  1.0000
  H   H20       1.0  0.2741416683403273  0.6954102810431239  0.48032081528584303  1.0000
  H   H21       1.0  0.8981255760783213  0.13935686561877964  0.5372462123619641  1.0000
  H   H22       1.0  0.1018750623258455  0.8606432172776053  0.46275593846731056  1.0000
  H   H23       1.0  0.09762194978387839  0.0997735918342997  0.4227171671635688  1.0000
  H   H24       1.0  0.9023809506353261  0.9002289761632271  0.577286697438133  1.0000
  H   H25       1.0  0.9903665621605738  0.8721069292823674  0.17559041281828064  1.0000
  H   H26       1.0  0.009631667381704305  0.127893159354457  0.8244116880188982  1.0000
  H   H27       1.0  0.02893434310657745  0.6231388509414161  0.2005576224804884  1.0000
  H   H28       1.0  0.9710633576436578  0.3768599937097221  0.799443633968508  1.0000
  H   H29       1.0  0.2870734280345745  0.6560572651457905  0.3054245982507026  1.0000
  H   H30       1.0  0.712926152785485  0.34394032977923683  0.6945758638021928  1.0000
  H   H31       1.0  0.5049573911738605  0.937729739046411  0.3871063670371341  1.0000
  H   H32       1.0  0.495042198067857  0.06226786298510939  0.6128947619238543  1.0000
  H   H33       1.0  0.4639744173350665  0.18547518278242583  0.3643979497082199  1.0000
  H   H34       1.0  0.5360270688197984  0.8145211837359624  0.635603718672854  1.0000
  C   C1        1.0  0.3315831858990491  0.14508581299234183  0.9612970921732185  1.0000
  C   C2        1.0  0.6684260889684454  0.8549290925008465  0.038705904593122384  1.0000
  C   C3        1.0  0.3923758035042297  0.05269693786822669  0.8770012257574321  1.0000
  C   C4        1.0  0.6076228958785209  0.9473043450088171  0.1229970511112839  1.0000
  C   C5        1.0  0.8635598729650198  0.3866609365368703  0.024116583790188897  1.0000
  C   C6        1.0  0.13644071490922025  0.6133391037205486  0.9758815655905265  1.0000
  C   C7        1.0  0.8429680811390768  0.5107257503413721  0.9901971015039306  1.0000
  C   C8        1.0  0.1570330186839044  0.48927551968873223  0.009800558448787912  1.0000
  C   C9        1.0  0.3834275584841222  0.39915747435068033  0.29293805188024885  1.0000
  C   C10       1.0  0.6165735834471278  0.600843831211897  0.7070629426129357  1.0000
  C   C11       1.0  0.4921011511524184  0.44507311477484285  0.22624440484266725  1.0000
  C   C12       1.0  0.5078994619867814  0.5549269468020555  0.7737557452623276  1.0000
  C   C13       1.0  0.6446174861540329  0.5892214900995116  0.250695285619237  1.0000
  C   C14       1.0  0.3553818972892627  0.41077855302812344  0.7493028387654305  1.0000
  C   C15       1.0  0.6896423197236814  0.6897793258994936  0.34116043707298616  1.0000
  C   C16       1.0  0.31035825130724964  0.3102207001449316  0.658836378491543  1.0000
  C   C17       1.0  0.5826120280421208  0.6439541995154343  0.40781634748492473  1.0000
  C   C18       1.0  0.4173920010131411  0.3560483016534164  0.5921815399399859  1.0000
  C   C19       1.0  0.4303338145063265  0.49866429422773006  0.384080982071886  1.0000
  C   C20       1.0  0.5696690353829581  0.5013382311308234  0.6159188810812566  1.0000
  C   C21       1.0  0.03683560787079903  0.24537640626708423  0.34098528079053375  1.0000
  C   C22       1.0  0.9631662349643122  0.7546236737590846  0.6590168950347887  1.0000
  C   C23       1.0  0.9374573978251561  0.3382361072570177  0.33129687481938663  1.0000
  C   C24       1.0  0.06254271178696062  0.6617627316536884  0.6687044316216983  1.0000
  C   C25       1.0  0.8268076197071039  0.3606688836876303  0.39553911948204495  1.0000
  C   C26       1.0  0.17319129389571947  0.6393299651997851  0.6044628288710853  1.0000
  C   C27       1.0  0.8123553940166559  0.28815137474398267  0.4692709133144319  1.0000
  C   C28       1.0  0.18764523596585292  0.7118487010459094  0.5307305706067494  1.0000
  C   C29       1.0  0.90963269849847  0.1945211074690434  0.4791027334553063  1.0000
  C   C30       1.0  0.0903684602760961  0.8054802123065272  0.5208995948540647  1.0000
  C   C31       1.0  0.021865652774337694  0.1733107732622443  0.4153422259063291  1.0000
  C   C32       1.0  0.9781367188528165  0.8266905507496034  0.584660794307183  1.0000
  C   C33       1.0  0.2217627018233159  0.044270456025806516  0.27065800296442427  1.0000
  C   C34       1.0  0.7782391325901372  0.9557296168938623  0.729343505952805  1.0000
  C   C35       1.0  0.10048433879194367  0.885282702113365  0.22361278108964197  1.0000
  C   C36       1.0  0.8995157708201731  0.11471613679733393  0.7763885253514431  1.0000
  C   C37       1.0  0.12314235008780373  0.7464369597258057  0.23733947299957242  1.0000
  C   C38       1.0  0.8768577511026623  0.2535618720784001  0.7626611665334124  1.0000
  C   C39       1.0  0.26780982484296356  0.7648531522212282  0.2965108914686212  1.0000
  C   C40       1.0  0.7321904400376481  0.2351432029543901  0.7034894181002256  1.0000
  C   C41       1.0  0.38987179188598736  0.9227248065175006  0.3424502556764537  1.0000
  C   C42       1.0  0.6101272769853311  0.07727155863482689  0.6575506958044384  1.0000
  C   C43       1.0  0.3669139376054246  0.06232035741272311  0.3298002913353955  1.0000
  C   C44       1.0  0.6330861720066921  0.937678481497983  0.6702010151056896  1.0000
  N   N1        1.0  0.020109152742115638  0.37531837802469437  0.0340160423567823  1.0000
  N   N2        1.0  0.9798907510715793  0.6246829019821264  0.9659822595079817  1.0000
  O   O1        1.0  0.17626205538230982  0.06447841135362611  0.9748550035274518  1.0000
  O   O2        1.0  0.823730298852091  0.9355192007927188  0.025145308549156198  1.0000
  O   O3        1.0  0.43634496800952866  0.28682088311613546  0.0033202784833080076  1.0000
  O   O4        1.0  0.5636478436087133  0.7131692707184528  0.9966763760684925  1.0000
  F   F1        1.0  0.32066340023814627  0.0655521208381344  0.7965780289456388  1.0000
  F   F2        1.0  0.6793349633426475  0.9344541081895913  0.20342024094327368  1.0000
  F   F3        1.0  0.5690182322828933  0.11516190451908412  0.8797044250431796  1.0000
  F   F4        1.0  0.43097770997937346  0.8848356776971117  0.12029396129729257  1.0000
  F   F5        1.0  0.34098486246768533  0.8869331665310227  0.8699224382189285  1.0000
  F   F6        1.0  0.6590069124447453  0.11306315899066992  0.1300730280209308  1.0000
