data_image0
_chemical_formula_structural       Zn3H28C30N2O14
_chemical_formula_sum              "Zn3 H28 C30 N2 O14"
_cell_length_a       8.08259476913338
_cell_length_b       9.876032943613941
_cell_length_c       11.461623755518833
_cell_angle_alpha    106.80855555651588
_cell_angle_beta     90.63219950445064
_cell_angle_gamma    113.916660746474

_space_group_name_H-M_alt    "P 1"
_space_group_IT_number       1

loop_
  _space_group_symop_operation_xyz
  'x, y, z'

loop_
  _atom_site_type_symbol
  _atom_site_label
  _atom_site_symmetry_multiplicity
  _atom_site_fract_x
  _atom_site_fract_y
  _atom_site_fract_z
  _atom_site_occupancy
  Zn  Zn1       1.0  0.4999981201818357  0.49999968809912326  0.9999994693929679  1.0000
  Zn  Zn2       1.0  0.13754481328358278  0.5898690521387806  0.12564905166428994  1.0000
  Zn  Zn3       1.0  0.8624554189951252  0.4101322712788543  0.8743516594669954  1.0000
  H   H1        1.0  0.6532479045822227  0.4331865734723762  0.3191975463879118  1.0000
  H   H2        1.0  0.3467530620787684  0.5668112521575353  0.6808014104836174  1.0000
  H   H3        1.0  0.2520494877532045  0.5827935366417165  0.4771709244533255  1.0000
  H   H4        1.0  0.7479514789077868  0.41720428898818795  0.5228280324181966  1.0000
  H   H5        1.0  0.30549090960365527  0.1016183792702847  0.43162814121550497  1.0000
  H   H6        1.0  0.6945080070416053  0.8983852722941633  0.5683740238338046  1.0000
  H   H7        1.0  0.7740579683477616  0.7270730437549843  0.3927436331895109  1.0000
  H   H8        1.0  0.22594335123430648  0.2729329614582383  0.6072573994323136  1.0000
  H   H9        1.0  0.632034943946337  0.8107827127244178  0.9326170650740265  1.0000
  H   H10       1.0  0.3679635445788563  0.18921510177052164  0.0673827450320488  1.0000
  H   H11       1.0  0.5991994006191419  0.9641498172534213  0.799399819372468  1.0000
  H   H12       1.0  0.40080090776960015  0.0358491695167373  0.20060029995596548  1.0000
  H   H13       1.0  0.02303346351079209  0.9601184666047256  0.8551405596624234  1.0000
  H   H14       1.0  0.9769650259254375  0.039879353756532496  0.1448583794478608  1.0000
  H   H15       1.0  0.890973541746746  0.7745468375163823  0.8736012036107894  1.0000
  H   H16       1.0  0.10902676664199618  0.22545214925377619  0.1263989157176439  1.0000
  H   H17       1.0  0.9477734332355181  0.7862094806141754  0.7272141819596953  1.0000
  H   H18       1.0  0.052225056200718704  0.21378833974708303  0.2727847571505961  1.0000
  H   H19       1.0  0.4500800751222229  0.04156455555472859  0.7051143780650406  1.0000
  H   H20       1.0  0.5499208154287416  0.9584356067226524  0.29488517060933367  1.0000
  H   H21       1.0  0.28108530609654275  0.08609153235617838  0.7853652060803213  1.0000
  H   H22       1.0  0.7189162409045764  0.9139074570483102  0.214634922128738  1.0000
  H   H23       1.0  0.21185589282459444  0.9164995472928863  0.6514678976869347  1.0000
  H   H24       1.0  0.7881449977263628  0.08350061498449429  0.3485316509874393  1.0000
  H   H25       1.0  0.14025590812169497  0.3086499035269483  0.9714113187601542  1.0000
  H   H26       1.0  0.8597412665921238  0.6913502508474565  0.02858820327236348  1.0000
  H   H27       1.0  0.2056971151106309  0.3210159743217317  0.8486731427307888  1.0000
  H   H28       1.0  0.7943012982155649  0.6789841826869959  0.15132638818235478  1.0000
  C   C1        1.0  0.38923594919243937  0.5174684537805233  0.2651531178332789  1.0000
  C   C2        1.0  0.6107643582852589  0.4825305271233162  0.7348478724909455  1.0000
  C   C3        1.0  0.44610783014656613  0.5075047962876198  0.38644254889734947  1.0000
  C   C4        1.0  0.5538949563779808  0.4924942016175108  0.6135567171965306  1.0000
  C   C5        1.0  0.5858777558251659  0.46054803097898384  0.39862228984070197  1.0000
  C   C6        1.0  0.41412502978833726  0.5394509610598275  0.601377847248969  1.0000
  C   C7        1.0  0.3606096422550066  0.5469100352473432  0.4884633029223409  1.0000
  C   C8        1.0  0.6393919056571632  0.4530889600234642  0.5115359542909202  1.0000
  C   C9        1.0  0.08931589422435593  0.8004029277169735  0.2969084303179912  1.0000
  C   C10       1.0  0.9106860827189178  0.19960191048967596  0.7030923108427132  1.0000
  C   C11       1.0  0.0435664893257766  0.9039431179852713  0.4015975554260365  1.0000
  C   C12       1.0  0.9564330140369106  0.09606173841800819  0.5983996839902658  1.0000
  C   C13       1.0  0.17195995225977603  0.058073795832918086  0.4618320470123152  1.0000
  C   C14       1.0  0.8280402057309856  0.9419298759648242  0.5381675139302401  1.0000
  C   C15       1.0  0.8717934130648995  0.846839731368348  0.4403429908260748  1.0000
  C   C16       1.0  0.12820980431284568  0.1531651212052623  0.5596560172236735  1.0000
  C   C17       1.0  0.17706516313897663  0.7298174132604343  0.9284451085075744  1.0000
  C   C18       1.0  0.8229339075484315  0.2701815767417202  0.0715541309444419  1.0000
  C   C19       1.0  0.34744164831970165  0.7247285374271255  0.9572349161481313  1.0000
  C   C20       1.0  0.652557422367707  0.2752704525750289  0.04276432330389212  1.0000
  C   C21       1.0  0.501090040096834  0.811200627568205  0.9109883019341041  1.0000
  C   C22       1.0  0.4989096888628237  0.18879720129370264  0.08900977506101529  1.0000
  C   C23       1.0  0.4851033762555799  0.8952442134539849  0.8380899962979029  1.0000
  C   C24       1.0  0.5148951140916935  0.10475361277359238  0.1619080718165904  1.0000
  C   C25       1.0  0.16849108128921128  0.8199293121081083  0.8564074028108165  1.0000
  C   C26       1.0  0.831509150078453  0.1800720054432006  0.1435941793162598  1.0000
  C   C27       1.0  0.9987014156751284  0.8364218940706323  0.8265901037933006  1.0000
  C   C28       1.0  0.0012976550122729819  0.1635770959315224  0.1734091356587228  1.0000
  C   C29       1.0  0.31543589942845035  0.9912939403239699  0.7330729632951641  1.0000
  C   C30       1.0  0.684564409871335  0.0087050523125143  0.2669262850374778  1.0000
  N   N1        1.0  0.32335660281498946  0.8987876198552982  0.8112995623817056  1.0000
  N   N2        1.0  0.6766424669613685  0.10121136428053747  0.1887005480661088  1.0000
  O   O1        1.0  0.4866345470831773  0.5001277913556449  0.18067716233689882  1.0000
  O   O2        1.0  0.5133639423530525  0.49987002900561334  0.8193217767733855  1.0000
  O   O3        1.0  0.2463910598060294  0.5410356000583717  0.25777136364240505  1.0000
  O   O4        1.0  0.753609830744935  0.458964562219009  0.7422281850319692  1.0000
  O   O5        1.0  0.2450890668192328  0.8498768393387051  0.26292550949097654  1.0000
  O   O6        1.0  0.7549141450922505  0.15012797803697708  0.7370787245335179  1.0000
  O   O7        1.0  0.9657544183965072  0.6599330043424486  0.24226591995356017  1.0000
  O   O8        1.0  0.03424755854676676  0.3400718338642007  0.7577348212071442  1.0000
  O   O9        1.0  0.35245873866013255  0.6412556843942382  0.026767932428228374  1.0000
  O   O10       1.0  0.647540912367404  0.3587444693824935  0.9732324783613179  1.0000
  O   O11       1.0  0.03244113560191398  0.6471331365004145  0.974765940374773  1.0000
  O   O12       1.0  0.9675585154256293  0.35286701727631703  0.025234470414780188  1.0000
  O   O13       1.0  0.24075045141641738  0.30125939099950466  0.9233097437692519  1.0000
  O   O14       1.0  0.7592479619097856  0.6987407660092301  0.07668978714388427  1.0000
