data_image0
_chemical_formula_structural       MnH28C24N8O4
_chemical_formula_sum              "Mn1 H28 C24 N8 O4"
_cell_length_a       8.484567188747304
_cell_length_b       9.197290822481401
_cell_length_c       9.557751458427894
_cell_angle_alpha    71.7869133772258
_cell_angle_beta     64.79159612720088
_cell_angle_gamma    79.56016957905143

_space_group_name_H-M_alt    "P 1"
_space_group_IT_number       1

loop_
  _space_group_symop_operation_xyz
  'x, y, z'

loop_
  _atom_site_type_symbol
  _atom_site_label
  _atom_site_symmetry_multiplicity
  _atom_site_fract_x
  _atom_site_fract_y
  _atom_site_fract_z
  _atom_site_occupancy
  Mn  Mn1       1.0  0.9999989783320018  7.880784948997065e-07  2.812747524690889e-06  1.0000
  H   H1        1.0  0.6062798892779211  0.940236016995961  0.10097529306808155  1.0000
  H   H2        1.0  0.3937227625067265  0.0597658063379711  0.8990224248062616  1.0000
  H   H3        1.0  0.9112572263642632  0.7912484546197192  0.36048552330886713  1.0000
  H   H4        1.0  0.0887377688157613  0.20875103898682576  0.6395168217886535  1.0000
  H   H5        1.0  0.398915084890639  0.7835078971272726  0.36690841988024636  1.0000
  H   H6        1.0  0.6010819560198043  0.21649963212301063  0.6330896808977754  1.0000
  H   H7        1.0  0.6772278073501993  0.6218447425023329  0.6481389278734183  1.0000
  H   H8        1.0  0.3227654796309095  0.3781604787349481  0.3518633736054965  1.0000
  H   H9        1.0  0.5148921483026997  0.5457446319116246  0.6253949492021815  1.0000
  H   H10       1.0  0.48510123110687425  0.4542594364347965  0.37460452727822957  1.0000
  H   H11       1.0  0.4682299092474193  0.7160078121407171  0.6880155323053355  1.0000
  H   H12       1.0  0.5317621719452744  0.28399624752439223  0.3119833882620853  1.0000
  H   H13       1.0  0.7631308026534356  0.02126414897324481  0.8179543307515614  1.0000
  H   H14       1.0  0.2368708684678963  0.978733082258181  0.18204514391391058  1.0000
  H   H15       1.0  0.17737821282197794  0.7182826809549854  0.8267063218674621  1.0000
  H   H16       1.0  0.822621886809422  0.2817179981028985  0.1733000247498992  1.0000
  H   H17       1.0  0.8049140733272395  0.8835024392190364  0.6036519331239986  1.0000
  H   H18       1.0  0.19509540715701232  0.11649483327635582  0.39634564136629535  1.0000
  H   H19       1.0  0.20248559760636908  0.5595076766906432  0.6158536277081906  1.0000
  H   H20       1.0  0.797517424037018  0.44048843197911236  0.3841540491780149  1.0000
  H   H21       1.0  0.13470077869730085  0.6708365178160564  0.4603207031148171  1.0000
  H   H22       1.0  0.8653061576583667  0.32915960607371647  0.5396834058572324  1.0000
  H   H23       1.0  0.9918773516611097  0.5429450133484012  0.6301303710984738  1.0000
  H   H24       1.0  0.00812290474090819  0.45705337508128  0.36987765543624807  1.0000
  H   H25       1.0  0.18576714943998232  0.533488087388051  0.04516669727388483  1.0000
  H   H26       1.0  0.8142294855844624  0.4665068184899042  0.9548322336569937  1.0000
  H   H27       1.0  0.643926117328192  0.7080791544123604  0.007465953761133888  1.0000
  H   H28       1.0  0.356073057812509  0.2919169022360038  0.9925274898186128  1.0000
  C   C1        1.0  0.7945732067227451  0.8055921359606801  0.33669043801034354  1.0000
  C   C2        1.0  0.2054229339158623  0.19440965479060426  0.6633097359521753  1.0000
  C   C3        1.0  0.629241797461269  0.7468795596241051  0.43715336416816075  1.0000
  C   C4        1.0  0.3707528801651846  0.25312451740363434  0.5628466682252408  1.0000
  C   C5        1.0  0.5322619414447587  0.7996511482950697  0.34264281413000197  1.0000
  C   C6        1.0  0.4677326598025502  0.20035407296438026  0.6573558547394072  1.0000
  C   C7        1.0  0.5697916128646056  0.6528490964805588  0.6073909526482664  1.0000
  C   C8        1.0  0.43019924247802516  0.34715381243631077  0.3926098226607877  1.0000
  C   C9        1.0  0.07597260648834236  0.7772753507601494  0.7858233065998945  1.0000
  C   C10       1.0  0.9240301136507867  0.22272533267164366  0.21417786905970349  1.0000
  C   C11       1.0  0.022298238001702865  0.7492705472003467  0.6761910632050386  1.0000
  C   C12       1.0  0.9777108325005202  0.25073246160709334  0.32380702357964  1.0000
  C   C13       1.0  0.8871792248814215  0.8595542929010309  0.6702832452673916  1.0000
  C   C14       1.0  0.11282756674061288  0.14044411512258395  0.32971604239542524  1.0000
  C   C15       1.0  0.09133448472059764  0.6252206340814014  0.5911895128141109  1.0000
  C   C16       1.0  0.9086722908521239  0.37477778260135614  0.40881396337119463  1.0000
  C   C17       1.0  0.30874598233278044  0.7856486818088728  0.05152635818556201  1.0000
  C   C18       1.0  0.6912529275595245  0.21435082701769664  0.9484724189978094  1.0000
  C   C19       1.0  0.40422406061109933  0.6368889020299947  0.028753680145875538  1.0000
  C   C20       1.0  0.595777554192736  0.36310946260920934  0.9712391953424842  1.0000
  C   C21       1.0  0.32358908587620755  0.5185544938490736  0.02460401135229516  1.0000
  C   C22       1.0  0.6764113111022282  0.48144271571231206  0.9753886246164424  1.0000
  C   C23       1.0  0.5816121749414904  0.616317455854535  0.004467931110525584  1.0000
  C   C24       1.0  0.418384548499084  0.3836762992973562  0.9955292219524805  1.0000
  N   N1        1.0  0.7983605292643077  0.8889698446287471  0.19155599038470672  1.0000
  N   N2        1.0  0.20163845700714228  0.11102851996611211  0.8084441503226641  1.0000
  N   N3        1.0  0.6373007283089435  0.8829702576277687  0.19797428346338794  1.0000
  N   N4        1.0  0.36269932302961644  0.1170315505083153  0.8020233697156057  1.0000
  N   N5        1.0  0.9799465920488825  0.89554195888244  0.8432201412394633  1.0000
  N   N6        1.0  0.020056200457069896  0.10445758248243212  0.15678344507474404  1.0000
  N   N7        1.0  0.8668854614711136  0.9447040537412837  0.7699673524593958  1.0000
  N   N8        1.0  0.13311987115108784  0.05529663839399751  0.23003074650367952  1.0000
  O   O1        1.0  0.1588681098646489  0.8121728961721645  0.04265810459139625  1.0000
  O   O2        1.0  0.8411309527859386  0.18782432419099143  0.957343399639967  1.0000
  O   O3        1.0  0.382504884030908  0.8804678253046705  0.07463261104369665  1.0000
  O   O4        1.0  0.6174969478733773  0.11952711313376345  0.925367496408526  1.0000
