data_image0
_chemical_formula_structural       Mo4H18C20N6O16
_chemical_formula_sum              "Mo4 H18 C20 N6 O16"
_cell_length_a       7.360843932276512
_cell_length_b       8.51314101671832
_cell_length_c       11.282274444917393
_cell_angle_alpha    98.68887467991253
_cell_angle_beta     92.73708719297377
_cell_angle_gamma    98.4256041533629

_space_group_name_H-M_alt    "P 1"
_space_group_IT_number       1

loop_
  _space_group_symop_operation_xyz
  'x, y, z'

loop_
  _atom_site_type_symbol
  _atom_site_label
  _atom_site_symmetry_multiplicity
  _atom_site_fract_x
  _atom_site_fract_y
  _atom_site_fract_z
  _atom_site_occupancy
  Mo  Mo1       1.0  0.3971507230744463  0.0709419124692516  0.6307078633935819  1.0000
  Mo  Mo2       1.0  0.6028509434912195  0.9290626808087197  0.3692944164888703  1.0000
  Mo  Mo3       1.0  0.09518086035396323  0.8801887387254157  0.3855482952040391  1.0000
  Mo  Mo4       1.0  0.9048303763705334  0.1198086400888911  0.6144570417011297  1.0000
  H   H1        1.0  0.4847295141185556  0.465503032732542  0.38584253769901283  1.0000
  H   H2        1.0  0.5152847648191639  0.5344872421437046  0.6141470138988796  1.0000
  H   H3        1.0  0.251336150217739  0.4928522173589586  0.3899126908785747  1.0000
  H   H4        1.0  0.7486868201842543  0.5071572636301482  0.6100874002560561  1.0000
  H   H5        1.0  0.16825704890871412  0.7221424876722438  0.10671376033572247  1.0000
  H   H6        1.0  0.8317327784205233  0.27784884914625246  0.893286535591294  1.0000
  H   H7        1.0  0.4142401868106731  0.1580425654493851  0.17664210513170533  1.0000
  H   H8        1.0  0.5857526508911803  0.8419500176874094  0.8233531290090996  1.0000
  H   H9        1.0  0.35515356140492566  0.22788083642866036  0.9462005886557354  1.0000
  H   H10       1.0  0.6448198326161857  0.7721093048179029  0.053791869952732434  1.0000
  H   H11       1.0  0.08865353825261478  0.9079640146160486  0.9954592790730036  1.0000
  H   H12       1.0  0.9113411471852331  0.0920321138855016  0.004546187299226304  1.0000
  H   H13       1.0  0.06747893397682962  0.8434416951091139  0.7667781557941781  1.0000
  H   H14       1.0  0.9325203340814099  0.15657251139268885  0.23322515730026797  1.0000
  H   H15       1.0  0.1533144486048457  0.5809606699595733  0.6729098008002341  1.0000
  H   H16       1.0  0.8466887171794043  0.41905235608546587  0.32709174565678734  1.0000
  H   H17       1.0  0.25631158624428707  0.3947517974883752  0.8041297300263752  1.0000
  H   H18       1.0  0.7436898635803574  0.6052588496412241  0.195867043528395  1.0000
  C   C1        1.0  0.2982427842807525  0.2554309949723502  0.4116747628027967  1.0000
  C   C2        1.0  0.7017611696102505  0.7445711932181068  0.5883282072659527  1.0000
  C   C3        1.0  0.34329079226899495  0.4078575930357147  0.3561160571347487  1.0000
  C   C4        1.0  0.6567174795163668  0.5921447149582164  0.6438711312609231  1.0000
  C   C5        1.0  0.3623645387077019  0.2584981705546596  0.14553144170253066  1.0000
  C   C6        1.0  0.6376241515132293  0.7414943718487521  0.8544680665321353  1.0000
  C   C7        1.0  0.3324801443744719  0.29628459895322123  0.03195336541253373  1.0000
  C   C8        1.0  0.6675062323036655  0.7037103363730708  0.9680472230326346  1.0000
  C   C9        1.0  0.2724892489565036  0.44836629415881657  0.05281038507092723  1.0000
  C   C10       1.0  0.727497108300625  0.5516358918799966  0.9471857303837299  1.0000
  C   C11       1.0  0.22226832789870338  0.5492419783737362  0.9679748697475506  1.0000
  C   C12       1.0  0.7777202448278473  0.45076502896081655  0.032021003696485244  1.0000
  C   C13       1.0  0.12278126461528417  0.7977615947402227  0.9457971987857124  1.0000
  C   C14       1.0  0.8772179236173231  0.20223694996954578  0.05420871576219353  1.0000
  C   C15       1.0  0.11442567952769168  0.7614793453818648  0.8221513747812924  1.0000
  C   C16       1.0  0.8855766901800947  0.23852163034246843  0.17785228171437248  1.0000
  C   C17       1.0  0.1614363862561419  0.6138456208404435  0.770411518419863  1.0000
  C   C18       1.0  0.8385723920404545  0.3861529783651251  0.22959032456504508  1.0000
  C   C19       1.0  0.21660536486035653  0.50862293635425  0.8427612198758897  1.0000
  C   C20       1.0  0.7833957097452853  0.4913780663410491  0.15723795999505802  1.0000
  N   N1        1.0  0.31952617665603367  0.38272620941251034  0.2255982013961956  1.0000
  N   N2        1.0  0.6804741805254936  0.6172627794559704  0.7743977773229961  1.0000
  N   N3        1.0  0.2647773366982236  0.49922360071359156  0.17151771158932422  1.0000
  N   N4        1.0  0.7352179463228055  0.5007677559496314  0.8284819016701451  1.0000
  N   N5        1.0  0.17511078438645464  0.6930605098283567  0.014208955499491159  1.0000
  N   N6        1.0  0.8248787213319559  0.30693683218324  0.9857929156870501  1.0000
  O   O1        1.0  0.35848359243046707  0.9104335096571247  0.43056267591350667  1.0000
  O   O2        1.0  0.6415159111006759  0.08956628665436742  0.5694363051859599  1.0000
  O   O3        1.0  0.40431868483591427  0.8944034181083752  0.6855109290111658  1.0000
  O   O4        1.0  0.5956833033405786  0.10559516997648902  0.3144897756117616  1.0000
  O   O5        1.0  0.4184759102201738  0.212207946356294  0.7572546339197646  1.0000
  O   O6        1.0  0.5815352415396831  0.7877966527589636  0.24275065598688889  1.0000
  O   O7        1.0  0.036628869492645336  0.7002838371514388  0.4349830898798858  1.0000
  O   O8        1.0  0.9633755771117478  0.29971353054217087  0.5650211086633095  1.0000
  O   O9        1.0  0.08052634117689197  0.8303424754228034  0.23144428635808384  1.0000
  O   O10       1.0  0.9194789733598797  0.16965971620825118  0.7685587343433726  1.0000
  O   O11       1.0  0.13022489842812493  0.028645759380893303  0.5850451740676945  1.0000
  O   O12       1.0  0.8697846822572329  0.9713576333505506  0.4149599170674778  1.0000
  O   O13       1.0  0.3773639563046842  0.26140391376847566  0.5153583574775598  1.0000
  O   O14       1.0  0.6226369153577878  0.7386042544869298  0.4846487421804896  1.0000
  O   O15       1.0  0.186153497714983  0.1394620933671149  0.3538756942997027  1.0000
  O   O16       1.0  0.8138471429244731  0.8605364973594617  0.6461240744921144  1.0000
