data_image0
_chemical_formula_structural       Cu2H12C4N20Cl4
_chemical_formula_sum              "Cu2 H12 C4 N20 Cl4"
_cell_length_a       3.711973070900251
_cell_length_b       6.755188959943127
_cell_length_c       18.42385392244463
_cell_angle_alpha    91.87126855368648
_cell_angle_beta     90.00238749103251
_cell_angle_gamma    89.99946818702823

_space_group_name_H-M_alt    "P 1"
_space_group_IT_number       1

loop_
  _space_group_symop_operation_xyz
  'x, y, z'

loop_
  _atom_site_type_symbol
  _atom_site_label
  _atom_site_symmetry_multiplicity
  _atom_site_fract_x
  _atom_site_fract_y
  _atom_site_fract_z
  _atom_site_occupancy
  Cu  Cu1       1.0  1.067164e-10  7.679105399999996e-09  1.0856374999e-06  1.0000
  Cu  Cu2       1.0  0.4999908509999641  7.430992141988418e-07  0.5000018825477142  1.0000
  H   H1        1.0  0.7193227734572147  0.43422283775595355  0.9415564773941582  1.0000
  H   H2        1.0  0.21931778539965308  0.5657587381327857  0.5584562936645341  1.0000
  H   H3        1.0  0.28066990597746866  0.5657703391124967  0.05843802041381  1.0000
  H   H4        1.0  0.7806425670734497  0.434250804148398  0.4415486971452225  1.0000
  H   H5        1.0  0.9385438528698767  0.13830958698664378  0.6981719143563083  1.0000
  H   H6        1.0  0.43852930481831  0.8617068784547396  0.8018442563259212  1.0000
  H   H7        1.0  0.06146768510052419  0.8616836359278394  0.3018290973593309  1.0000
  H   H8        1.0  0.5614768452858171  0.1382922805000959  0.198158449126808  1.0000
  H   H9        1.0  0.17973582191628876  0.352817758143459  0.7076010806053786  1.0000
  H   H10       1.0  0.6797581499230816  0.6472217517505925  0.7924190368241497  1.0000
  H   H11       1.0  0.8202757157844685  0.6471813739263227  0.292397825139723  1.0000
  H   H12       1.0  0.320250693803807  0.3527818275479645  0.20758046070623945  1.0000
  C   C1        1.0  0.8423538587660174  0.34253307845078496  0.8990440311418908  1.0000
  C   C2        1.0  0.34232566116452995  0.6574806782456546  0.6009658352158596  1.0000
  C   C3        1.0  0.15765767900501257  0.6574586479771154  0.10095479297263668  1.0000
  C   C4        1.0  0.6576481612648523  0.3425199734052739  0.3990385148775104  1.0000
  N   N1        1.0  0.8606413681634493  0.3905936220456995  0.829561682692507  1.0000
  N   N2        1.0  0.3606251624568698  0.6094393146105971  0.670445842214356  1.0000
  N   N3        1.0  0.1393486172299561  0.6094054793403527  0.1704328804081143  1.0000
  N   N4        1.0  0.6393648236384947  0.3905702122674129  0.3295569774503164  1.0000
  N   N5        1.0  0.035553218757122786  0.23503205820973955  0.7991722553475284  1.0000
  N   N6        1.0  0.535541569632521  0.7649885846720108  0.7008393288101971  1.0000
  N   N7        1.0  0.9644529308556001  0.7649626189644251  0.20082497293935828  1.0000
  N   N8        1.0  0.46445111041147397  0.2350135288809127  0.2991623235982104  1.0000
  N   N9        1.0  0.12398389687733408  0.09828618230183389  0.8455333240832273  1.0000
  N   N10       1.0  0.62398717475169  0.9017282600234962  0.6544778845867042  1.0000
  N   N11       1.0  0.8760195589075365  0.9017144347481433  0.154466140771305  1.0000
  N   N12       1.0  0.376008199316665  0.09827533849326638  0.345524326978385  1.0000
  N   N13       1.0  0.9945345725418163  0.16323706224285667  0.909106060385355  1.0000
  N   N14       1.0  0.4945221553733105  0.836780652988075  0.5909019324770455  1.0000
  N   N15       1.0  0.005468882976273899  0.83676353560935  0.0908906903754314  1.0000
  N   N16       1.0  0.5054624426480814  0.1632229378659388  0.4090991934032928  1.0000
  N   N17       1.0  0.13280465493327398  0.21474769933333693  0.7277379121576786  1.0000
  N   N18       1.0  0.6327877731605865  0.785277103352591  0.7722762021436793  1.0000
  N   N19       1.0  0.8672068828377563  0.7852440270945635  0.2722609119568489  1.0000
  N   N20       1.0  0.36722107077972765  0.21472649130418384  0.2277254666617097  1.0000
  Cl  Cl1       1.0  0.6057023986558933  0.22244715914558094  0.0540140645399774  1.0000
  Cl  Cl2       1.0  0.10568835622045467  0.7775642584790176  0.44598674636668534  1.0000
  Cl  Cl3       1.0  0.3943226090318673  0.7775623523210767  0.9459865840032364  1.0000
  Cl  Cl4       1.0  0.8943258754541713  0.2224304263619955  0.554011567593129  1.0000
