data_image0
_chemical_formula_structural       Na2H8C2N8O6
_chemical_formula_sum              "Na2 H8 C2 N8 O6"
_cell_length_a       5.551066463208372
_cell_length_b       6.5075019784423045
_cell_length_c       8.440651777511189
_cell_angle_alpha    101.52048446519424
_cell_angle_beta     98.4440088171959
_cell_angle_gamma    111.67494915991213

_space_group_name_H-M_alt    "P 1"
_space_group_IT_number       1

loop_
  _space_group_symop_operation_xyz
  'x, y, z'

loop_
  _atom_site_type_symbol
  _atom_site_label
  _atom_site_symmetry_multiplicity
  _atom_site_fract_x
  _atom_site_fract_y
  _atom_site_fract_z
  _atom_site_occupancy
  Na  Na1       1.0  0.8192186946102067  0.6429932550023025  0.0857375170152608  1.0000
  Na  Na2       1.0  0.18077631682617581  0.357010478298264  0.9142604266819774  1.0000
  H   H1        1.0  0.3965919337188167  0.8330382054166278  0.08539275659706648  1.0000
  H   H2        1.0  0.6034100085767804  0.166960570358313  0.9146121646935652  1.0000
  H   H3        1.0  0.2242810719054801  0.8405632913777127  0.9234730506315785  1.0000
  H   H4        1.0  0.775719042402514  0.1594354696951825  0.0765317078655841  1.0000
  H   H5        1.0  0.49495308975684776  0.349986142991483  0.2518863163090828  1.0000
  H   H6        1.0  0.5050478999488135  0.6500143818154527  0.7481211525953028  1.0000
  H   H7        1.0  0.3651609133240897  0.5251853553612449  0.2793969100731104  1.0000
  H   H8        1.0  0.634836246608785  0.47481503163898253  0.720604277057781  1.0000
  C   C1        1.0  0.9278344335060068  0.07133980094157981  0.49761206559551135  1.0000
  C   C2        1.0  0.07215305255267175  0.9286863236316166  0.5023980431893804  1.0000
  N   N1        1.0  0.7816902499603771  0.0818298534975952  0.3564672734681834  1.0000
  N   N2        1.0  0.21832303728552935  0.9181597806347246  0.6435005449440112  1.0000
  N   N3        1.0  0.6717450949490668  0.23107056431111062  0.40223690047298527  1.0000
  N   N4        1.0  0.3282485403734086  0.768933436134148  0.5977763665158164  1.0000
  N   N5        1.0  0.7510109087954787  0.30921926040111464  0.5659062824570285  1.0000
  N   N6        1.0  0.24898189636515872  0.690798465900457  0.43411014805604253  1.0000
  N   N7        1.0  0.9079523744943643  0.21555364009285685  0.6281055839479848  1.0000
  N   N8        1.0  0.09206771424533858  0.7844832440543216  0.3719208467076527  1.0000
  O   O1        1.0  0.74299004096045  0.9743883430663731  0.20078597359168526  1.0000
  O   O2        1.0  0.2569850857799381  0.025547618102876903  0.7991574357451154  1.0000
  O   O3        1.0  0.2229849618795043  0.7461759343574031  0.0027228490772089257  1.0000
  O   O4        1.0  0.7770149361981495  0.25382625275943843  0.9972824024916916  1.0000
  O   O5        1.0  0.42531655992630135  0.4409734343188632  0.19359629284506494  1.0000
  O   O6        1.0  0.5746782518897078  0.5590218349234065  0.8064062929626415  1.0000
