data_image0
_chemical_formula_structural       Cd4H80C152N16O32
_chemical_formula_sum              "Cd4 H80 C152 N16 O32"
_cell_length_a       11.865489641979998
_cell_length_b       13.835185735428087
_cell_length_c       29.54028960877122
_cell_angle_alpha    90.0012518506859
_cell_angle_beta     89.99727082297335
_cell_angle_gamma    103.19319557478804

_space_group_name_H-M_alt    "P 1"
_space_group_IT_number       1

loop_
  _space_group_symop_operation_xyz
  'x, y, z'

loop_
  _atom_site_type_symbol
  _atom_site_label
  _atom_site_symmetry_multiplicity
  _atom_site_fract_x
  _atom_site_fract_y
  _atom_site_fract_z
  _atom_site_occupancy
  Cd  Cd1       1.0  0.6050981290358664  0.08484431704624741  0.9569645552337676  1.0000
  Cd  Cd2       1.0  0.8949199971712151  0.4151716004733928  0.4569559184820022  1.0000
  Cd  Cd3       1.0  0.394904777877727  0.9151700551122062  0.0430417305451627  1.0000
  Cd  Cd4       1.0  0.10508072292081745  0.5848338643999184  0.5430419042473815  1.0000
  H   H1        1.0  0.5859744793658664  0.0846223672623125  0.7971193650931595  1.0000
  H   H2        1.0  0.813730574610304  0.3479432827940201  0.8477667811198587  1.0000
  H   H3        1.0  0.6289783116859909  0.1439601705814511  0.7178559601671922  1.0000
  H   H4        1.0  0.854646006081836  0.4111066660653222  0.7687485154069478  1.0000
  H   H5        1.0  0.5958632439256917  0.25042462683391165  0.6665254662851653  1.0000
  H   H6        1.0  0.9468132551490528  0.39269532936642537  0.702606764227596  1.0000
  H   H7        1.0  0.6426001513941914  0.29477039262524585  0.5857250343704692  1.0000
  H   H8        1.0  0.9874116417433784  0.44417309888221734  0.62342999844401  1.0000
  H   H9        1.0  0.8714186877546697  0.0723789776093682  0.9611084693733858  1.0000
  H   H10       1.0  0.5755195287056836  0.8540052451515622  0.9363069633480094  1.0000
  H   H11       1.0  0.9969961528101692  0.9498642272070513  0.9580487219306874  1.0000
  H   H12       1.0  0.6883937044268295  0.7206476896713455  0.9336903326119099  1.0000
  H   H13       1.0  0.11655795817681276  0.7092990858825203  0.05566143791602231  1.0000
  H   H14       1.0  0.929314786142051  0.5556729971754351  0.8462525344199889  1.0000
  H   H15       1.0  0.233019826223206  0.5821361220417743  0.0583335133295009  1.0000
  H   H16       1.0  0.05389846865690371  0.42980458818608014  0.8479860515304196  1.0000
  H   H17       1.0  0.49039948482434426  0.43494085650004877  0.9729887189753655  1.0000
  H   H18       1.0  0.19833698393925658  0.1995952448158178  0.9351146499860902  1.0000
  H   H19       1.0  0.6084114842303521  0.30721179141634275  0.9772961655248906  1.0000
  H   H20       1.0  0.3320176288466641  0.08315476346713518  0.9377476571394893  1.0000
  H   H21       1.0  0.9140348064075783  0.41536967036333294  0.2971150077740177  1.0000
  H   H22       1.0  0.686250616905845  0.1520655367573838  0.3477682239817383  1.0000
  H   H23       1.0  0.8710108509544415  0.35602486559695734  0.2178525466054424  1.0000
  H   H24       1.0  0.6453359502133367  0.0888910525070585  0.2687518168802114  1.0000
  H   H25       1.0  0.9041467264780538  0.24956863727588546  0.16652324782788236  1.0000
  H   H26       1.0  0.5531949490440837  0.10730007099066091  0.2026088118093128  1.0000
  H   H27       1.0  0.8574176829253944  0.20521258884365787  0.08572302962082289  1.0000
  H   H28       1.0  0.5125942160490667  0.0558259353841279  0.1234282946694449  1.0000
  H   H29       1.0  0.6285774855515882  0.4276107916799532  0.4610945908060842  1.0000
  H   H30       1.0  0.924474171411319  0.6460001459688983  0.4363059485714302  1.0000
  H   H31       1.0  0.5029962746037812  0.5501230724431565  0.45804006697526484  1.0000
  H   H32       1.0  0.8115919833298761  0.7793516094912007  0.4336978506275031  1.0000
  H   H33       1.0  0.3834558069117904  0.7906973895689334  0.5556579003329958  1.0000
  H   H34       1.0  0.5706609833612005  0.9443030411203422  0.34624298289791977  1.0000
  H   H35       1.0  0.2669854900774808  0.9178543550219587  0.5583408841956583  1.0000
  H   H36       1.0  0.4461077400220719  0.07019227965169961  0.3479882640156902  1.0000
  H   H37       1.0  0.0095814006061659  0.0650417176022486  0.4729804376943108  1.0000
  H   H38       1.0  0.3016559301507585  0.300402327871609  0.4351284379348783  1.0000
  H   H39       1.0  0.8915726512512665  0.19277587617582273  0.4773029888271764  1.0000
  H   H40       1.0  0.16798007944761653  0.4168392387851939  0.4377807546456652  1.0000
  H   H41       1.0  0.41400681667555966  0.915365783334785  0.20287811923758167  1.0000
  H   H42       1.0  0.18624462877645698  0.6520543827427403  0.15222765666019458  1.0000
  H   H43       1.0  0.371018320598651  0.8560149150979087  0.2821384772063523  1.0000
  H   H44       1.0  0.1453432056614545  0.5888793921805232  0.2312421984000537  1.0000
  H   H45       1.0  0.4041312793117556  0.7496036600049863  0.3334710025851635  1.0000
  H   H46       1.0  0.05318441799956017  0.6072908635642733  0.29740358367946834  1.0000
  H   H47       1.0  0.3574257211679139  0.7052413869866925  0.4142690643679359  1.0000
  H   H48       1.0  0.012612745909713341  0.5558120399612604  0.3765817032158623  1.0000
  H   H49       1.0  0.12858953091508593  0.9276295639968949  0.0388954466582447  1.0000
  H   H50       1.0  0.4244807879391105  0.1460157400602071  0.0636881513217418  1.0000
  H   H51       1.0  0.0030068060567529985  0.0501434914698748  0.0419602719699554  1.0000
  H   H52       1.0  0.31160268074867054  0.2793710148884614  0.0662997042797855  1.0000
  H   H53       1.0  0.8834196533262287  0.2906912243094482  0.9443414628048288  1.0000
  H   H54       1.0  0.0706498847162038  0.44431267108672773  0.15374935086499872  1.0000
  H   H55       1.0  0.7669487764534678  0.417851826797495  0.9416649867156223  1.0000
  H   H56       1.0  0.9460791429438943  0.5701857219849343  0.15201447954542152  1.0000
  H   H57       1.0  0.5095767717314744  0.5650302087473591  0.027037539565803598  1.0000
  H   H58       1.0  0.8016602085356654  0.8003924189802519  0.064870985924081  1.0000
  H   H59       1.0  0.3915720375374648  0.69276826159539  0.0227128284304641  1.0000
  H   H60       1.0  0.6679925701406758  0.9168412399805772  0.0622203755904778  1.0000
  H   H61       1.0  0.08599503676605022  0.5846273849791572  0.7028814604653348  1.0000
  H   H62       1.0  0.313750532646651  0.8479451105733985  0.6522336610248445  1.0000
  H   H63       1.0  0.12898376336458028  0.643979762842008  0.7821442606302043  1.0000
  H   H64       1.0  0.3546541985012296  0.9111194199501822  0.7312490526961711  1.0000
  H   H65       1.0  0.09586724635578041  0.7504015485572497  0.833482699008286  1.0000
  H   H66       1.0  0.4468051717294088  0.8927098206843596  0.7974001821398389  1.0000
  H   H67       1.0  0.14257387168098754  0.7947624162038309  0.9142798708315355  1.0000
  H   H68       1.0  0.4873952033432829  0.9441815680599035  0.8765790067900099  1.0000
  H   H69       1.0  0.37142038380346787  0.5723864947156444  0.5388937533243876  1.0000
  H   H70       1.0  0.07552085943137848  0.3539993135146062  0.563692551229046  1.0000
  H   H71       1.0  0.4969925729043183  0.44986150120477214  0.541943537891413  1.0000
  H   H72       1.0  0.18839826923549205  0.220645556014972  0.5663097892751594  1.0000
  H   H73       1.0  0.61658372227555  0.2093116496599166  0.4443382293466129  1.0000
  H   H74       1.0  0.42932214865025037  0.05570288348110349  0.6537473925914767  1.0000
  H   H75       1.0  0.733032076241088  0.08213732961025501  0.4416586308436408  1.0000
  H   H76       1.0  0.5539019499635814  0.9298325514508081  0.6520115898557819  1.0000
  H   H77       1.0  0.9904262847244  0.9349749485036015  0.527013322775268  1.0000
  H   H78       1.0  0.698357326957293  0.6996232993088896  0.5648720929400639  1.0000
  H   H79       1.0  0.10844833873584746  0.8072469165056616  0.5227043123500579  1.0000
  H   H80       1.0  0.83203112043757  0.5831848770119025  0.5622258696172081  1.0000
  C   C1        1.0  0.6718584711574564  0.17380845895863933  0.8740660206724015  1.0000
  C   C2        1.0  0.6978050245251597  0.21243184395395792  0.8269848359531693  1.0000
  C   C3        1.0  0.6449464873989614  0.1558294488221463  0.7902024607869933  1.0000
  C   C4        1.0  0.7739871384471331  0.30418822994828787  0.8188244708710785  1.0000
  C   C5        1.0  0.6683577173101869  0.1899674685792689  0.7462275435806375  1.0000
  C   C6        1.0  0.7970891903647654  0.3386015553984194  0.7747310769497987  1.0000
  C   C7        1.0  0.7448027666351252  0.2819535372888211  0.7375692128417198  1.0000
  C   C8        1.0  0.7690952890079502  0.31577355864427403  0.6904670285215745  1.0000
  C   C9        1.0  0.68296562988575  0.2899110443029471  0.6569502886471454  1.0000
  C   C10       1.0  0.878410509484979  0.372060320150588  0.6773666755076846  1.0000
  C   C11       1.0  0.7076567887005185  0.3154135917136855  0.6120413209814474  1.0000
  C   C12       1.0  0.9026749308673132  0.39908953769643307  0.6323791861548997  1.0000
  C   C13       1.0  0.817888733285244  0.36885651992884044  0.5990099965566388  1.0000
  C   C14       1.0  0.8427952042329354  0.3882323305139934  0.5499097613389878  1.0000
  C   C15       1.0  0.8341428322961946  0.993889903418207  0.9548668533449316  1.0000
  C   C16       1.0  0.6691553936090527  0.8714352413417572  0.9407998067561039  1.0000
  C   C17       1.0  0.9038660051031259  0.9255513351415632  0.9532484507054093  1.0000
  C   C18       1.0  0.7317516561198617  0.7979164819982361  0.9391540363736156  1.0000
  C   C19       1.0  0.8508934047211271  0.825854688290839  0.9462566344754038  1.0000
  C   C20       1.0  0.9144748277558036  0.6896807423215422  0.9091016515238337  1.0000
  C   C21       1.0  0.9799566885766354  0.7443570234591378  0.9880259668817999  1.0000
  C   C22       1.0  0.04958441469747746  0.6685820683799193  0.988805508588868  1.0000
  C   C23       1.0  0.982795832963106  0.6127972069875227  0.9120136328668167  1.0000
  C   C24       1.0  0.050224846737201304  0.6062149091551279  0.9508762174669627  1.0000
  C   C25       1.0  0.11461256091595824  0.6595637190961837  0.026979292348038104  1.0000
  C   C26       1.0  0.9831319413085283  0.5492836363363479  0.8755328680954478  1.0000
  C   C27       1.0  0.18231316876711653  0.5886665997726794  0.0282142886092771  1.0000
  C   C28       1.0  0.05243446129313162  0.4796402871677402  0.8764586946751791  1.0000
  C   C29       1.0  0.1863845996912232  0.5277032246988611  0.991093027490912  1.0000
  C   C30       1.0  0.1213972493431825  0.4732492384481334  0.9139574510658335  1.0000
  C   C31       1.0  0.12039884025968212  0.5354458276413467  0.951863725997299  1.0000
  C   C32       1.0  0.25837003169114336  0.45366979141057573  0.9931326152043312  1.0000
  C   C33       1.0  0.19644493661272835  0.4013125136342738  0.913526152698168  1.0000
  C   C34       1.0  0.3341214438195763  0.3260360313160007  0.9544971896283414  1.0000
  C   C35       1.0  0.4508035705027852  0.357473069689398  0.9660138119258335  1.0000
  C   C36       1.0  0.288945474681725  0.2264196596186849  0.9439890649192647  1.0000
  C   C37       1.0  0.5171830531459919  0.286777507916895  0.9679891702909487  1.0000
  C   C38       1.0  0.3628228792590136  0.1615364327502888  0.9459643704836296  1.0000
  C   C39       1.0  0.8281451433056901  0.32619456232019683  0.37406257818526717  1.0000
  C   C40       1.0  0.8021972665917261  0.28756286807551845  0.3269842255941029  1.0000
  C   C41       1.0  0.855064514607925  0.3441602665700144  0.290199955571353  1.0000
  C   C42       1.0  0.7260141334057976  0.19580631084917846  0.31882552251094853  1.0000
  C   C43       1.0  0.8316466928891515  0.31001760967945563  0.2462268521805768  1.0000
  C   C44       1.0  0.702899523923719  0.1613949054995132  0.2747319003242481  1.0000
  C   C45       1.0  0.7552040502834174  0.21803141473115772  0.23756984824467509  1.0000
  C   C46       1.0  0.7309192804871997  0.18420914293740512  0.1904684874910032  1.0000
  C   C47       1.0  0.8170482028337674  0.2100739662175286  0.15695000104105364  1.0000
  C   C48       1.0  0.6216010398301748  0.1279294782400342  0.1773700453025384  1.0000
  C   C49       1.0  0.7923563357784147  0.1845698149025736  0.11203994405858  1.0000
  C   C50       1.0  0.5973354349238065  0.1009001264996598  0.1323831290136468  1.0000
  C   C51       1.0  0.6821284865823358  0.1311252254699227  0.09901058959012939  1.0000
  C   C52       1.0  0.6572107692963627  0.1117446063965275  0.04991341253479221  1.0000
  C   C53       1.0  0.6658534900509282  0.506101833871142  0.4548540223462609  1.0000
  C   C54       1.0  0.830841555165506  0.6285643717929191  0.4407960908172726  1.0000
  C   C55       1.0  0.5961254254929785  0.5744336393103568  0.45323582843116844  1.0000
  C   C56       1.0  0.7682359898359508  0.7020755582818695  0.43914940877500896  1.0000
  C   C57       1.0  0.6490906874032022  0.6741322547540421  0.4462413228431856  1.0000
  C   C58       1.0  0.5855311418398444  0.8103169331065843  0.40908796165944483  1.0000
  C   C59       1.0  0.520051283670206  0.7556355290696786  0.4880172103933447  1.0000
  C   C60       1.0  0.4504142109008882  0.8314098267913439  0.48879917579510856  1.0000
  C   C61       1.0  0.5171957968089133  0.8871877265811108  0.4120049686228811  1.0000
  C   C62       1.0  0.449771531233182  0.8937784477745724  0.4508727448183548  1.0000
  C   C63       1.0  0.3854001334794646  0.8404388487299458  0.5269777105563023  1.0000
  C   C64       1.0  0.5168585190859928  0.9506939311982378  0.3755260559539337  1.0000
  C   C65       1.0  0.3176922242045778  0.9113306998968016  0.5282159467031988  1.0000
  C   C66       1.0  0.4475750746584596  0.020352738281680202  0.3764575134731984  1.0000
  C   C67       1.0  0.3136220126648226  0.9723014102622327  0.49109488885913777  1.0000
  C   C68       1.0  0.3786081644201715  0.026743694573248402  0.41395565220963704  1.0000
  C   C69       1.0  0.3796051371963927  0.9645513657316301  0.4518635512878504  1.0000
  C   C70       1.0  0.24163709050090884  0.0463409393198759  0.49313980226638415  1.0000
  C   C71       1.0  0.3035580908687622  0.09867741586400307  0.4135332013397743  1.0000
  C   C72       1.0  0.16586992348800322  0.17395523065926  0.4545048276966881  1.0000
  C   C73       1.0  0.0491781373990463  0.14251382126372653  0.4660137075770052  1.0000
  C   C74       1.0  0.21104675923903227  0.2735714165544891  0.4440046952537671  1.0000
  C   C75       1.0  0.9828019152506613  0.2132136929419417  0.4679967610024534  1.0000
  C   C76       1.0  0.1371674991710279  0.3384546514781094  0.4459819575968211  1.0000
  C   C77       1.0  0.32813318780575423  0.8262012981183489  0.1259331562774548  1.0000
  C   C78       1.0  0.3021840698161071  0.7875571699617652  0.17301163272670553  1.0000
  C   C79       1.0  0.3550493115032011  0.8441559748399925  0.20979671595409144  1.0000
  C   C80       1.0  0.22600370049998017  0.6957941573432436  0.18116962809945386  1.0000
  C   C81       1.0  0.331641700905088  0.8100120976284372  0.2537692634334405  1.0000
  C   C82       1.0  0.2029016485264847  0.6613808319050847  0.2252643761036097  1.0000
  C   C83       1.0  0.2551955580367106  0.7180215753047605  0.2624265785943933  1.0000
  C   C84       1.0  0.23090286630852563  0.6842111631007056  0.30953180966570665  1.0000
  C   C85       1.0  0.3170327339316046  0.7100951224575809  0.34304448742887667  1.0000
  C   C86       1.0  0.12159194168960143  0.6279281668113442  0.3226406256700969  1.0000
  C   C87       1.0  0.2923607386713343  0.6845950977980166  0.38795616304492603  1.0000
  C   C88       1.0  0.09735236010447317  0.6008971260085046  0.3676294687933463  1.0000
  C   C89       1.0  0.1821466034479401  0.6311354472277916  0.40099527312170113  1.0000
  C   C90       1.0  0.15724823021498227  0.6117582866128048  0.45009483119114446  1.0000
  C   C91       1.0  0.1658635767379479  0.0061215669107781  0.0451377397691246  1.0000
  C   C92       1.0  0.33084938836091743  0.1285798999116068  0.0591980159872492  1.0000
  C   C93       1.0  0.0961356261424484  0.0744578411052998  0.046753434285754694  1.0000
  C   C94       1.0  0.2682522797821889  0.2020986457710734  0.060840062651998  1.0000
  C   C95       1.0  0.1491060525139929  0.17415593211075722  0.0537422038650277  1.0000
  C   C96       1.0  0.08550490586021907  0.31031477718523337  0.0909002336431755  1.0000
  C   C97       1.0  0.0200237741102356  0.2556414651147421  0.0119755797750329  1.0000
  C   C98       1.0  0.95037940984151  0.3314035864520831  0.0111987463512833  1.0000
  C   C99       1.0  0.017175907193951873  0.3871863555111901  0.0879858826738982  1.0000
  C   C100      1.0  0.9497487811337493  0.39377977391131946  0.04912397516487489  1.0000
  C   C101      1.0  0.8853550130375684  0.34042347407534385  0.9730249625567851  1.0000
  C   C102      1.0  0.016848495379086614  0.45069414943860425  0.12446698582310492  1.0000
  C   C103      1.0  0.817663843961995  0.41132813710423477  0.9717865810233945  1.0000
  C   C104      1.0  0.9475579524855321  0.5203450827408104  0.12354623695868838  1.0000
  C   C105      1.0  0.8135952509497884  0.4722893392188752  0.008912242862564302  1.0000
  C   C106      1.0  0.8785927558723331  0.5267434869010188  0.0860498502901521  1.0000
  C   C107      1.0  0.8795745399960992  0.46454441532496554  0.048142559981471295  1.0000
  C   C108      1.0  0.7416061346488834  0.5463249320511422  0.006872316687093899  1.0000
  C   C109      1.0  0.803519903307638  0.5986635455393596  0.0864797947707032  1.0000
  C   C110      1.0  0.6658587581477635  0.6739476657807377  0.0455121429116545  1.0000
  C   C111      1.0  0.5491697962576296  0.6425068219837373  0.0340036451692356  1.0000
  C   C112      1.0  0.7110465100833352  0.7735605277365848  0.0560009717744663  1.0000
  C   C113      1.0  0.48280035155494255  0.7132055006928509  0.032017454040087  1.0000
  C   C114      1.0  0.6371761880767937  0.8384520001826133  0.0540175416809987  1.0000
  C   C115      1.0  0.17185807649023122  0.6738279477889576  0.6259335520214576  1.0000
  C   C116      1.0  0.19782056006933155  0.7124436081146684  0.6730166436213806  1.0000
  C   C117      1.0  0.1449556033957933  0.6558418098105251  0.7097998980255653  1.0000
  C   C118      1.0  0.27399728794168965  0.8042015422820656  0.6811770393945835  1.0000
  C   C119      1.0  0.16836478062113963  0.6899835899253474  0.7537733400359129  1.0000
  C   C120      1.0  0.29710126105842954  0.8386142573052026  0.7252710002392179  1.0000
  C   C121      1.0  0.2448042856207948  0.7819741712411599  0.7624323751626818  1.0000
  C   C122      1.0  0.2690879486714621  0.8157816380647347  0.8095367825196362  1.0000
  C   C123      1.0  0.182959612175992  0.7899020366837419  0.8430545918246892  1.0000
  C   C124      1.0  0.37840130713052395  0.8720723157508132  0.8226392870875827  1.0000
  C   C125      1.0  0.20764150683726962  0.8154067688527816  0.8879646489315931  1.0000
  C   C126      1.0  0.40265669222315387  0.8990978082032156  0.8676275575578103  1.0000
  C   C127      1.0  0.3178658017639577  0.8688609136383294  0.9009977272332392  1.0000
  C   C128      1.0  0.3427794182113075  0.8882488612141586  0.9500932117823951  1.0000
  C   C129      1.0  0.33414401469190125  0.493893968007363  0.5451363529032419  1.0000
  C   C130      1.0  0.16915745946289462  0.37143071478318745  0.5592013933443455  1.0000
  C   C131      1.0  0.40386499720975183  0.4255539168767513  0.5467498075602037  1.0000
  C   C132      1.0  0.23175564319782188  0.2979134959812272  0.5608463828329775  1.0000
  C   C133      1.0  0.35089774328798035  0.3258574879122166  0.553747698393714  1.0000
  C   C134      1.0  0.4144798634447967  0.18969608888131262  0.5909017364975995  1.0000
  C   C135      1.0  0.47998208762323463  0.24437932724227815  0.5119792579194211  1.0000
  C   C136      1.0  0.5496151114932958  0.1686057045445111  0.5111986466539022  1.0000
  C   C137      1.0  0.48280661597752333  0.112817765140548  0.5879867607133065  1.0000
  C   C138      1.0  0.5502460613080801  0.10623393960865708  0.5491230466277628  1.0000
  C   C139      1.0  0.614633784550783  0.1595782343965553  0.47302011184723375  1.0000
  C   C140      1.0  0.48313433788590043  0.0493069724100721  0.6244660119886447  1.0000
  C   C141      1.0  0.6823218532653714  0.08867423790594839  0.4717795062161443  1.0000
  C   C142      1.0  0.5524370238763793  0.9796647373832242  0.6235403091968693  1.0000
  C   C143      1.0  0.6863895390773465  0.027713838600092796  0.5089029338030144  1.0000
  C   C144      1.0  0.621400119670355  0.9732685448506473  0.5860404778688421  1.0000
  C   C145      1.0  0.6204071956677099  0.0354601986953114  0.548134271340821  1.0000
  C   C146      1.0  0.7583730682131034  0.9536720692917555  0.5068583589187341  1.0000
  C   C147      1.0  0.6964510392757218  0.9013348370469386  0.5864669909771507  1.0000
  C   C148      1.0  0.8341524594015866  0.8260698022998626  0.5455051816440388  1.0000
  C   C149      1.0  0.9508384917141584  0.8575015082963376  0.5339830994621053  1.0000
  C   C150      1.0  0.7889664979109056  0.7264542106170281  0.5559948200590271  1.0000
  C   C151      1.0  0.01721665339012189  0.7868061037342713  0.5320068164566578  1.0000
  C   C152      1.0  0.8628407977864682  0.661567939373697  0.5540182347976099  1.0000
  N   N1        1.0  0.7187439345858735  0.9670344955253255  0.9493782838009821  1.0000
  N   N2        1.0  0.9182924339822591  0.7517727448647379  0.947647671664626  1.0000
  N   N3        1.0  0.26134696043477135  0.3960598986901119  0.9537761235016049  1.0000
  N   N4        1.0  0.47429376712084803  0.1905934200023296  0.958303645643774  1.0000
  N   N5        1.0  0.7812535175469152  0.5329667672604899  0.44936605770875093  1.0000
  N   N6        1.0  0.5816922074102281  0.7482134939531236  0.4476305562866827  1.0000
  N   N7        1.0  0.23865063728936053  0.10393588483975691  0.4537834570048744  1.0000
  N   N8        1.0  0.02569396599303528  0.3094015534639354  0.4583201656796234  1.0000
  N   N9        1.0  0.2812637505631486  0.032982170619448  0.0506198774379101  1.0000
  N   N10       1.0  0.081696985731277  0.24823475851043494  0.052351843818343  1.0000
  N   N11       1.0  0.7386295053201409  0.6039326114231474  0.0462291468924718  1.0000
  N   N12       1.0  0.5257007692874752  0.8093971591102544  0.04168774516972461  1.0000
  N   N13       1.0  0.2187447161550509  0.4670320037090717  0.5506266871963135  1.0000
  N   N14       1.0  0.41829949107223996  0.25177925812162266  0.5523567723267249  1.0000
  N   N15       1.0  0.7613574644531552  0.8960756123345844  0.5462147041952647  1.0000
  N   N16       1.0  0.9743180800019646  0.6906225758082412  0.541689166738827  1.0000
  O   O1        1.0  0.7220970184234545  0.22318693430488423  0.9076676397701534  1.0000
  O   O2        1.0  0.5983057631620313  0.09081322714143167  0.8784363331419841  1.0000
  O   O3        1.0  0.9401572995653069  0.44425959890536865  0.5377235571721712  1.0000
  O   O4        1.0  0.768539042912117  0.3468447543333895  0.5206842036939321  1.0000
  O   O5        1.0  0.9734791705994894  0.7983357251388411  0.0206147576836528  1.0000
  O   O6        1.0  0.8595589130246425  0.7022396459213882  0.8753034738958191  1.0000
  O   O7        1.0  0.2051167661779516  0.34944051704711393  0.8807091727213959  1.0000
  O   O8        1.0  0.3130832215755461  0.4414782057985676  0.0273512270047789  1.0000
  O   O9        1.0  0.7779087968837219  0.276830069085257  0.40766781550365755  1.0000
  O   O10       1.0  0.9017162769008565  0.4091805582296431  0.3784315162476446  1.0000
  O   O11       1.0  0.5598315178153187  0.055742711807802416  0.03773594259318  1.0000
  O   O12       1.0  0.7314668424157206  0.1531146203145468  0.0206815201513919  1.0000
  O   O13       1.0  0.5265507779759275  0.7016771314407249  0.5206109085200126  1.0000
  O   O14       1.0  0.640477301441301  0.7977696980748448  0.37529472311223344  1.0000
  O   O15       1.0  0.2948958686259148  0.150556335376379  0.3807191388288302  1.0000
  O   O16       1.0  0.1869191712223142  0.058523599972311005  0.5273599102981521  1.0000
  O   O17       1.0  0.277910797176105  0.7768371275589914  0.09232442814249711  1.0000
  O   O18       1.0  0.40168184673435553  0.9091972049953867  0.1215682601927313  1.0000
  O   O19       1.0  0.05988426016137539  0.5557302490546547  0.4622813738963458  1.0000
  O   O20       1.0  0.23150548524681372  0.653150316371608  0.4793173421655652  1.0000
  O   O21       1.0  0.026521445502090995  0.2016830467154804  0.9793796799266089  1.0000
  O   O22       1.0  0.1404424059250999  0.297761392249015  0.12469434879744772  1.0000
  O   O23       1.0  0.7948307716651473  0.650523437195055  0.119298806002142  1.0000
  O   O24       1.0  0.6868707345458491  0.5584947229094936  0.9726567516996383  1.0000
  O   O25       1.0  0.2221058403575782  0.7231874469240225  0.5923289915738081  1.0000
  O   O26       1.0  0.0982976312835575  0.5908339887095408  0.6215652908192766  1.0000
  O   O27       1.0  0.44014050839025737  0.9442763451106871  0.9622737287970509  1.0000
  O   O28       1.0  0.26853408565720116  0.8468642305967362  0.9793230728162355  1.0000
  O   O29       1.0  0.4735053370289465  0.2983513950923752  0.4793889448139197  1.0000
  O   O30       1.0  0.3595388462301869  0.2022471025152583  0.6246959905693927  1.0000
  O   O31       1.0  0.705111933603959  0.8494573751673828  0.6192810535136672  1.0000
  O   O32       1.0  0.8130886831703563  0.9414834570450097  0.4726379123553102  1.0000
