data_image0
_chemical_formula_structural       Ag4H16C24N4O8
_chemical_formula_sum              "Ag4 H16 C24 N4 O8"
_cell_length_a       3.7451008163409782
_cell_length_b       10.950774027036779
_cell_length_c       14.110435363382544
_cell_angle_alpha    89.99981368840086
_cell_angle_beta     92.36480479839608
_cell_angle_gamma    89.9997972312184

_space_group_name_H-M_alt    "P 1"
_space_group_IT_number       1

loop_
  _space_group_symop_operation_xyz
  'x, y, z'

loop_
  _atom_site_type_symbol
  _atom_site_label
  _atom_site_symmetry_multiplicity
  _atom_site_fract_x
  _atom_site_fract_y
  _atom_site_fract_z
  _atom_site_occupancy
  Ag  Ag1       1.0  0.674413017252583  0.9909433739787946  0.397917908948564  1.0000
  Ag  Ag2       1.0  0.32555856621214474  0.4909283781215877  0.10207881046515152  1.0000
  Ag  Ag3       1.0  0.32551487309802957  0.009063695131430901  0.6020913193314001  1.0000
  Ag  Ag4       1.0  0.6744742313767134  0.5090695591895483  0.8979141348493798  1.0000
  H   H1        1.0  0.7791238399333977  0.4645621347080891  0.458766443103606  1.0000
  H   H2        1.0  0.22086402996079366  0.9645580951060353  0.0412319835822998  1.0000
  H   H3        1.0  0.22087143549244104  0.5354440212161364  0.5412288237520784  1.0000
  H   H4        1.0  0.7791255982051125  0.035448973982902005  0.9587710020682891  1.0000
  H   H5        1.0  0.5088182874756059  0.5620515778999433  0.3154171238960402  1.0000
  H   H6        1.0  0.49115028284852963  0.06206071565934221  0.1845806433238693  1.0000
  H   H7        1.0  0.4911716984833846  0.4379408803683803  0.6845766531404394  1.0000
  H   H8        1.0  0.5088125123437879  0.937949092971728  0.8154248101248598  1.0000
  H   H9        1.0  0.7660769135568232  0.2663557908352061  0.14607949083263352  1.0000
  H   H10       1.0  0.23392910985705126  0.7663641489596316  0.3539246486404792  1.0000
  H   H11       1.0  0.23392874845182374  0.7336330146952365  0.8539237142169753  1.0000
  H   H12       1.0  0.7660739623569199  0.233633788351277  0.6460763947650676  1.0000
  H   H13       1.0  0.04435514821980751  0.15564500795512262  0.2852536582739305  1.0000
  H   H14       1.0  0.955657511476254  0.6556458352233606  0.2147508531288622  1.0000
  H   H15       1.0  0.9556290528939757  0.8443492766481742  0.7147513793384662  1.0000
  H   H16       1.0  0.044348453154988504  0.3443521020975312  0.7852445599874969  1.0000
  C   C1        1.0  0.09450103048479261  0.23696853106392982  0.47059009439794863  1.0000
  C   C2        1.0  0.90551054283268  0.7369692625073085  0.029417739305074506  1.0000
  C   C3        1.0  0.9055151555001474  0.763034885291006  0.5294175070202202  1.0000
  C   C4        1.0  0.09452456931105502  0.2630332406708362  0.9705844511995139  1.0000
  C   C5        1.0  0.928749947305718  0.3000797681144078  0.3842487173368312  1.0000
  C   C6        1.0  0.07124507608316578  0.8000810665704989  0.1157530598100323  1.0000
  C   C7        1.0  0.07125045260291071  0.6999209087304337  0.6157522895026232  1.0000
  C   C8        1.0  0.9287661780841745  0.19991869709932084  0.8842438431415472  1.0000
  C   C9        1.0  0.7809572488244573  0.4166441981710207  0.3914080973124427  1.0000
  C   C10       1.0  0.21904181424336142  0.9166417100218  0.1085920216584455  1.0000
  C   C11       1.0  0.21904061636941924  0.5833573918600409  0.6085893311811503  1.0000
  C   C12       1.0  0.780966657575995  0.08335714046635452  0.8914076781577692  1.0000
  C   C13       1.0  0.6289234610667125  0.4717729711475586  0.3107641401852632  1.0000
  C   C14       1.0  0.3710617349193655  0.9717754625246403  0.18923210539893628  1.0000
  C   C15       1.0  0.37107988630715033  0.5282249661777599  0.6892298196558002  1.0000
  C   C16       1.0  0.6289199039157437  0.028227953860557903  0.8107700622129528  1.0000
  C   C17       1.0  0.7723587262216185  0.3065254053819615  0.216729672686327  1.0000
  C   C18       1.0  0.22764693861804372  0.8065304081967215  0.2832715249527027  1.0000
  C   C19       1.0  0.22764701830835327  0.6934679660401031  0.7832714072877778  1.0000
  C   C20       1.0  0.7723535988811818  0.19346844230040722  0.7167259401069829  1.0000
  C   C21       1.0  0.9242832967262871  0.24524364842598348  0.2946109198402098  1.0000
  C   C22       1.0  0.07573371722982361  0.7452454865966163  0.20539200615745298  1.0000
  C   C23       1.0  0.07571974799300558  0.754750636173654  0.7053908319267138  1.0000
  C   C24       1.0  0.9242855538269269  0.25475062435871365  0.7946050064862433  1.0000
  N   N1        1.0  0.6220351832124678  0.41815959038082445  0.224548281312714  1.0000
  N   N2        1.0  0.3779665619217668  0.9181671987503537  0.2754511617606425  1.0000
  N   N3        1.0  0.3779787432975112  0.5818310415128566  0.775448658213591  1.0000
  N   N4        1.0  0.6220310831442009  0.08183439126918303  0.7245519335845358  1.0000
  O   O1        1.0  0.08019741356988419  0.11840614570298409  0.46955681981397396  1.0000
  O   O2        1.0  0.9197703892097097  0.6184141625501668  0.030443628739227808  1.0000
  O   O3        1.0  0.9197277219913433  0.8815927048073322  0.5304544969840279  1.0000
  O   O4        1.0  0.08028417184866038  0.3815956460756953  0.9695396920681745  1.0000
  O   O5        1.0  0.23719484614163386  0.2994844476901194  0.5354721726414127  1.0000
  O   O6        1.0  0.7627856079099898  0.7995008984041408  0.9645302995212219  1.0000
  O   O7        1.0  0.7628728013155455  0.7005061841869349  0.46451841456833165  1.0000
  O   O8        1.0  0.23716379831417816  0.20050982341070522  0.0354756794707356  1.0000
