data_image0
_chemical_formula_structural       Cd8H40C32O52
_chemical_formula_sum              "Cd8 H40 C32 O52"
_cell_length_a       7.5837811260395585
_cell_length_b       11.008590446058719
_cell_length_c       18.043468711029842
_cell_angle_alpha    89.99983349239778
_cell_angle_beta     90.00013010344382
_cell_angle_gamma    89.99966005946717

_space_group_name_H-M_alt    "P 1"
_space_group_IT_number       1

loop_
  _space_group_symop_operation_xyz
  'x, y, z'

loop_
  _atom_site_type_symbol
  _atom_site_label
  _atom_site_symmetry_multiplicity
  _atom_site_fract_x
  _atom_site_fract_y
  _atom_site_fract_z
  _atom_site_occupancy
  Cd  Cd1       1.0  0.6573647171838815  0.2344255740422198  0.3795673690024727  1.0000
  Cd  Cd2       1.0  0.8426262665034159  0.7655782997055809  0.8795695114526649  1.0000
  Cd  Cd3       1.0  0.157374530733918  0.2655753574413708  0.6204326480392195  1.0000
  Cd  Cd4       1.0  0.34262577119098836  0.7344227294733868  0.12043311234443616  1.0000
  Cd  Cd5       1.0  0.7381415267227568  0.7441991159883299  0.37988008304532866  1.0000
  Cd  Cd6       1.0  0.7618573702881337  0.25579476407940405  0.8798808459456777  1.0000
  Cd  Cd7       1.0  0.238142191123913  0.7557978056695301  0.6201163431569794  1.0000
  Cd  Cd8       1.0  0.26186206490265823  0.24420573301522097  0.12011594700889104  1.0000
  H   H1        1.0  0.4476009506324417  0.36674701504658447  0.4664634114421558  1.0000
  H   H2        1.0  0.0523985556177422  0.633252170114531  0.9664644019747112  1.0000
  H   H3        1.0  0.9475954501054177  0.13325452662984108  0.533537995166341  1.0000
  H   H4        1.0  0.5524002850838343  0.8667446153360386  0.03353738647792429  1.0000
  H   H5        1.0  0.9345337091070152  0.6449123596436407  0.4858837210181404  1.0000
  H   H6        1.0  0.5654604775911665  0.35508919748542667  0.9858824527018012  1.0000
  H   H7        1.0  0.4345342875086473  0.8550882874566027  0.5141145580696644  1.0000
  H   H8        1.0  0.06545885558173842  0.14491211609683316  0.014116921092821096  1.0000
  H   H9        1.0  0.6293234239664188  0.5009593564796331  0.35602674216940483  1.0000
  H   H10       1.0  0.8706885321341246  0.49903645246583017  0.8560304989274666  1.0000
  H   H11       1.0  0.1293208377068069  0.9990389259508984  0.6439717954909268  1.0000
  H   H12       1.0  0.37068090808077875  0.0009617754357548997  0.14397138739809628  1.0000
  H   H13       1.0  0.9269407690420123  0.2982227175544592  0.2716319875592815  1.0000
  H   H14       1.0  0.5730628262914834  0.7017743965818892  0.7716350919076616  1.0000
  H   H15       1.0  0.4269451040413514  0.20177527647129512  0.7283671821758089  1.0000
  H   H16       1.0  0.07305445367941843  0.7982259365081177  0.22836671655356602  1.0000
  H   H17       1.0  0.6517058904124937  0.991116584803734  0.3292504191599263  1.0000
  H   H18       1.0  0.8482966929329551  0.008882075213548998  0.8292472755101057  1.0000
  H   H19       1.0  0.1517075958250587  0.5088779710229544  0.670755899227103  1.0000
  H   H20       1.0  0.3482982483084811  0.49112260443303757  0.17075292647253085  1.0000
  H   H21       1.0  0.8420924041048963  0.05866532802583889  0.3153438232762013  1.0000
  H   H22       1.0  0.657907468014983  0.9413361225227275  0.8153415916095664  1.0000
  H   H23       1.0  0.342097115879298  0.4413293852002624  0.6846608064443485  1.0000
  H   H24       1.0  0.1579061650760565  0.5586656745921843  0.18465974482227662  1.0000
  H   H25       1.0  0.5711488774825356  0.4150597057495773  0.5649045884311403  1.0000
  H   H26       1.0  0.9288509804570709  0.5849374719694609  0.06490485051651257  1.0000
  H   H27       1.0  0.07113154307631223  0.08493885907242318  0.4350947908684616  1.0000
  H   H28       1.0  0.428853291603872  0.9150586568379349  0.9350961941573598  1.0000
  H   H29       1.0  0.7919022607024077  0.5671286442452298  0.5759190706448434  1.0000
  H   H30       1.0  0.7080937000367342  0.4328693900814925  0.07591772935616348  1.0000
  H   H31       1.0  0.2919017014947585  0.9328762293465969  0.42407851605997127  1.0000
  H   H32       1.0  0.20808966756030858  0.06712497186987318  0.9240801199552491  1.0000
  H   H33       1.0  0.6174974762541937  0.576051086659106  0.20792155447735888  1.0000
  H   H34       1.0  0.8825097358171166  0.4239499605336191  0.7079260117653658  1.0000
  H   H35       1.0  0.11750949987342811  0.9239472449037859  0.7920775259518391  1.0000
  H   H36       1.0  0.38249303411200936  0.0760545769091863  0.2920775486523509  1.0000
  H   H37       1.0  0.8100169007279164  0.4004133585487608  0.1851312873562704  1.0000
  H   H38       1.0  0.689995464455272  0.5995905209310023  0.6851346884963758  1.0000
  H   H39       1.0  0.3100172866934514  0.09958512157162146  0.8148683233340674  1.0000
  H   H40       1.0  0.1899761383519945  0.9004184098687702  0.31486889587135625  1.0000
  C   C1        1.0  0.8080955433327902  0.3395500901521371  0.5266804134187024  1.0000
  C   C2        1.0  0.6919080669837285  0.660449992415401  0.026681973018852993  1.0000
  C   C3        1.0  0.30807513594943714  0.16045203152386017  0.47331974961431894  1.0000
  C   C4        1.0  0.19191253935451869  0.8395489381857428  0.9733221674392207  1.0000
  C   C5        1.0  0.6566284713833711  0.43039948039004366  0.5165031687522441  1.0000
  C   C6        1.0  0.8433698103649547  0.5695979248965697  0.016503375586097494  1.0000
  C   C7        1.0  0.15661943602928832  0.06959963743441479  0.48349518491729515  1.0000
  C   C8        1.0  0.3433709306495984  0.930397650902762  0.9834975862854446  1.0000
  C   C9        1.0  0.7210944573639679  0.5611844678693669  0.5227313749834862  1.0000
  C   C10       1.0  0.7789051761350692  0.4388119997525875  0.022730645828175994  1.0000
  C   C11       1.0  0.22109017510410212  0.9388161581933118  0.47726558891744  1.0000
  C   C12       1.0  0.2789054328218512  0.06118388456825131  0.9772672720762469  1.0000
  C   C13       1.0  0.5660579730285845  0.6511699562711752  0.5289063066934501  1.0000
  C   C14       1.0  0.9339416933274619  0.34882829907962065  0.028906443545054093  1.0000
  C   C15       1.0  0.06606364986698311  0.8488267723952985  0.47109106125520106  1.0000
  C   C16       1.0  0.4339319251987065  0.15117329939652538  0.9710927329614871  1.0000
  C   C17       1.0  0.875083924114385  0.618470080665837  0.23781057262408462  1.0000
  C   C18       1.0  0.6249234470034395  0.381532642774168  0.7378104228438428  1.0000
  C   C19       1.0  0.3750869175570771  0.8815180962389206  0.7621876488894157  1.0000
  C   C20       1.0  0.12491545735055348  0.11848386611062979  0.2621851290133605  1.0000
  C   C21       1.0  0.7069386025990384  0.5435352818665534  0.2516366139879905  1.0000
  C   C22       1.0  0.7930675235089594  0.4564664681821141  0.7516398178041467  1.0000
  C   C23       1.0  0.20694352530481552  0.9564635862628276  0.7483608904239103  1.0000
  C   C24       1.0  0.29305877603252384  0.043536624325852785  0.24836088489375632  1.0000
  C   C25       1.0  0.7361593924069398  0.4075387341848753  0.23721712817543752  1.0000
  C   C26       1.0  0.7638479755691066  0.5924630836526106  0.737221722089316  1.0000
  C   C27       1.0  0.23616747311731956  0.0924582362070012  0.7627813025427981  1.0000
  C   C28       1.0  0.26383226775794816  0.9075428149653814  0.2627830422552505  1.0000
  C   C29       1.0  0.5544692500512555  0.3474978425106272  0.22732764307666994  1.0000
  C   C30       1.0  0.9455380652931851  0.6525049302021271  0.7273334135868834  1.0000
  C   C31       1.0  0.05447951235828441  0.15249806645823577  0.772668948995985  1.0000
  C   C32       1.0  0.4455163253467944  0.8474993047051879  0.27267208096947115  1.0000
  O   O1        1.0  0.8156514453967603  0.2427503088637266  0.4870561938756877  1.0000
  O   O2        1.0  0.6843480219631601  0.757250334356577  0.9870565353064575  1.0000
  O   O3        1.0  0.3156436155384341  0.2572490562255324  0.5129456391364896  1.0000
  O   O4        1.0  0.1843521585425449  0.7427486276798516  0.012945380959656895  1.0000
  O   O5        1.0  0.9124010673590278  0.364049708599957  0.5787535779308965  1.0000
  O   O6        1.0  0.5876028200880655  0.6359492207596912  0.07875452627961008  1.0000
  O   O7        1.0  0.4123845460182666  0.13595652135516184  0.42124280661685265  1.0000
  O   O8        1.0  0.08760153353217248  0.8640474183385076  0.9212489589241668  1.0000
  O   O9        1.0  0.5559239929415014  0.4109868252928876  0.44980254789105334  1.0000
  O   O10       1.0  0.9440779133682896  0.5890121763150161  0.9498012261957595  1.0000
  O   O11       1.0  0.0559151482523887  0.08900998603766647  0.5501990335351363  1.0000
  O   O12       1.0  0.4440795054786548  0.9109884311023816  0.05019817057199558  1.0000
  O   O13       1.0  0.8415327840399202  0.5896493976678627  0.4643745575903393  1.0000
  O   O14       1.0  0.6584652440089726  0.41034953543752534  0.9643727258953373  1.0000
  O   O15       1.0  0.34153169050434684  0.9103525444515126  0.5356230771919852  1.0000
  O   O16       1.0  0.15846288564473096  0.08965048311854668  0.03562562955583809  1.0000
  O   O17       1.0  0.5639477009386838  0.7442809814447601  0.48663829607226444  1.0000
  O   O18       1.0  0.9360478083931696  0.2557178469867551  0.9866381194139531  1.0000
  O   O19       1.0  0.0639425234243234  0.755726656592813  0.5133601782515169  1.0000
  O   O20       1.0  0.4360479784138749  0.24427829243044383  0.013358288056615195  1.0000
  O   O21       1.0  0.4543039227983457  0.628356069219933  0.5789969742646901  1.0000
  O   O22       1.0  0.0456922027836626  0.3716458460439965  0.07899724827618827  1.0000
  O   O23       1.0  0.9543089914612608  0.8716372286490213  0.42099245650795314  1.0000
  O   O24       1.0  0.5456914429536399  0.12835645811758667  0.920994901546116  1.0000
  O   O25       1.0  0.9187426297558974  0.7057935113114552  0.28095909240715855  1.0000
  O   O26       1.0  0.5812544221630062  0.2942099176641121  0.7809590571633575  1.0000
  O   O27       1.0  0.4187474513074534  0.7942035679113245  0.7190352918695806  1.0000
  O   O28       1.0  0.0812573311535658  0.20580041407535532  0.21903534396988525  1.0000
  O   O29       1.0  0.955816694668613  0.5921060943204849  0.17910629107677775  1.0000
  O   O30       1.0  0.5441916826314498  0.4078978135020391  0.6791065699608365  1.0000
  O   O31       1.0  0.4558184587885847  0.9078762966608236  0.8208947797297979  1.0000
  O   O32       1.0  0.044186865740016415  0.09213174832921568  0.3208950000732641  1.0000
  O   O33       1.0  0.6211490207885859  0.5686656720962305  0.32077902020041177  1.0000
  O   O34       1.0  0.8788508802900097  0.43133211935643334  0.8207834606865203  1.0000
  O   O35       1.0  0.12115115104488443  0.9313344610696741  0.6792200637594801  1.0000
  O   O36       1.0  0.3788507823341191  0.06866516621205679  0.17921954198440196  1.0000
  O   O37       1.0  0.83731248910577  0.3524795666455914  0.295606221368942  1.0000
  O   O38       1.0  0.6626912338037629  0.6475201599186063  0.7956089557623611  1.0000
  O   O39       1.0  0.33732243023096947  0.14751516644769674  0.7043956326382028  1.0000
  O   O40       1.0  0.16268095573503422  0.8524843424641161  0.20439571059952033  1.0000
  O   O41       1.0  0.48300790958501943  0.2924226958583418  0.2802082883209066  1.0000
  O   O42       1.0  0.016997198444265404  0.7075819068846128  0.7802140990222451  1.0000
  O   O43       1.0  0.9830106827813127  0.2075696148027361  0.7197870562084459  1.0000
  O   O44       1.0  0.5169847250397126  0.7924241095729414  0.21979264307776694  1.0000
  O   O45       1.0  0.48399360878340764  0.3644521722138379  0.16321021038523034  1.0000
  O   O46       1.0  0.016021425436449  0.6355511638169344  0.6632189205881642  1.0000
  O   O47       1.0  0.9839923399003965  0.13554921817288348  0.8367851350888242  1.0000
  O   O48       1.0  0.5160036905514787  0.8644475896547658  0.3367883747877868  1.0000
  O   O49       1.0  0.7104205791655006  0.06705995890104789  0.3137902812634507  1.0000
  O   O50       1.0  0.7895806032936717  0.9329396821894844  0.8137865295696468  1.0000
  O   O51       1.0  0.2104240516778688  0.4329334849562228  0.6862175462152746  1.0000
  O   O52       1.0  0.2895792375534397  0.5670633842810985  0.18621604284194854  1.0000
