data_image0
_chemical_formula_structural       Co2H16C16N12O8
_chemical_formula_sum              "Co2 H16 C16 N12 O8"
_cell_length_a       4.835363685074602
_cell_length_b       8.43572382217416
_cell_length_c       11.976024394664531
_cell_angle_alpha    91.35899402882924
_cell_angle_beta     90.00030266513268
_cell_angle_gamma    89.99943283276316

_space_group_name_H-M_alt    "P 1"
_space_group_IT_number       1

loop_
  _space_group_symop_operation_xyz
  'x, y, z'

loop_
  _atom_site_type_symbol
  _atom_site_label
  _atom_site_symmetry_multiplicity
  _atom_site_fract_x
  _atom_site_fract_y
  _atom_site_fract_z
  _atom_site_occupancy
  Co  Co1       1.0  0.49999977209468943  0.4999998226065898  0.9999996060642077  1.0000
  Co  Co2       1.0  0.9999991338841809  0.9999995482507913  0.49999987859873585  1.0000
  H   H1        1.0  0.4551130418451024  0.6823865761853227  0.49254831154498646  1.0000
  H   H2        1.0  0.9551165925154947  0.8176142148795762  0.007452671828026798  1.0000
  H   H3        1.0  0.5448861664791522  0.31761397253207235  0.5074511433838538  1.0000
  H   H4        1.0  0.044882615818863804  0.182385148069713  0.9925467628505801  1.0000
  H   H5        1.0  0.730520029165078  0.7542288957614575  0.6805612271598562  1.0000
  H   H6        1.0  0.2305234596428392  0.7457722496602557  0.8194398902919744  1.0000
  H   H7        1.0  0.269479179164641  0.2457716523294167  0.3194390627600399  1.0000
  H   H8        1.0  0.7694778167781848  0.2542282990513414  0.1805595646389691  1.0000
  H   H9        1.0  0.9116953030221853  0.3200536997941157  0.6870636676084702  1.0000
  H   H10       1.0  0.41169358132657413  0.1799469208460991  0.8129375525469558  1.0000
  H   H11       1.0  0.08830597341441403  0.6799456625228684  0.312936602063303  1.0000
  H   H12       1.0  0.5883076951045539  0.820052442097399  0.18706188213376151  1.0000
  H   H13       1.0  0.6549546607392217  0.45922777951965793  0.7324319063908789  1.0000
  H   H14       1.0  0.15495061373000854  0.04077309460802779  0.7675679348367268  1.0000
  H   H15       1.0  0.3450466156817953  0.5407727691919392  0.2675675485400646  1.0000
  H   H16       1.0  0.8450485946152925  0.9592262670882473  0.23243316982399165  1.0000
  C   C1        1.0  0.2817594931762529  0.6636394987497025  0.5483000068034087  1.0000
  C   C2        1.0  0.7817602584978617  0.8363601744222678  0.9517003599195987  1.0000
  C   C3        1.0  0.7182397151479948  0.3363610499676852  0.4516994481254245  1.0000
  C   C4        1.0  0.21823688173973474  0.16363918853281934  0.0482990747568977  1.0000
  C   C5        1.0  0.9147193897801317  0.7041051998172418  0.6427925022161105  1.0000
  C   C6        1.0  0.4147203802844288  0.7958937283255665  0.8572081357107494  1.0000
  C   C7        1.0  0.08528188665099629  0.2958941631262562  0.35720693246460666  1.0000
  C   C8        1.0  0.5852788280655048  0.2041044482291099  0.1427921137086869  1.0000
  C   C9        1.0  0.8781169482909659  0.43641462399644126  0.7282658347878411  1.0000
  C   C10       1.0  0.37811256165691287  0.0635873711990698  0.7717345021329224  1.0000
  C   C11       1.0  0.1218822600387526  0.5635859240944397  0.271734455132048  1.0000
  C   C12       1.0  0.6218887147796794  0.9364119911179147  0.22826576753885774  1.0000
  C   C13       1.0  0.9985657982045595  0.4303669377405086  0.8465993316616862  1.0000
  C   C14       1.0  0.49856803167559594  0.06963201034971432  0.6534020454407639  1.0000
  C   C15       1.0  0.0014334101352702002  0.5696324245822738  0.15340093800797663  1.0000
  C   C16       1.0  0.5014311766642336  0.930367351973068  0.3465982242288987  1.0000
  N   N1        1.0  0.004598961087239701  0.5554692848841541  0.6593003913239315  1.0000
  N   N2        1.0  0.5045964057740662  0.9445307555725294  0.840699389810041  1.0000
  N   N3        1.0  0.9954002472370151  0.4445312638332339  0.3406990636049088  1.0000
  N   N4        1.0  0.4954048706524219  0.055469792512553816  0.15930090011195833  1.0000
  N   N5        1.0  0.24020260096131096  0.5276046233946515  0.5998669737186831  1.0000
  N   N6        1.0  0.7402024097763303  0.9723952826402139  0.9001333082380967  1.0000
  N   N7        1.0  0.7597966073785188  0.4723947389281236  0.40013329595097963  1.0000
  N   N8        1.0  0.2597988666446867  0.0276052660713759  0.09986614669284682  1.0000
  N   N9        1.0  0.08561417566488669  0.7764906049814615  0.5725908902479518  1.0000
  N   N10       1.0  0.585616572828343  0.7235101660151386  0.9274107463733827  1.0000
  N   N11       1.0  0.914385032659368  0.22350994373592672  0.4274085646808814  1.0000
  N   N12       1.0  0.41438263550601573  0.27648919693415047  0.072588688305224  1.0000
  O   O1        1.0  0.834287370113131  0.3917596419445104  0.9238212799976538  1.0000
  O   O2        1.0  0.33430860740019597  0.10824497532249212  0.5761723281203004  1.0000
  O   O3        1.0  0.1657159744147663  0.6082397209931898  0.07617815468517361  1.0000
  O   O4        1.0  0.6656926690364032  0.8917543869944995  0.42382794155147263  1.0000
  O   O5        1.0  0.2558810714492239  0.4564045383226869  0.8570456878581539  1.0000
  O   O6        1.0  0.755878720005434  0.0435791607438887  0.6429657656064123  1.0000
  O   O7        1.0  0.7441202049873683  0.5435948239943045  0.1429545818136262  1.0000
  O   O8        1.0  0.24412255642105413  0.9564213873412014  0.3570345243155942  1.0000
