data_image0
_chemical_formula_structural       Cd4H44C56N12O18
_chemical_formula_sum              "Cd4 H44 C56 N12 O18"
_cell_length_a       10.319713146968336
_cell_length_b       10.928090431139093
_cell_length_c       13.940554582096766
_cell_angle_alpha    68.34279891940896
_cell_angle_beta     79.92329522578294
_cell_angle_gamma    83.3268507438322

_space_group_name_H-M_alt    "P 1"
_space_group_IT_number       1

loop_
  _space_group_symop_operation_xyz
  'x, y, z'

loop_
  _atom_site_type_symbol
  _atom_site_label
  _atom_site_symmetry_multiplicity
  _atom_site_fract_x
  _atom_site_fract_y
  _atom_site_fract_z
  _atom_site_occupancy
  Cd  Cd1       1.0  0.45574736746500116  0.5562663250233654  0.36113841778664124  1.0000
  Cd  Cd2       1.0  0.5442536841572476  0.443733164285355  0.6388636665163787  1.0000
  Cd  Cd3       1.0  0.5587974021560385  0.4925110174733405  0.13047475572287232  1.0000
  Cd  Cd4       1.0  0.4412046267757431  0.5074884832589531  0.8695257617858091  1.0000
  H   H1        1.0  0.3883358635762804  0.0535807080674573  0.09907034432301033  1.0000
  H   H2        1.0  0.6116632766501908  0.9464177902715392  0.9009315588052471  1.0000
  H   H3        1.0  0.3912795469021191  0.16339522258080308  0.22918123992652542  1.0000
  H   H4        1.0  0.6087195933243592  0.8366032757581932  0.7708206632017253  1.0000
  H   H5        1.0  0.45405379818343755  0.02564677983402669  0.4054763574830674  1.0000
  H   H6        1.0  0.5459472501190064  0.9743527130764066  0.5945250088847588  1.0000
  H   H7        1.0  0.15577973871546646  0.5896405556794732  0.27739867622769043  1.0000
  H   H8        1.0  0.8442232841248795  0.4103589384678441  0.722603864162629  1.0000
  H   H9        1.0  0.9283264944901433  0.688754580376461  0.3706701690197677  1.0000
  H   H10       1.0  0.07167467013712782  0.3112429438734167  0.6293310292379246  1.0000
  H   H11       1.0  0.2296741512421859  0.5973058451316716  0.562941291865478  1.0000
  H   H12       1.0  0.7703244572230332  0.40270152118409885  0.4370595729203899  1.0000
  H   H13       1.0  0.9922163958062311  0.6631414742823054  0.636967650989817  1.0000
  H   H14       1.0  0.007780656877322699  0.3368589878786565  0.363033964161275  1.0000
  H   H15       1.0  0.8677342400195727  0.6992726839647787  0.557680329652193  1.0000
  H   H16       1.0  0.13226465759781547  0.3007297625004526  0.44231975589074324  1.0000
  H   H17       1.0  0.8336502829972686  0.8818616756200937  0.6473857658120681  1.0000
  H   H18       1.0  0.1663477503156159  0.11813879436272859  0.3526150004798865  1.0000
  H   H19       1.0  0.14545477353023983  0.8800883656016366  0.39801155006013994  1.0000
  H   H20       1.0  0.8545432597826517  0.11991210438117857  0.6019892162318072  1.0000
  H   H21       1.0  0.004398717735575998  0.6818219103177867  0.15376453071195328  1.0000
  H   H22       1.0  0.9956072303937445  0.3181776253036686  0.8462318734249692  1.0000
  H   H23       1.0  0.11196434482424421  0.7175392955729833  0.9696820992534044  1.0000
  H   H24       1.0  0.888037664188694  0.28246022676957233  0.030314110644120294  1.0000
  H   H25       1.0  0.9797331463953542  0.6840408559389528  0.8462896189458462  1.0000
  H   H26       1.0  0.020266718572152297  0.3159616127549896  0.1537067459971766  1.0000
  H   H27       1.0  0.735452878156856  0.27777598141962295  0.3132861004792248  1.0000
  H   H28       1.0  0.26454920727743303  0.7222225367832563  0.6867139740067999  1.0000
  H   H29       1.0  0.8209173601321494  0.0218534552926926  0.32275548115173797  1.0000
  H   H30       1.0  0.17908374135299704  0.9781450586900244  0.6772447242582302  1.0000
  H   H31       1.0  0.6271827214789452  0.21304894209806946  0.05739359421357905  1.0000
  H   H32       1.0  0.37281832350369354  0.7869505544140765  0.9426070542190531  1.0000
  H   H33       1.0  0.6753570649236664  0.9643586613627233  0.1135650716231211  1.0000
  H   H34       1.0  0.3246381395062343  0.03563982009566049  0.8864373552009256  1.0000
  H   H35       1.0  0.7661995833034894  0.8819727237858856  0.21931415620942113  1.0000
  H   H36       1.0  0.23379948714124768  0.1180267714893688  0.7806853182007174  1.0000
  H   H37       1.0  0.014854236409718209  0.9290923079490337  0.18923660849101526  1.0000
  H   H38       1.0  0.9851418755479742  0.07090718186918818  0.810761822820588  1.0000
  H   H39       1.0  0.7807581934725577  0.042831536336855394  0.9399574515324289  1.0000
  H   H40       1.0  0.2192359472670375  0.9571679486427693  0.06004052369187464  1.0000
  H   H41       1.0  0.33360706266707035  0.38543771120180276  0.26713733491821057  1.0000
  H   H42       1.0  0.6663939789957566  0.6145617889120558  0.7328625955792277  1.0000
  H   H43       1.0  0.43233159363680335  0.30728292281989406  0.35590551954732064  1.0000
  H   H44       1.0  0.5676685272190055  0.6927155833409626  0.6440955347217852  1.0000
  C   C1        1.0  0.43421116531075643  0.787648144991813  0.13392217632495124  1.0000
  C   C2        1.0  0.5657879749157217  0.2123503533471833  0.8660797268032993  1.0000
  C   C3        1.0  0.4311325625372787  0.8603182513686959  0.2089121222585107  1.0000
  C   C4        1.0  0.568867438673898  0.13968222705442193  0.7910883821855422  1.0000
  C   C5        1.0  0.4058241776596104  0.9969403437299815  0.17863727140378677  1.0000
  C   C6        1.0  0.5941749592470628  0.0030581582107273996  0.821363913789277  1.0000
  C   C7        1.0  0.4110603234493269  0.057230599163794686  0.2503111821762261  1.0000
  C   C8        1.0  0.5889397409039745  0.9427688895264904  0.7496903151155437  1.0000
  C   C9        1.0  0.445298442000535  0.9814809392752009  0.3485771910577072  1.0000
  C   C10       1.0  0.5547016821750786  0.018517563283950298  0.6514245811465929  1.0000
  C   C11       1.0  0.4686601554656206  0.8455217098079613  0.3727594968525382  1.0000
  C   C12       1.0  0.5313408928368232  0.1544777831024717  0.6272418695152879  1.0000
  C   C13       1.0  0.5044162666881035  0.7545992837376045  0.4776063393245737  1.0000
  C   C14       1.0  0.49558478161434044  0.24540020917282843  0.5223950270432525  1.0000
  C   C15       1.0  0.13730908212879459  0.6083414101462452  0.3499563819035174  1.0000
  C   C16       1.0  0.8626928969400893  0.39165906591205857  0.6500460144982158  1.0000
  C   C17       1.0  0.02521891748993711  0.659294342950808  0.3946428121272732  1.0000
  C   C18       1.0  0.974783174583969  0.3407041680486457  0.6053586982291322  1.0000
  C   C19       1.0  0.1805209666504695  0.6100604313926608  0.496819169083615  1.0000
  C   C20       1.0  0.8194799719667571  0.38994102297490935  0.5031838012647328  1.0000
  C   C21       1.0  0.9705473206532671  0.7171919020152371  0.5570969560935808  1.0000
  C   C22       1.0  0.029451699928571905  0.2828085685860201  0.4429043972096167  1.0000
  C   C23       1.0  0.9874509212628552  0.8635985292375209  0.5260795342040225  1.0000
  C   C24       1.0  0.012547175192160902  0.1364009510124546  0.4739222249356487  1.0000
  C   C25       1.0  0.9068213262334196  0.9334535929031912  0.5824906490003772  1.0000
  C   C26       1.0  0.09317775749054388  0.06654588796522629  0.41751169715053754  1.0000
  C   C27       1.0  0.08092149934108052  0.9318648201198412  0.44321731402257575  1.0000
  C   C28       1.0  0.9190775212407516  0.06813565048141608  0.5567840392806149  1.0000
  C   C29       1.0  0.7544546759819822  0.6004849318253632  0.24000426783090495  1.0000
  C   C30       1.0  0.2455482106146931  0.39951655259277163  0.7599941330583776  1.0000
  C   C31       1.0  0.8247969454409086  0.6224550246173164  0.13002934858823084  1.0000
  C   C32       1.0  0.1752058780136423  0.37754744953365815  0.8699680594533349  1.0000
  C   C33       1.0  0.9531244856462422  0.6651975294080116  0.09823901646269219  1.0000
  C   C34       1.0  0.046878331168692  0.33480495194638127  0.9017569557084856  1.0000
  C   C35       1.0  0.011411921969816805  0.6862367242815849  0.9958930921437811  1.0000
  C   C36       1.0  0.9885899075761626  0.31376575645436583  0.004102293016146085  1.0000
  C   C37       1.0  0.939214996084857  0.6672759287050595  0.9272963017395881  1.0000
  C   C38       1.0  0.0607858627912137  0.33272653340389974  0.0727020860850658  1.0000
  C   C39       1.0  0.8117822476719069  0.6237065860549649  0.9647120926356364  1.0000
  C   C40       1.0  0.1882186045645398  0.3762958832574199  0.035284859318629506  1.0000
  C   C41       1.0  0.7289940531775512  0.5981485257712932  0.895052638222275  1.0000
  C   C42       1.0  0.27100594471381356  0.4018519562535373  0.10494714828658398  1.0000
  C   C43       1.0  0.7282418439502151  0.22721157832270222  0.260805299631528  1.0000
  C   C44       1.0  0.2717593140374461  0.7727859531305936  0.7391944627557835  1.0000
  C   C45       1.0  0.770177330250135  0.10088144591670557  0.26642865607950483  1.0000
  C   C46       1.0  0.2298227307833614  0.8991180463752854  0.733572123277078  1.0000
  C   C47       1.0  0.6695842178635801  0.20063996498365808  0.12709784726952478  1.0000
  C   C48       1.0  0.33041584316990935  0.7993595273083329  0.8729029320870509  1.0000
  C   C49       1.0  0.7595843376933048  0.9707590510423568  0.14945239891515183  1.0000
  C   C50       1.0  0.24041282799526434  0.029239446059747792  0.8505483301906125  1.0000
  C   C51       1.0  0.8843739176046412  0.9839276969118413  0.07252283686341353  1.0000
  C   C52       1.0  0.11562213121091959  0.016072782639220396  0.9274746016004656  1.0000
  C   C53       1.0  0.008025923571501923  0.9608588573252913  0.10615453605073102  1.0000
  C   C54       1.0  0.9919691977974309  0.03914063547619409  0.8938425903144349  1.0000
  C   C55       1.0  0.8773007094063628  0.0232536531258489  0.9658847127375765  1.0000
  C   C56       1.0  0.12269447510469432  0.9767448499427969  0.03411340647531348  1.0000
  N   N1        1.0  0.4591918125378597  0.7877301304072116  0.30466514535068984  1.0000
  N   N2        1.0  0.5408092955869036  0.21226837637209423  0.6953364959296666  1.0000
  N   N3        1.0  0.7575305497212952  0.6009014514483865  0.0641693334659976  1.0000
  N   N4        1.0  0.24247129310391094  0.39910101488073474  0.9358289234347126  1.0000
  N   N5        1.0  0.23303253151721046  0.5780025514795638  0.41447977309960043  1.0000
  N   N6        1.0  0.7669712924855148  0.42199990888301636  0.5855210936939842  1.0000
  N   N7        1.0  0.054209089839133605  0.6590451766192088  0.48788403739876435  1.0000
  N   N8        1.0  0.9457909180116528  0.3409552946004978  0.5121179029156693  1.0000
  N   N9        1.0  0.6660865409473615  0.28802909259769643  0.17366369003636356  1.0000
  N   N10       1.0  0.3339145007154656  0.7119704075161621  0.8263362404610745  1.0000
  N   N11       1.0  0.7319553258493272  0.08582884615456268  0.18149127482654145  1.0000
  N   N12       1.0  0.26804473186435734  0.9141706497391335  0.8185087865948476  1.0000
  O   O1        1.0  0.49526140788157846  0.6312237038241121  0.49841722011688466  1.0000
  O   O2        1.0  0.5047396969233802  0.3687748065568996  0.5015837032282775  1.0000
  O   O3        1.0  0.5385242060342534  0.8057749127283953  0.5362072314046955  1.0000
  O   O4        1.0  0.46147788271984064  0.19422360187277118  0.46379356101652297  1.0000
  O   O5        1.0  0.4340778606320371  0.6610069339135478  0.17520779165521827  1.0000
  O   O6        1.0  0.5659212164523169  0.3389925541582883  0.8247931186253085  1.0000
  O   O7        1.0  0.43766030367840597  0.8550181814385525  0.0392491755500756  1.0000
  O   O8        1.0  0.56233779277661  0.14498129881142316  0.9607525835896029  1.0000
  O   O9        1.0  0.6637374862876584  0.5166897628849794  0.27327378944672637  1.0000
  O   O10       1.0  0.3362644130400625  0.4833117209147131  0.726724024431313  1.0000
  O   O11       1.0  0.7886139502198899  0.6639788694775246  0.2887883533608005  1.0000
  O   O12       1.0  0.21138899619909776  0.33602162880948316  0.7112103224410193  1.0000
  O   O13       1.0  0.6154747993050548  0.5535557607410337  0.9383722646707255  1.0000
  O   O14       1.0  0.3845262423577792  0.44644373937281756  0.06162766582671959  1.0000
  O   O15       1.0  0.7773948988291223  0.623348390363546  0.8005952976881119  1.0000
  O   O16       1.0  0.2226061926966096  0.37665013442430245  0.19940275391628154  1.0000
  O   O17       1.0  0.4154379704133858  0.3909366169510945  0.2950878597543749  1.0000
  O   O18       1.0  0.5845620939399083  0.6090628717391907  0.7049136375374021  1.0000
