data_image0
_chemical_formula_structural       Co12H148C164N8O66
_chemical_formula_sum              "Co12 H148 C164 N8 O66"
_cell_length_a       16.433663371008137
_cell_length_b       16.60838034698894
_cell_length_c       23.07273027790202
_cell_angle_alpha    92.14849220825334
_cell_angle_beta     89.99997558488987
_cell_angle_gamma    119.6529134176921

_space_group_name_H-M_alt    "P 1"
_space_group_IT_number       1

loop_
  _space_group_symop_operation_xyz
  'x, y, z'

loop_
  _atom_site_type_symbol
  _atom_site_label
  _atom_site_symmetry_multiplicity
  _atom_site_fract_x
  _atom_site_fract_y
  _atom_site_fract_z
  _atom_site_occupancy
  Co  Co1       1.0  0.48455928557449823  0.40405997677305555  0.9627405642695309  1.0000
  Co  Co2       1.0  0.08050154622763722  0.5959504653957594  0.5372602735632342  1.0000
  Co  Co3       1.0  0.5154444154642093  0.5959495177366279  0.03726208725396421  1.0000
  Co  Co4       1.0  0.9195054535129614  0.40406319244400635  0.4627420660360499  1.0000
  Co  Co5       1.0  0.5945000531713731  0.40955582828789255  0.8446762144043306  1.0000
  Co  Co6       1.0  0.18494293862192984  0.5904453951008504  0.6553182549593757  1.0000
  Co  Co7       1.0  0.4054995933392078  0.5904419062479321  0.1553208929724121  1.0000
  Co  Co8       1.0  0.8150539319893113  0.4095516556990689  0.3446770988065212  1.0000
  Co  Co9       1.0  0.5341692226151267  0.584483096302364  0.8704585977818909  1.0000
  Co  Co10      1.0  0.94969085958067  0.4155124481334056  0.6295434033418275  1.0000
  Co  Co11      1.0  0.4658239762474778  0.41551391308976804  0.1295441228270207  1.0000
  Co  Co12      1.0  0.05031824178541195  0.584485940899043  0.3704606577685752  1.0000
  H   H1        1.0  0.6249423681696697  0.5321235332645742  0.9271885462161367  1.0000
  H   H2        1.0  0.09282193942058836  0.4678756536755346  0.5728102069741327  1.0000
  H   H3        1.0  0.37505092663958106  0.467874885017288  0.07281031477310053  1.0000
  H   H4        1.0  0.9071826516001096  0.5321234507687862  0.4271899742807507  1.0000
  H   H5        1.0  0.7025714149301976  0.6957126754830512  0.8185592943757243  1.0000
  H   H6        1.0  0.006852870357697315  0.3042844280717034  0.6814415663237625  1.0000
  H   H7        1.0  0.2974334378521561  0.30428573547802523  0.1814408666424399  1.0000
  H   H8        1.0  0.9931434608944156  0.6957139780268304  0.3185594613832663  1.0000
  H   H9        1.0  0.7127219633602379  0.6134994997619854  0.8430700677988485  1.0000
  H   H10       1.0  0.09922015195540719  0.38649681373848205  0.6569277208088238  1.0000
  H   H11       1.0  0.28727672546229843  0.3864975364199665  0.1569278860287255  1.0000
  H   H12       1.0  0.9007791417194255  0.6135002151348276  0.3430715330496454  1.0000
  H   H13       1.0  0.7850579979978891  0.33683948555358256  0.9307016941784739  1.0000
  H   H14       1.0  0.4482248385484837  0.6631667558999795  0.569297622184422  1.0000
  H   H15       1.0  0.21493885483862843  0.6631623977031255  0.0692977013371632  1.0000
  H   H16       1.0  0.5517781899318805  0.3368316574991114  0.43070210549039706  1.0000
  H   H17       1.0  0.841274885417427  0.23351971586168213  0.9700889551150669  1.0000
  H   H18       1.0  0.6077629521929424  0.7664932261663395  0.5299096580992357  1.0000
  H   H19       1.0  0.15873221586314668  0.7664904940511194  0.029909816551480613  1.0000
  H   H20       1.0  0.3922417169996919  0.23351211962449983  0.47009070528569924  1.0000
  H   H21       1.0  0.5842218607529688  0.0859684167486847  0.061969179892926704  1.0000
  H   H22       1.0  0.4982540854211735  0.9140384768455762  0.43802878788806526  1.0000
  H   H23       1.0  0.41578629438569686  0.9140341648504344  0.9380293691700105  1.0000
  H   H24       1.0  0.5017415430930897  0.0859633917965397  0.5619732076897962  1.0000
  H   H25       1.0  0.5307739369476607  0.19335956899833917  0.025301214950843604  1.0000
  H   H26       1.0  0.33741932289790805  0.806641296384676  0.4747009426997978  1.0000
  H   H27       1.0  0.46922308535828  0.8066402191933623  0.9747007199167401  1.0000
  H   H28       1.0  0.662583511750242  0.1933591633596166  0.5253049124964309  1.0000
  H   H29       1.0  0.6069103315828952  0.88408472709672  0.88615763309398  1.0000
  H   H30       1.0  0.7228125005336707  0.11590477118682681  0.6138398802020505  1.0000
  H   H31       1.0  0.39308507459695363  0.11589844186574538  0.11383948265703481  1.0000
  H   H32       1.0  0.27717724184163484  0.8840853253035024  0.3861587379477315  1.0000
  H   H33       1.0  0.6659060652508944  0.0426048561107208  0.9314309714043817  1.0000
  H   H34       1.0  0.6232993443131748  0.9573895487680416  0.5685653908090273  1.0000
  H   H35       1.0  0.3340886467180796  0.957381792447251  0.06856407881178943  1.0000
  H   H36       1.0  0.37669656739188184  0.0426068012420089  0.43143124275137273  1.0000
  H   H37       1.0  0.7493988112533072  0.9592386338033944  0.08475423364280492  1.0000
  H   H38       1.0  0.7901583366440974  0.0407656556946421  0.4152466245759571  1.0000
  H   H39       1.0  0.25060439400530754  0.040757699146624304  0.9152454333219567  1.0000
  H   H40       1.0  0.20983625335051667  0.9592390039323887  0.5847524185431184  1.0000
  H   H41       1.0  0.6863001436297652  0.7992708714994733  0.039252451932554805  1.0000
  H   H42       1.0  0.887026522770775  0.2007306066390768  0.4607483192622369  1.0000
  H   H43       1.0  0.31369793862496914  0.20072130055849163  0.9607470936130869  1.0000
  H   H44       1.0  0.11296546882351766  0.7992664222423256  0.5392509345975541  1.0000
  H   H45       1.0  0.2080747420255875  0.21070236680503027  0.8986678188012506  1.0000
  H   H46       1.0  0.9973585914399693  0.7892844806841454  0.6013322359776511  1.0000
  H   H47       1.0  0.7919285545305145  0.7892856297334702  0.10133420538540612  1.0000
  H   H48       1.0  0.0026360898521317873  0.21071184253136718  0.39866916436331945  1.0000
  H   H49       1.0  0.0622836186134137  0.082320644299692  0.8491737118111402  1.0000
  H   H50       1.0  0.9799509911833796  0.9176719368026552  0.6508256675436145  1.0000
  H   H51       1.0  0.9377200972663574  0.9176791438845839  0.15082822305524252  1.0000
  H   H52       1.0  0.020042386172995898  0.0823278635730489  0.34917410060629095  1.0000
  H   H53       1.0  0.22831200760580833  0.07552539189850901  0.7067694126349838  1.0000
  H   H54       1.0  0.15277484567803157  0.9244720974853919  0.7932276070602031  1.0000
  H   H55       1.0  0.7716942431200241  0.9244758149167681  0.2932269292366102  1.0000
  H   H56       1.0  0.8472140965712428  0.07552978578007698  0.20677178845685526  1.0000
  H   H57       1.0  0.3734823819451805  0.20017564707759314  0.7579762731775619  1.0000
  H   H58       1.0  0.17329945147582038  0.7998237318029949  0.7420220774396284  1.0000
  H   H59       1.0  0.6265210843543304  0.7998248589498402  0.24202134848886206  1.0000
  H   H60       1.0  0.8266937454478765  0.20017814171379913  0.2579790514513363  1.0000
  H   H61       1.0  0.24558367687504995  0.5551767997701942  0.9076108870126021  1.0000
  H   H62       1.0  0.6903880155905427  0.4448159015421993  0.5923880781219213  1.0000
  H   H63       1.0  0.7544251761289118  0.4448223095413866  0.0923884275541766  1.0000
  H   H64       1.0  0.30959816438231513  0.555175589225968  0.4076092804708439  1.0000
  H   H65       1.0  0.08634929126766618  0.5037860073914686  0.9481360260975437  1.0000
  H   H66       1.0  0.5825587047159007  0.49621461822732743  0.5518632097020914  1.0000
  H   H67       1.0  0.9136517458775587  0.49621450838262154  0.051859862194646715  1.0000
  H   H68       1.0  0.41743668468398454  0.5037831211852009  0.44813303098808194  1.0000
  H   H69       1.0  0.11453446314974511  0.3093690479947639  0.05254952328579781  1.0000
  H   H70       1.0  0.8051600614866175  0.6906165377868589  0.4474461130783141  1.0000
  H   H71       1.0  0.8854594623161206  0.6906196785769508  0.9474460209842094  1.0000
  H   H72       1.0  0.19483524608691025  0.30937495297118284  0.5525512455128094  1.0000
  H   H73       1.0  0.2739932912778614  0.3610444256891583  0.012480406152555202  1.0000
  H   H74       1.0  0.9129393747748936  0.6389450126230116  0.48751747025686154  1.0000
  H   H75       1.0  0.7260053125612842  0.6389512235269735  0.9875175072016945  1.0000
  H   H76       1.0  0.0870540130473572  0.3610499406799619  0.5124808562053148  1.0000
  H   H77       1.0  0.1366232196958848  0.5639631765365464  0.19127581736011487  1.0000
  H   H78       1.0  0.5726521723840534  0.43603370408168723  0.30872624746987753  1.0000
  H   H79       1.0  0.8633823246376836  0.4360414855143375  0.8087227924133202  1.0000
  H   H80       1.0  0.42734745635181076  0.5639688629109332  0.6912749016565984  1.0000
  H   H81       1.0  0.15258940010154726  0.5123334173120425  0.0917897232312015  1.0000
  H   H82       1.0  0.6402545609217541  0.48766683809967754  0.4082124277428819  1.0000
  H   H83       1.0  0.8474124082083423  0.48766985777707106  0.9082088460695559  1.0000
  H   H84       1.0  0.3597504574522148  0.5123392060457165  0.5917870891913354  1.0000
  H   H85       1.0  0.8578477274934143  0.3093021295877278  0.08701000146810862  1.0000
  H   H86       1.0  0.5485459828961723  0.6906932629886101  0.4129958177624431  1.0000
  H   H87       1.0  0.14215198572847493  0.690696955374065  0.9129936465369897  1.0000
  H   H88       1.0  0.4514546831412077  0.3093065105830989  0.5870087171664977  1.0000
  H   H89       1.0  0.8441507382217992  0.3616804822764053  0.1885571565409592  1.0000
  H   H90       1.0  0.48246799965648535  0.6383191644864042  0.31144793177887214  1.0000
  H   H91       1.0  0.15585331880970432  0.6383248562071414  0.8114445068750912  1.0000
  H   H92       1.0  0.5175316217705443  0.3616833878902669  0.6885558174096149  1.0000
  H   H93       1.0  0.6955891044510878  0.2847807920417084  0.8299310264907194  1.0000
  H   H94       1.0  0.4108188688591454  0.7152207283420183  0.6700694710792876  1.0000
  H   H95       1.0  0.30440627204663423  0.7152217895715722  0.17006752257452012  1.0000
  H   H96       1.0  0.5891876338832277  0.28477976550208695  0.32993031730492833  1.0000
  H   H97       1.0  0.6163125342836511  0.2763305221621479  0.6822865927813596  1.0000
  H   H98       1.0  0.3399857987017397  0.7236732742728975  0.8177087923888919  1.0000
  H   H99       1.0  0.38369118331164037  0.723674137454765  0.31771245033606743  1.0000
  H   H100      1.0  0.6600161949133893  0.2763279374190759  0.18228668279613205  1.0000
  H   H101      1.0  0.6757437469065977  0.21711398756367117  0.6546403714168607  1.0000
  H   H102      1.0  0.4586308340058736  0.7828916481056893  0.8453628426022349  1.0000
  H   H103      1.0  0.32426204700722383  0.7828899566440554  0.3453625515565336  1.0000
  H   H104      1.0  0.5413681789144392  0.2171109042716566  0.1546409065863656  1.0000
  H   H105      1.0  0.7381300408806342  0.33942201367415237  0.6651380271171163  1.0000
  H   H106      1.0  0.3987094380627882  0.6605808599474231  0.8348625054496851  1.0000
  H   H107      1.0  0.26187393238561185  0.660581940279556  0.3348631624819377  1.0000
  H   H108      1.0  0.6012912413741205  0.33941894042018106  0.16513726269890583  1.0000
  H   H109      1.0  0.7767833265710493  0.22261740509657807  0.7971789995155306  1.0000
  H   H110      1.0  0.5541749965045852  0.7773907914975311  0.702823393385053  1.0000
  H   H111      1.0  0.22321785545741324  0.7773907024499919  0.2028236115350737  1.0000
  H   H112      1.0  0.4458340973292679  0.2226173184762601  0.2971787843204582  1.0000
  H   H113      1.0  0.8355008031618639  0.27151320317901195  0.7314022716450951  1.0000
  H   H114      1.0  0.564001106549064  0.7284976986861976  0.7685988898358431  1.0000
  H   H115      1.0  0.16449925049099787  0.728496298642696  0.26859907984805187  1.0000
  H   H116      1.0  0.43600998520800255  0.27151319008918756  0.2314025021286668  1.0000
  H   H117      1.0  0.7375589008514398  0.1567251647526007  0.7297932254523474  1.0000
  H   H118      1.0  0.5808477603736152  0.8432830579328081  0.770207002988734  1.0000
  H   H119      1.0  0.26243924473416064  0.8432829549772906  0.2702072188804579  1.0000
  H   H120      1.0  0.41916211996335306  0.15672297402723256  0.22979468066294126  1.0000
  H   H121      1.0  0.726084050574805  0.48066355930372856  0.7441797028522714  1.0000
  H   H122      1.0  0.24542451080514377  0.5193353415328089  0.7558198713606574  1.0000
  H   H123      1.0  0.2739133209124773  0.5193369272425272  0.2558213855645874  1.0000
  H   H124      1.0  0.7545772095876941  0.4806616727218653  0.24418198255938964  1.0000
  H   H125      1.0  0.8757972058933063  0.6730088494712447  0.8419027199414872  1.0000
  H   H126      1.0  0.20279860901095495  0.3270017194518572  0.6580976123667882  1.0000
  H   H127      1.0  0.12420120217471717  0.3269937102147508  0.1580997292162181  1.0000
  H   H128      1.0  0.7972051056506757  0.6729980662964296  0.3419047558432595  1.0000
  H   H129      1.0  0.9128846250148541  0.7511819095429431  0.7834364874687058  1.0000
  H   H130      1.0  0.16170775652738462  0.24881757539795044  0.7165622217422509  1.0000
  H   H131      1.0  0.0871125691967904  0.24881578845572958  0.21656712006350184  1.0000
  H   H132      1.0  0.8382946592944691  0.7511759616972001  0.28344126436896744  1.0000
  H   H133      1.0  0.9738759762767588  0.6904878154193669  0.7993803123238196  1.0000
  H   H134      1.0  0.2833988023531759  0.3095190953622265  0.7006185866144108  1.0000
  H   H135      1.0  0.026122087482491455  0.30951405565603807  0.20062124990993627  1.0000
  H   H136      1.0  0.7166060455566168  0.6904793058548934  0.2993833077784204  1.0000
  H   H137      1.0  0.8169876646748904  0.549739194496169  0.6746355906905067  1.0000
  H   H138      1.0  0.2672472763808003  0.4502581700768502  0.825368256199127  1.0000
  H   H139      1.0  0.18301291759723168  0.45025919454571545  0.32536847042143086  1.0000
  H   H140      1.0  0.7327549582876146  0.5497423067200415  0.17463456559153206  1.0000
  H   H141      1.0  0.9366986085334404  0.6159318046298239  0.6957284199624995  1.0000
  H   H142      1.0  0.3207655008906086  0.3840667573505456  0.8042750028819087  1.0000
  H   H143      1.0  0.06330067052372361  0.38406519501160125  0.304276034019992  1.0000
  H   H144      1.0  0.6792345566400542  0.6159330162218382  0.19572953204713886  1.0000
  H   H145      1.0  0.873230303043954  0.6738906365250373  0.6793645466198373  1.0000
  H   H146      1.0  0.19934053178249664  0.32610745881849823  0.8206349891689088  1.0000
  H   H147      1.0  0.12677036908412018  0.32610914922662454  0.3206378215907577  1.0000
  H   H148      1.0  0.8006632654262519  0.6738937090236308  0.17936828620181444  1.0000
  C   C1        1.0  0.6175922364929818  0.3292349520848106  0.9505889536781142  1.0000
  C   C2        1.0  0.2883601826054871  0.6707605929704528  0.5494035976504607  1.0000
  C   C3        1.0  0.3824017744536549  0.6707600304493725  0.04940417265994061  1.0000
  C   C4        1.0  0.711640266244025  0.3292350952195092  0.4505873822047661  1.0000
  C   C5        1.0  0.653987740044343  0.2707339132107762  0.9753153493500408  1.0000
  C   C6        1.0  0.38325713105007964  0.7292635740863603  0.5246759390297201  1.0000
  C   C7        1.0  0.3460095659497642  0.7292652253455005  0.024678765094805013  1.0000
  C   C8        1.0  0.6167435759066678  0.2707314133123759  0.47531632061978973  1.0000
  C   C9        1.0  0.7414627975280157  0.2821683140744966  0.9596698710197558  1.0000
  C   C10       1.0  0.4592953107190708  0.7178269212916105  0.5403195938489135  1.0000
  C   C11       1.0  0.2585346026972387  0.7178273619388803  0.040323275554364116  1.0000
  C   C12       1.0  0.5407014101363713  0.282162527991865  0.45967077053324357  1.0000
  C   C13       1.0  0.7728767604021768  0.22466582696210927  0.981106316200979  1.0000
  C   C14       1.0  0.5482132846583242  0.7753299612118525  0.5188844472800227  1.0000
  C   C15       1.0  0.22711933660811215  0.7753284596508081  0.01888722324369501  1.0000
  C   C16       1.0  0.4517865551870983  0.22466085798213695  0.48110899098060145  1.0000
  C   C17       1.0  0.7149590458822459  0.15413758358086943  0.017329926841569004  1.0000
  C   C18       1.0  0.560826471640361  0.8458601121526497  0.4826621096063307  1.0000
  C   C19       1.0  0.2850367043829891  0.8458560095494789  0.9826635923664854  1.0000
  C   C20       1.0  0.43917509827591766  0.15413416714623196  0.5173327298683574  1.0000
  C   C21       1.0  0.6279871511995694  0.14209210376112943  0.033842605997527614  1.0000
  C   C22       1.0  0.48589940202710846  0.8579113022210764  0.4661526548853275  1.0000
  C   C23       1.0  0.3720144956704986  0.857908414448275  0.9661528489508842  1.0000
  C   C24       1.0  0.5141014627150398  0.1420864347493946  0.53384401914753  1.0000
  C   C25       1.0  0.598318903797086  0.20124466204330096  0.013268697959226503  1.0000
  C   C26       1.0  0.3970775041495855  0.7987505705211932  0.48672330800174995  1.0000
  C   C27       1.0  0.4016768323478532  0.7987537708518034  0.9867275629675589  1.0000
  C   C28       1.0  0.6029226860953115  0.2012409494633403  0.5132688504644848  1.0000
  C   C29       1.0  0.6017198621952033  0.7359759445821794  0.934318265659009  1.0000
  C   C30       1.0  0.8657454708124916  0.26401889530946926  0.5656889183025058  1.0000
  C   C31       1.0  0.39827055661626076  0.264015504769425  0.06568645977534972  1.0000
  C   C32       1.0  0.1342552821471869  0.7359774011033976  0.4343172488177134  1.0000
  C   C33       1.0  0.6417758377433388  0.8313555317931928  0.9602862072623424  1.0000
  C   C34       1.0  0.8104165918966403  0.16864420620242984  0.5397163543241135  1.0000
  C   C35       1.0  0.35821998117211246  0.1686345476384616  0.0397154442920211  1.0000
  C   C36       1.0  0.18957712611408786  0.8313562754758833  0.4602856007807432  1.0000
  C   C37       1.0  0.6375080379374508  0.900778646998056  0.929876165378488  1.0000
  C   C38       1.0  0.7367247819562195  0.0992184156504408  0.5701241625728032  1.0000
  C   C39       1.0  0.3624932660653784  0.09921144947945489  0.0701224527692119  1.0000
  C   C40       1.0  0.2632702509534894  0.9007786107915976  0.4298755246301056  1.0000
  C   C41       1.0  0.6705794615401288  0.9893099538128637  0.9549295659502733  1.0000
  C   C42       1.0  0.6812669223914014  0.01068575155319  0.5450698588690699  1.0000
  C   C43       1.0  0.32941654024427436  0.010678057349679197  0.045069858175693915  1.0000
  C   C44       1.0  0.318727676353582  0.9893091895684736  0.45493063431123204  1.0000
  C   C45       1.0  0.7101885917952443  0.009407453355755999  0.011052140732822102  1.0000
  C   C46       1.0  0.7007831902446782  0.990592136456179  0.48894643225153805  1.0000
  C   C47       1.0  0.2898093197719264  0.9905868113312266  0.9889452988045309  1.0000
  C   C48       1.0  0.2992114145909923  0.009402816845444296  0.5110518942104179  1.0000
  C   C49       1.0  0.7177118832921113  0.9418425166139246  0.04133203673430332  1.0000
  C   C50       1.0  0.7758718890497678  0.05816043687173079  0.4586687892846372  1.0000
  C   C51       1.0  0.28228819810397  0.058152436681624  0.958666289726672  1.0000
  C   C52       1.0  0.22412035384030557  0.9418407455991512  0.5413318860261569  1.0000
  C   C53       1.0  0.6832158791859441  0.8534765907296984  0.015977904988240307  1.0000
  C   C54       1.0  0.829738482435438  0.1465263315430434  0.4840246509193663  1.0000
  C   C55       1.0  0.31678106738434053  0.1465169609874621  0.9840229810619548  1.0000
  C   C56       1.0  0.17025219669615413  0.8534741574466125  0.5159760041550286  1.0000
  C   C57       1.0  0.3874794710291027  0.28286768660923656  0.8622248889858071  1.0000
  C   C58       1.0  0.10460951422977866  0.717137308060522  0.6377723333364785  1.0000
  C   C59       1.0  0.612527648746962  0.7171328242861251  0.13777186599261884  1.0000
  C   C60       1.0  0.8953853399627718  0.28286666295524293  0.36222582285853383  1.0000
  C   C61       1.0  0.2996085244508678  0.2110826838707283  0.8318580506857528  1.0000
  C   C62       1.0  0.0885208380478274  0.7889189707854596  0.6681369224437506  1.0000
  C   C63       1.0  0.7003968628180534  0.7889143620477698  0.16813816976595322  1.0000
  C   C64       1.0  0.9114700190801629  0.21107944019112074  0.331863238576922  1.0000
  C   C65       1.0  0.21177865413989855  0.17989869250689597  0.8569018191700908  1.0000
  C   C66       1.0  0.03186869854840071  0.8200982508499665  0.6430960717098417  1.0000
  C   C67       1.0  0.7882297634811906  0.8200983290483208  0.1430987347177464  1.0000
  C   C68       1.0  0.9681196334786436  0.17989876098355506  0.356906215556279  1.0000
  C   C69       1.0  0.130717842730391  0.109629523141507  0.8294371506039583  1.0000
  C   C70       1.0  0.021070036570890217  0.8903591856142654  0.6705631140292284  1.0000
  C   C71       1.0  0.869287186332855  0.8903619383738643  0.17056540810943233  1.0000
  C   C72       1.0  0.9789137870496774  0.1096336775064728  0.32943688509931957  1.0000
  C   C73       1.0  0.1380026302369899  0.07155996956515757  0.7760295428152021  1.0000
  C   C74       1.0  0.06642752068223257  0.9284245248200166  0.7239697242369163  1.0000
  C   C75       1.0  0.8619964954099474  0.928429421251856  0.22397122181455134  1.0000
  C   C76       1.0  0.9335596060154073  0.0715676423781133  0.27603068799803054  1.0000
  C   C77       1.0  0.22452785426581556  0.10511344602901572  0.7489836298702599  1.0000
  C   C78       1.0  0.11940654040903807  0.8948827048740213  0.7510120560066583  1.0000
  C   C79       1.0  0.7754728380732558  0.894881512137836  0.25101382990326476  1.0000
  C   C80       1.0  0.8805863158602991  0.1051184873401496  0.2489868859293551  1.0000
  C   C81       1.0  0.304904594082018  0.17388426855465164  0.7773437847275844  1.0000
  C   C82       1.0  0.13101523437179458  0.8261152478132274  0.7226519857786968  1.0000
  C   C83       1.0  0.6950973152704808  0.8261106896108575  0.2226536750457271  1.0000
  C   C84       1.0  0.8689746650681514  0.1738824648094806  0.2773490216928139  1.0000
  C   C85       1.0  0.36853767449254354  0.49782864944246813  0.9405637516701831  1.0000
  C   C86       1.0  0.8707157962980435  0.5021823861825538  0.5594452388356289  1.0000
  C   C87       1.0  0.6314634059959446  0.5021829060310665  0.059442427313150914  1.0000
  C   C88       1.0  0.12929397446934135  0.4978319456491534  0.4405605877491754  1.0000
  C   C89       1.0  0.27015021567654424  0.46272592867219237  0.9585602660428807  1.0000
  C   C90       1.0  0.8074206839708965  0.5372769594825257  0.5414493774071191  1.0000
  C   C91       1.0  0.7298525320492999  0.5372780082309419  0.041443956962062614  1.0000
  C   C92       1.0  0.1925787521509008  0.4627276562912854  0.4585574658971013  1.0000
  C   C93       1.0  0.21629175670753398  0.500799571157529  0.9389458490232345  1.0000
  C   C94       1.0  0.715488757274521  0.49920695330335  0.5610626218160634  1.0000
  C   C95       1.0  0.7837119487063618  0.4992050640994776  0.061057527530877606  1.0000
  C   C96       1.0  0.2845098122333241  0.5007983632623478  0.4389429416939876  1.0000
  C   C97       1.0  0.12784222515426077  0.47268932026815946  0.961448485526404  1.0000
  C   C98       1.0  0.6551517892380687  0.5273187560627193  0.5385600525623602  1.0000
  C   C99       1.0  0.8721601806990834  0.5273139328963623  0.03855398386725281  1.0000
  C   C100      1.0  0.34484808104845394  0.4726879450314527  0.46144598476446674  1.0000
  C   C101      1.0  0.0936792847980357  0.4055611325138173  0.0030884426007205014  1.0000
  C   C102      1.0  0.6881210376712661  0.5944467366544687  0.4969186997445761  1.0000
  C   C103      1.0  0.9063193886860644  0.5944407409969017  0.9969126862892569  1.0000
  C   C104      1.0  0.3118801450779642  0.40555650433145024  0.5030859363676399  1.0000
  C   C105      1.0  0.14420155314709152  0.36330516411715763  0.020965044566715104  1.0000
  C   C106      1.0  0.7808955122579561  0.6366942390519696  0.4790392290883148  1.0000
  C   C107      1.0  0.8557940882693349  0.636691862324213  0.9790346426360871  1.0000
  C   C108      1.0  0.21910280717224848  0.3633069263602379  0.520964479627061  1.0000
  C   C109      1.0  0.2327236255703582  0.3924665490543049  0.9989348206837863  1.0000
  C   C110      1.0  0.8402528820917184  0.6075335775686528  0.5010734426153292  1.0000
  C   C111      1.0  0.7672768697794582  0.6075353171464215  0.0010676082368661043  1.0000
  C   C112      1.0  0.1597442979996302  0.39246896019478333  0.4989329066356022  1.0000
  C   C113      1.0  0.9790633748657099  0.4947667287642901  0.2565865717082617  1.0000
  C   C114      1.0  0.4842896135770474  0.505228615298492  0.2434166372096982  1.0000
  C   C115      1.0  0.020941994628500986  0.5052351496109893  0.7434136904931778  1.0000
  C   C116      1.0  0.5157068932351905  0.4947677079149885  0.7565847631309383  1.0000
  C   C117      1.0  0.9893913267792628  0.4667800641815063  0.196008925533981  1.0000
  C   C118      1.0  0.5226048167065686  0.533215917015724  0.3039947282103341  1.0000
  C   C119      1.0  0.010613084306136528  0.5332259824005519  0.8039901580566707  1.0000
  C   C120      1.0  0.47739211939783394  0.4667824817741676  0.6960075995275902  1.0000
  C   C121      1.0  0.07547532752389688  0.5087437113932012  0.16811810774792954  1.0000
  C   C122      1.0  0.5667277565728027  0.4912539321740467  0.3318848560766341  1.0000
  C   C123      1.0  0.9245291697630337  0.4912637245906595  0.8318805829723888  1.0000
  C   C124      1.0  0.43327282863297256  0.5087493307364568  0.6681158799426826  1.0000
  C   C125      1.0  0.08430326403389189  0.4804685292397651  0.11197931128285184  1.0000
  C   C126      1.0  0.6038384262497516  0.5195339324091249  0.3880211858691568  1.0000
  C   C127      1.0  0.9156968061755393  0.5195361376891584  0.8880184318042271  1.0000
  C   C128      1.0  0.39616841764435407  0.48047211173423676  0.6119783310647267  1.0000
  C   C129      1.0  0.004949464923498739  0.40886460912878425  0.08308183097205561  1.0000
  C   C130      1.0  0.5960915250332733  0.5911386327951507  0.41692043546623847  1.0000
  C   C131      1.0  0.9950499057051303  0.5911386586550479  0.9169180383601443  1.0000
  C   C132      1.0  0.4039136628101189  0.40886531628522954  0.5830816208199323  1.0000
  C   C133      1.0  0.9181317531169882  0.3653556673384911  0.11034894659955091  1.0000
  C   C134      1.0  0.5527758417757624  0.6346445276039958  0.3896535359282467  1.0000
  C   C135      1.0  0.08187144167575158  0.6346455126842656  0.88965216205294  1.0000
  C   C136      1.0  0.4472243092652803  0.3653566499861398  0.6103480060684633  1.0000
  C   C137      1.0  0.910776188201865  0.39459793414599886  0.16632656130432374  1.0000
  C   C138      1.0  0.5161774043678095  0.6054016184649315  0.3336754755532355  1.0000
  C   C139      1.0  0.08922769692393476  0.6054094945305694  0.833673429447103  1.0000
  C   C140      1.0  0.48382327263282593  0.3945981770306943  0.6663251592826926  1.0000
  C   C141      1.0  0.6749764609828263  0.2952090946342523  0.7864899222103789  1.0000
  C   C142      1.0  0.37977719384752384  0.7047973325080509  0.7135115929995663  1.0000
  C   C143      1.0  0.325021254092462  0.7047969470832383  0.21351002806881786  1.0000
  C   C144      1.0  0.6202306897843713  0.2952059230863924  0.2864904430494377  1.0000
  C   C145      1.0  0.6822533994893051  0.27498330002843835  0.682442739523495  1.0000
  C   C146      1.0  0.40727424164685994  0.725022395089965  0.8175587491917327  1.0000
  C   C147      1.0  0.3177509193038546  0.7250213449718571  0.3175589036558293  1.0000
  C   C148      1.0  0.5927272113910007  0.2749801694646409  0.1824428332780883  1.0000
  C   C149      1.0  0.7672768746756375  0.22651350402927758  0.7505116390335048  1.0000
  C   C150      1.0  0.5407726543538729  0.7734940342162772  0.7494890043784752  1.0000
  C   C151      1.0  0.23272370250053598  0.773494610825935  0.2494896719862041  1.0000
  C   C152      1.0  0.4592357496442859  0.22651269610034322  0.2505118328228093  1.0000
  C   C153      1.0  0.7656944200244598  0.5354485129083104  0.7776395737767461  1.0000
  C   C154      1.0  0.23025212129496717  0.46455106163388393  0.7223587162439106  1.0000
  C   C155      1.0  0.2343010433955612  0.4645505915461285  0.2223606074797786  1.0000
  C   C156      1.0  0.7697495189870338  0.5354445753989268  0.27764136382812415  1.0000
  C   C157      1.0  0.9047470512475044  0.685615979942675  0.798409034033192  1.0000
  C   C158      1.0  0.21913914776122564  0.3143869129073521  0.7015906341773859  1.0000
  C   C159      1.0  0.09524996984030307  0.31438380581303693  0.20159333417806383  1.0000
  C   C160      1.0  0.7808646599134049  0.6856094078620458  0.2984111995056082  1.0000
  C   C161      1.0  0.8684680218889512  0.6124002534790662  0.6987832349758207  1.0000
  C   C162      1.0  0.2560675419215599  0.38759916392849897  0.8012176319655282  1.0000
  C   C163      1.0  0.13153360670903425  0.387600228190486  0.3012187201276149  1.0000
  C   C164      1.0  0.7439331314246547  0.6124006242591522  0.19878430290140167  1.0000
  N   N1        1.0  0.7047438331352255  0.26363361223083365  0.7417281712286228  1.0000
  N   N2        1.0  0.4411204008191305  0.7363741033330625  0.7582729347144408  1.0000
  N   N3        1.0  0.2952557887891843  0.7363738091424851  0.25827311955458043  1.0000
  N   N4        1.0  0.5588900880245475  0.2636319286263102  0.24172874893712762  1.0000
  N   N5        1.0  0.8420371886564768  0.6090419255157613  0.7591119236565902  1.0000
  N   N6        1.0  0.23300191692295874  0.3909589361519679  0.7408885593219878  1.0000
  N   N7        1.0  0.15795922392462097  0.3909578602406256  0.24089044455477907  1.0000
  N   N8        1.0  0.7670000664496753  0.6090373870554443  0.25911284101766097  1.0000
  O   O1        1.0  0.5489897543852678  0.3295854516890984  0.9757316130923644  1.0000
  O   O2        1.0  0.2194031960032348  0.6704081458902209  0.5242643690311938  1.0000
  O   O3        1.0  0.4510044296852129  0.6704074430880451  0.024262752566635005  1.0000
  O   O4        1.0  0.7805943785639968  0.329585444802106  0.47572958352019873  1.0000
  O   O5        1.0  0.6573023832322704  0.37307046559524093  0.9051395097144737  1.0000
  O   O6        1.0  0.28423698032731437  0.6269292009157894  0.594853156629803  1.0000
  O   O7        1.0  0.34269266794952796  0.6269265973866566  0.09485367733341833  1.0000
  O   O8        1.0  0.7157651160459296  0.373068565285223  0.4051383172788194  1.0000
  O   O9        1.0  0.7452600279909094  0.09569187805825412  0.038753584030537504  1.0000
  O   O10       1.0  0.6495740679155233  0.9043112043622656  0.4612437930103824  1.0000
  O   O11       1.0  0.2547402306808094  0.9043058637848771  0.9612422233150897  1.0000
  O   O12       1.0  0.35042661395767294  0.09568860087731682  0.5387551084508716  1.0000
  O   O13       1.0  0.5958725793902175  0.6691221774397744  0.9633257748383458  1.0000
  O   O14       1.0  0.9267543070733096  0.33087952640043733  0.5366833349375284  1.0000
  O   O15       1.0  0.404124099327717  0.33087205558068417  0.0366772981669143  1.0000
  O   O16       1.0  0.07325251926946655  0.6691216146424281  0.46332470721299773  1.0000
  O   O17       1.0  0.5740181820581542  0.7212988716173714  0.8809986389735516  1.0000
  O   O18       1.0  0.8527194531505629  0.2786904582422665  0.6190096904550657  1.0000
  O   O19       1.0  0.4259711916455872  0.2786904875425619  0.11900775912564401  1.0000
  O   O20       1.0  0.14728443048311843  0.7213023634443799  0.38099767551222646  1.0000
  O   O21       1.0  0.3783001922182265  0.3235460675596542  0.9078222109578961  1.0000
  O   O22       1.0  0.05475930284980992  0.6764624843087788  0.592170789734233  1.0000
  O   O23       1.0  0.6217042359211218  0.6764600131262666  0.09217080582140372  1.0000
  O   O24       1.0  0.9452451209143576  0.32354845562981893  0.40782150201444983  1.0000
  O   O25       1.0  0.4647246318019996  0.2973586207667792  0.8409319278464978  1.0000
  O   O26       1.0  0.16737444915884933  0.7026559615912902  0.6590594857811924  1.0000
  O   O27       1.0  0.5352824889688036  0.7026516281218704  0.1590599103213606  1.0000
  O   O28       1.0  0.8326287527193372  0.2973549686046937  0.3409345393423848  1.0000
  O   O29       1.0  0.05686297342148098  0.9999975104690579  0.7499975427185677  1.0000
  O   O30       1.0  0.9431322404182796  2.311828531299433e-06  0.24999832533799804  1.0000
  O   O31       1.0  0.4214262044537804  0.486673921261918  0.9768830193068112  1.0000
  O   O32       1.0  0.9347532393903961  0.5133349335539279  0.5231206893225676  1.0000
  O   O33       1.0  0.5785765449875838  0.5133348870738458  0.023118311949183103  1.0000
  O   O34       1.0  0.06525176048809556  0.4866808096088988  0.47688084429975686  1.0000
  O   O35       1.0  0.3969222143312336  0.536816699739326  0.8927572383002558  1.0000
  O   O36       1.0  0.8601206840377034  0.4631998689048232  0.6072510442101732  1.0000
  O   O37       1.0  0.6030759110433763  0.463196247575368  0.10724811446962693  1.0000
  O   O38       1.0  0.13989786442825647  0.5368186311228698  0.39275360376209534  1.0000
  O   O39       1.0  0.0061028329406198865  0.3788087993469844  0.026603720783008107  1.0000
  O   O40       1.0  0.6272968009688641  0.6211957888069294  0.47339944699259473  1.0000
  O   O41       1.0  0.9938972355532983  0.6211909961493163  0.9733969140530265  1.0000
  O   O42       1.0  0.37270404112600636  0.3788067708763663  0.5266030021646699  1.0000
  O   O43       1.0  0.05286404204500882  0.5519392497573464  0.2861284081786765  1.0000
  O   O44       1.0  0.5009334437862591  0.44806960944342933  0.21387099524943665  1.0000
  O   O45       1.0  0.9471367973901935  0.44807304061126263  0.7138704241990227  1.0000
  O   O46       1.0  0.49907835192679795  0.5519378192243637  0.7861289955005689  1.0000
  O   O47       1.0  0.8960527075036567  0.4589504823615941  0.2749172289496543  1.0000
  O   O48       1.0  0.4370859348083016  0.5410352802079358  0.2250887534943544  1.0000
  O   O49       1.0  0.10395085275300887  0.5410319565690003  0.7250863667182302  1.0000
  O   O50       1.0  0.5628969350020299  0.45894715630960536  0.7749152755209254  1.0000
  O   O51       1.0  0.5693801830957741  0.493632185814775  0.9028043937965295  1.0000
  O   O52       1.0  0.07574999164396697  0.5063712741933274  0.5971888604175889  1.0000
  O   O53       1.0  0.4306168587004038  0.5063676413527675  0.09719060757237233  1.0000
  O   O54       1.0  0.9242539998943756  0.4936327163002402  0.402805829026434  1.0000
  O   O55       1.0  0.6946176668743722  0.6611304954793059  0.8531339301964564  1.0000
  O   O56       1.0  0.03347932866670079  0.3388728189826153  0.6468688426473578  1.0000
  O   O57       1.0  0.3053929975294237  0.3388734535950065  0.14686812608871955  1.0000
  O   O58       1.0  0.9665165603910782  0.6611283537402599  0.35313356603744955  1.0000
  O   O59       1.0  0.6273519379929979  0.3343191924103621  0.7801604392707376  1.0000
  O   O60       1.0  0.2930428220223575  0.665692242898203  0.7198403750882819  1.0000
  O   O61       1.0  0.37265237692235337  0.6656951808392577  0.21983802047269319  1.0000
  O   O62       1.0  0.7069650523617952  0.33431586220495996  0.2801626693047794  1.0000
  O   O63       1.0  0.7380116611719245  0.5270148329084633  0.8292623834107647  1.0000
  O   O64       1.0  0.21100954076956668  0.4729841050313723  0.6707350281307287  1.0000
  O   O65       1.0  0.26197910975452743  0.4729821886663146  0.17073817048024864  1.0000
  O   O66       1.0  0.788991928327505  0.5270087556338154  0.32926540433831525  1.0000
