data_image0
_chemical_formula_structural       Al4H36C68O20F16
_chemical_formula_sum              "Al4 H36 C68 O20 F16"
_cell_length_a       6.660583469534979
_cell_length_b       23.129646190467778
_cell_length_c       26.542034917396137
_cell_angle_alpha    101.97459660159765
_cell_angle_beta     90.00050550489972
_cell_angle_gamma    89.99946461973649

_space_group_name_H-M_alt    "P 1"
_space_group_IT_number       1

loop_
  _space_group_symop_operation_xyz
  'x, y, z'

loop_
  _atom_site_type_symbol
  _atom_site_label
  _atom_site_symmetry_multiplicity
  _atom_site_fract_x
  _atom_site_fract_y
  _atom_site_fract_z
  _atom_site_occupancy
  Al  Al1       1.0  0.1323659158530575  0.4993182557072942  0.5002777898550547  1.0000
  Al  Al2       1.0  0.632355026926767  0.5006856239978247  0.4997212434432469  1.0000
  Al  Al3       1.0  0.6804349072705946  0.0007914807328077518  0.9996954720973289  1.0000
  Al  Al4       1.0  0.1804337684794248  0.9992112881984241  0.00030479586907720024  1.0000
  H   H1        1.0  0.23890436774217963  0.8804750277941622  0.09533141107495878  1.0000
  H   H2        1.0  0.7389210291705978  0.1195191540430827  0.9046654419906515  1.0000
  H   H3        1.0  0.20582689190693057  0.8137869526416778  0.2503470077731365  1.0000
  H   H4        1.0  0.7058331303534188  0.18621291502168452  0.7496605911036767  1.0000
  H   H5        1.0  0.1819273317273513  0.7487140484659706  0.31256961516271525  1.0000
  H   H6        1.0  0.6819185614697999  0.25127877785220687  0.687432504569031  1.0000
  H   H7        1.0  0.6273977680457749  0.7519525569209334  0.1881826144405636  1.0000
  H   H8        1.0  0.12740812808820584  0.2480453330688376  0.8118225170687478  1.0000
  H   H9        1.0  0.12136735115522872  0.838406608390585  0.7524174338181382  1.0000
  H   H10       1.0  0.621307475716307  0.1615868758585322  0.2475799643246219  1.0000
  H   H11       1.0  0.8667753041364464  0.848442057689418  0.7370688706655598  1.0000
  H   H12       1.0  0.3667318964696022  0.1515629546821131  0.2629298380876079  1.0000
  H   H13       1.0  0.9195771933364439  0.7748483263920248  0.6628712129598495  1.0000
  H   H14       1.0  0.41958291327534164  0.22515645440147836  0.3371229786225029  1.0000
  H   H15       1.0  0.1528057722627452  0.7542009663559526  0.6859232567388814  1.0000
  H   H16       1.0  0.65278996861025  0.24579213496279817  0.3140715057580152  1.0000
  H   H17       1.0  0.9449821174355363  0.6527519190856521  0.7659539526610499  1.0000
  H   H18       1.0  0.44497984588080197  0.3472435670792393  0.23405175190542585  1.0000
  H   H19       1.0  0.6614312252596619  0.7418487192023094  0.8141605470263045  1.0000
  H   H20       1.0  0.16138973329941556  0.25814689820800396  0.18584117067055667  1.0000
  H   H21       1.0  0.6005285998563891  0.6821317654204933  0.7324925395980556  1.0000
  H   H22       1.0  0.10050272709079171  0.31787733903825455  0.2675076264602225  1.0000
  H   H23       1.0  0.5727674107606971  0.6197141388451256  0.40548265763201385  1.0000
  H   H24       1.0  0.0727943021712463  0.3802800927322139  0.5945100419595944  1.0000
  H   H25       1.0  0.20001127885154796  0.6490216415429018  0.3133743290105285  1.0000
  H   H26       1.0  0.6999770936054475  0.35096825769048223  0.6866201131722603  1.0000
  H   H27       1.0  0.6097747411671648  0.8513477180709687  0.18664366066616372  1.0000
  H   H28       1.0  0.10976547530368211  0.1486579395053269  0.8133657246369381  1.0000
  H   H29       1.0  0.20743180783816229  0.7572262255443716  0.7975726815899689  1.0000
  H   H30       1.0  0.707385595376877  0.2427740795073134  0.20243300106233156  1.0000
  H   H31       1.0  0.6035372382744197  0.6869742093229688  0.2504651294768649  1.0000
  H   H32       1.0  0.1035160846679162  0.31302333444725866  0.7495411084928989  1.0000
  H   H33       1.0  0.37958699834889137  0.576164040356069  0.5237743935595986  1.0000
  H   H34       1.0  0.8796056390889573  0.42384947241636434  0.4762251707893838  1.0000
  H   H35       1.0  0.4339457975964294  0.922667498831828  0.9811497610478596  1.0000
  H   H36       1.0  0.9339340152948096  0.07733583252544919  0.018845215505272992  1.0000
  C   C1        1.0  0.4296016070894312  0.07724916462836261  0.0769771836768811  1.0000
  C   C2        1.0  0.9296122986867986  0.9227512058620276  0.9230219922173216  1.0000
  C   C3        1.0  0.3830079216863425  0.4230796837484974  0.4226370157755284  1.0000
  C   C4        1.0  0.8829558949619452  0.5769243187286079  0.5773605622788551  1.0000
  C   C5        1.0  0.38441944414246615  0.4370739769793275  0.5624173406453465  1.0000
  C   C6        1.0  0.8843999786757876  0.562922666111703  0.4375782633498203  1.0000
  C   C7        1.0  0.7501630925631987  0.8921982084427355  0.13077579238657216  1.0000
  C   C8        1.0  0.2501708428075773  0.1077998890634504  0.8692264932126362  1.0000
  C   C9        1.0  0.7494537089080141  0.8564106905154815  0.16671791191073027  1.0000
  C   C10       1.0  0.24946443466266288  0.14358583813749698  0.8332832073565796  1.0000
  C   C11       1.0  0.9245084274749045  0.8275614131799216  0.17773725697148984  1.0000
  C   C12       1.0  0.42452318753473145  0.1724343316749355  0.8222626442621459  1.0000
  C   C13       1.0  0.098071708156823  0.8382481545923354  0.15102840698636297  1.0000
  C   C14       1.0  0.5980906768324772  0.16174993570287907  0.8489728266730265  1.0000
  C   C15       1.0  0.1004055913481992  0.8738208523882988  0.11512622684694658  1.0000
  C   C16       1.0  0.6004215504638708  0.12617108897732976  0.8848707365032168  1.0000
  C   C17       1.0  0.9237859919634702  0.901509313547173  0.1034871526080323  1.0000
  C   C18       1.0  0.42380881233151513  0.09847860057129049  0.8965049999239766  1.0000
  C   C19       1.0  0.07436301013795088  0.7856592013236751  0.24977399877942463  1.0000
  C   C20       1.0  0.5743545825198665  0.2143378464871049  0.7502271830529706  1.0000
  C   C21       1.0  0.0608725172790017  0.7488132579064839  0.28488281904660784  1.0000
  C   C22       1.0  0.5608564486468809  0.2511857669704725  0.7151179677980719  1.0000
  C   C23       1.0  0.8915246933405072  0.7127249803584662  0.2860720611690367  1.0000
  C   C24       1.0  0.3914961882232575  0.2872713047203419  0.7139293205634445  1.0000
  C   C25       1.0  0.7350071273558285  0.7150596990561197  0.2509951494503325  1.0000
  C   C26       1.0  0.234984121158746  0.2849342042255074  0.7490043856181288  1.0000
  C   C27       1.0  0.7484750982577353  0.751927759817498  0.21589418198780658  1.0000
  C   C28       1.0  0.2484927654587779  0.24807406166814866  0.7841112037941328  1.0000
  C   C29       1.0  0.9179860557442937  0.7879207486847548  0.2146378831316937  1.0000
  C   C30       1.0  0.41799715294249035  0.2120753075417453  0.785365468565416  1.0000
  C   C31       1.0  0.712383945162209  0.6620951082240936  0.3496541531740717  1.0000
  C   C32       1.0  0.21239054329507925  0.3379064078168312  0.6503415512506336  1.0000
  C   C33       1.0  0.7107602148651465  0.6264206468487501  0.3854686907455687  1.0000
  C   C34       1.0  0.21077732018632392  0.37357625449276094  0.6145239007793961  1.0000
  C   C35       1.0  0.8877531320620945  0.5986153017771301  0.396742194089576  1.0000
  C   C36       1.0  0.38776540382804825  0.4013761542330628  0.6032495330668225  1.0000
  C   C37       1.0  0.060747474961388506  0.6078773789275616  0.3692261885682058  1.0000
  C   C38       1.0  0.560736768246251  0.39211105231660065  0.6307679837226912  1.0000
  C   C39       1.0  0.06083978294483221  0.6439145853047137  0.33347968853624366  1.0000
  C   C40       1.0  0.5608096106586089  0.3560785298938142  0.666516056396226  1.0000
  C   C41       1.0  0.8855998765186965  0.6728921352678582  0.3228205538671886  1.0000
  C   C42       1.0  0.38557219329099013  0.32710384890111033  0.6771815835787081  1.0000
  C   C43       1.0  0.6956627557057259  0.765472753436491  0.783221082057345  1.0000
  C   C44       1.0  0.1956582066178925  0.23453906967840507  0.21678427928499389  1.0000
  C   C45       1.0  0.9770355598130961  0.8156298629675263  0.7436993058116811  1.0000
  C   C46       1.0  0.4770063744851  0.1843711093402689  0.2562972713848097  1.0000
  C   C47       1.0  0.9952630771937407  0.7641660874714232  0.6964357944378107  1.0000
  C   C48       1.0  0.49524713336169407  0.23583786834495865  0.3035581473577053  1.0000
  C   C49       1.0  0.8853876849319915  0.6220066078538906  0.6240064208193699  1.0000
  C   C50       1.0  0.38541805013229435  0.37799700926782975  0.37599884845466386  1.0000
  C   C51       1.0  0.9082609977393262  0.7925570562675828  0.7919377825843981  1.0000
  C   C52       1.0  0.40823142528580547  0.2074462677858122  0.20805983746208767  1.0000
  C   C53       1.0  0.6839446388290683  0.7223965608021032  0.7299074109073797  1.0000
  C   C54       1.0  0.183909911052929  0.2776132739711912  0.2700990673638444  1.0000
  C   C55       1.0  0.8989082440842465  0.7074420537128602  0.7084021715940736  1.0000
  C   C56       1.0  0.39888761878796686  0.2925624343438642  0.29160082234620427  1.0000
  C   C57       1.0  0.0212371177970851  0.6886800813883552  0.7520103059964143  1.0000
  C   C58       1.0  0.5211999962311963  0.3113146629148034  0.2479899910173131  1.0000
  C   C59       1.0  0.051457141434909204  0.7414163732296614  0.7969317882700364  1.0000
  C   C60       1.0  0.5514476478182928  0.2585816199729506  0.2030666665812788  1.0000
  C   C61       1.0  0.8921331643422262  0.6604500924469008  0.6627772270905864  1.0000
  C   C62       1.0  0.3921278478995874  0.3395580594947702  0.3372230899598065  1.0000
  C   C63       1.0  0.9169714088728824  0.8388388922564686  0.8379738766053533  1.0000
  C   C64       1.0  0.41696543198935376  0.16116338099060812  0.16202644325672114  1.0000
  C   C65       1.0  0.9264463446426205  0.8776200809908729  0.8764480543679553  1.0000
  C   C66       1.0  0.4264122621333187  0.1223806257421742  0.12355457839902327  1.0000
  C   C67       1.0  0.4280495925803934  0.06272927296600976  0.9373445025412293  1.0000
  C   C68       1.0  0.9280309543770003  0.9372655289206689  0.0626511690300688  1.0000
  O   O1        1.0  0.5527845475509636  0.45066776602607916  0.5456035018190376  1.0000
  O   O2        1.0  0.05276265233524669  0.5493411014717396  0.4544046477122734  1.0000
  O   O3        1.0  0.21201773684772718  0.43972092734326657  0.4415641341746478  1.0000
  O   O4        1.0  0.7119745366527963  0.5602924989708667  0.5584212765347515  1.0000
  O   O5        1.0  0.21211330942595907  0.44952239027241353  0.5466555049022901  1.0000
  O   O6        1.0  0.7120861550051174  0.5504680171470043  0.4533351187719603  1.0000
  O   O7        1.0  0.0533341928869007  0.5585507919105693  0.5591563857183955  1.0000
  O   O8        1.0  0.5533840759838426  0.4414513118084996  0.4408486391493652  1.0000
  O   O9        1.0  0.7601101919044807  0.9509597203257486  0.04569357929008079  1.0000
  O   O10       1.0  0.2601259033167906  0.04904433820968282  0.9543079998683764  1.0000
  O   O11       1.0  0.3815382011867854  0.5357005748296119  0.5044963302642244  1.0000
  O   O12       1.0  0.8815610013013426  0.4643088051881676  0.49550589855762434  1.0000
  O   O13       1.0  0.6008034681408388  0.06083423776662039  0.05804712235643449  1.0000
  O   O14       1.0  0.10082240168008381  0.9391683576517308  0.9419491514263993  1.0000
  O   O15       1.0  0.4313637746568872  0.9645981082564248  0.9960060067502636  1.0000
  O   O16       1.0  0.9313723447251901  0.0354052920929107  0.003989350005681999  1.0000
  O   O17       1.0  0.2591518986363184  0.058763596416966386  0.05891197423737539  1.0000
  O   O18       1.0  0.7591684486599134  0.9412382014349561  0.9410892019732484  1.0000
  O   O19       1.0  0.6006274698226336  0.05029258345162188  0.9529572476064342  1.0000
  O   O20       1.0  0.1006110469576385  0.9497062156785674  0.047043227051020195  1.0000
  F   F1        1.0  0.5743594533495155  0.9192062400394576  0.12386407490321008  1.0000
  F   F2        1.0  0.0743836631724406  0.08078196238223255  0.8761343503121423  1.0000
  F   F3        1.0  0.2365090840806019  0.5805717098687567  0.3756835627663975  1.0000
  F   F4        1.0  0.7364864062578319  0.41941431338168667  0.6243136100598007  1.0000
  F   F5        1.0  0.5788366713404045  0.7491533589036125  0.6950365852068785  1.0000
  F   F6        1.0  0.0788260837650583  0.250841732898607  0.3049653594632602  1.0000
  F   F7        1.0  0.5499666052550153  0.8096798676158626  0.7860052412809608  1.0000
  F   F8        1.0  0.0499594651533357  0.1903295511169603  0.213994064096326  1.0000
  F   F9        1.0  0.017194184706759996  0.7228636603684746  0.8435584819774957  1.0000
  F   F10       1.0  0.5172045938213187  0.2771390110569669  0.15643879025123647  1.0000
  F   F11       1.0  0.20990784558847508  0.6665970775499801  0.7332375801006277  1.0000
  F   F12       1.0  0.7098715848265442  0.33340571176916717  0.26675620668677164  1.0000
  F   F13       1.0  0.27389494939813375  0.8106991233544888  0.1593740787583684  1.0000
  F   F14       1.0  0.7739138056174468  0.18930149223438517  0.8406290385443355  1.0000
  F   F15       1.0  0.5364961470673465  0.689748016374942  0.34162836489641524  1.0000
  F   F16       1.0  0.03648934023093631  0.3102694726325694  0.6583782800769525  1.0000
