data_image0
_chemical_formula_structural       Cu4H30C28S2Br4N6
_chemical_formula_sum              "Cu4 H30 C28 S2 Br4 N6"
_cell_length_a       8.623814946507917
_cell_length_b       9.679346173538747
_cell_length_c       10.337671795945502
_cell_angle_alpha    97.1757466853039
_cell_angle_beta     101.04697044272174
_cell_angle_gamma    93.4140205019349

_space_group_name_H-M_alt    "P 1"
_space_group_IT_number       1

loop_
  _space_group_symop_operation_xyz
  'x, y, z'

loop_
  _atom_site_type_symbol
  _atom_site_label
  _atom_site_symmetry_multiplicity
  _atom_site_fract_x
  _atom_site_fract_y
  _atom_site_fract_z
  _atom_site_occupancy
  Cu  Cu1       1.0  0.4988716896416036  0.32640418487853406  0.40746118617849464  1.0000
  Cu  Cu2       1.0  0.5011332910080881  0.6735981765278826  0.5925395119416808  1.0000
  Cu  Cu3       1.0  0.09261195270023141  0.4056384099336867  0.5032466527543917  1.0000
  Cu  Cu4       1.0  0.9073972166405043  0.5943587524486419  0.4967580321857314  1.0000
  H   H1        1.0  0.8429513978037232  0.2389914588308102  0.4532884379101533  1.0000
  H   H2        1.0  0.1570532946224219  0.761007762575005  0.5467108925431463  1.0000
  H   H3        1.0  0.8225881685914515  0.052695890856789204  0.44099367545384643  1.0000
  H   H4        1.0  0.17741221543231234  0.947307493740361  0.559003466783473  1.0000
  H   H5        1.0  0.5180147473258073  0.0583535972153015  0.3873691367157549  1.0000
  H   H6        1.0  0.4819867372742337  0.9416498265270618  0.6126359329785274  1.0000
  H   H7        1.0  0.6677214945081643  0.2691426309144518  0.23301246123475045  1.0000
  H   H8        1.0  0.3322761183470178  0.7308565738499057  0.7669847164058583  1.0000
  H   H9        1.0  0.4710029833341237  0.1666878654993553  0.18237753535829884  1.0000
  H   H10       1.0  0.528994599130847  0.8333113531945744  0.8176225409160767  1.0000
  H   H11       1.0  0.8925947807047265  0.43306585159183436  0.9853778237428447  1.0000
  H   H12       1.0  0.10740482612001763  0.5669302543168586  0.014626111454745723  1.0000
  H   H13       1.0  0.9509713780465958  0.2998303379711444  0.8757244798591091  1.0000
  H   H14       1.0  0.04902939013484801  0.7001657792236388  0.12428158552789637  1.0000
  H   H15       1.0  0.843278169578312  0.21104521554362068  0.06918577904002635  1.0000
  H   H16       1.0  0.15671190512066602  0.7889498199618644  0.9308145077812643  1.0000
  H   H17       1.0  0.5487485548778751  0.1876373610374529  0.8400778813918779  1.0000
  H   H18       1.0  0.4512381184591447  0.8123701475373934  0.15991065943794786  1.0000
  H   H19       1.0  0.5783748515736704  0.0904249711618021  0.9847585763610099  1.0000
  H   H20       1.0  0.4216096944352969  0.9095731525570372  0.015233393391326944  1.0000
  H   H21       1.0  0.8137397629533323  0.7695821260974043  0.7815251719608015  1.0000
  H   H22       1.0  0.1862534807190457  0.23042126971741783  0.2184756147313678  1.0000
  H   H23       1.0  0.8763752137076041  0.9697493035549914  0.9630485512154225  1.0000
  H   H24       1.0  0.12361783106236858  0.030252002021555303  0.036951967839662814  1.0000
  H   H25       1.0  0.832237397818119  0.9414903228963921  0.19095958357822704  1.0000
  H   H26       1.0  0.1677589726398097  0.0585089077273864  0.8090431935630138  1.0000
  H   H27       1.0  0.7212550122509072  0.7132018895888592  0.23414136957901385  1.0000
  H   H28       1.0  0.2787436625097683  0.2867962813424541  0.7658578044324713  1.0000
  H   H29       1.0  0.6478353435302749  0.5151619992309122  0.050672474668275  1.0000
  H   H30       1.0  0.35216814701889376  0.4848372294615686  0.9493285904406294  1.0000
  C   C1        1.0  0.6871317204416058  0.5149065294510037  0.7940273350906893  1.0000
  C   C2        1.0  0.3128708767142784  0.48509583724236893  0.20597489991818216  1.0000
  C   C3        1.0  0.6999073063198225  0.31267615409964833  0.6748606878287404  1.0000
  C   C4        1.0  0.3001037914465456  0.6873283029004114  0.32514030055178733  1.0000
  C   C5        1.0  0.7639906129210913  0.1486698002695661  0.462627337352295  1.0000
  C   C6        1.0  0.23601557973565696  0.8513325492070012  0.5373706599010151  1.0000
  C   C7        1.0  0.6038231713718786  0.1409308371886553  0.37432293300359737  1.0000
  C   C8        1.0  0.3961829807645855  0.8590715308606678  0.6256789290947398  1.0000
  C   C9        1.0  0.5747423510157291  0.20324510280081398  0.2597037983185403  1.0000
  C   C10       1.0  0.4252586565884116  0.7967530860594891  0.740298669860522  1.0000
  C   C11       1.0  0.8481052082121535  0.3403375720355157  0.9121613551676476  1.0000
  C   C12       1.0  0.15189708046003855  0.6596616639436377  0.08784144459686162  1.0000
  C   C13       1.0  0.7697465310954498  0.23317286801822953  0.9768720817093098  1.0000
  C   C14       1.0  0.23022805459270046  0.7668200187504227  0.023118603026340223  1.0000
  C   C15       1.0  0.6256372773267316  0.1676787164366971  0.9312530291577946  1.0000
  C   C16       1.0  0.3743732760503278  0.8323319907057254  0.06874469952204273  1.0000
  C   C17       1.0  0.7242217225436534  0.6303629442528802  0.9037855123556043  1.0000
  C   C18       1.0  0.2757784119273481  0.3696383733219264  0.09621619330091855  1.0000
  C   C19       1.0  0.7916081310325396  0.7584614965123608  0.8803891775159941  1.0000
  C   C20       1.0  0.20838601616319613  0.24153875665837898  0.11960947306494771  1.0000
  C   C21       1.0  0.8281719843665056  0.8700240079148575  0.9832138384023995  1.0000
  C   C22       1.0  0.17182462551411248  0.1299772943744415  0.016785341530891198  1.0000
  C   C23       1.0  0.8019551842690406  0.8544103569468932  0.11019459976146359  1.0000
  C   C24       1.0  0.19803766159851216  0.14558885839137758  0.8898056516565447  1.0000
  C   C25       1.0  0.7384688174088369  0.7262880770164984  0.13445213993266247  1.0000
  C   C26       1.0  0.2615312176109512  0.273712195439181  0.8655494319053221  1.0000
  C   C27       1.0  0.6985314049008975  0.6146609642199934  0.031412240933349315  1.0000
  C   C28       1.0  0.30146725972970495  0.3853372113545107  0.9685878992893892  1.0000
  S   S1        1.0  0.7571981520129399  0.14655088810634  0.6374361096377115  1.0000
  S   S2        1.0  0.2428126372697434  0.8534504381794933  0.36256544349844694  1.0000
  Br  Br1       1.0  0.2443886060897427  0.21295659915723772  0.49009707620254533  1.0000
  Br  Br2       1.0  0.7556034662777762  0.7870331543905352  0.5098903763135214  1.0000
  Br  Br3       1.0  0.06396906166055771  0.5414860187616598  0.7061367257431146  1.0000
  Br  Br4       1.0  0.9360291443847968  0.45850800419542287  0.2938686764730036  1.0000
  N   N1        1.0  0.6079430836151829  0.5188329380053317  0.6707690692095839  1.0000
  N   N2        1.0  0.392061897034516  0.4811694234010844  0.32923162891059127  1.0000
  N   N3        1.0  0.614629811628241  0.39119536684494705  0.5958003295934307  1.0000
  N   N4        1.0  0.38538109736578724  0.6088069952736532  0.404199424938753  1.0000
  N   N5        1.0  0.7438761231972392  0.3859934423577016  0.8002269083016957  1.0000
  N   N6        1.0  0.2561286484199741  0.6140068334536295  0.19977448839264872  1.0000
