data_image0
_chemical_formula_structural       Cu4H24C36N8Cl2O4
_chemical_formula_sum              "Cu4 H24 C36 N8 Cl2 O4"
_cell_length_a       7.816355220104574
_cell_length_b       7.816342792769221
_cell_length_c       13.253301619069068
_cell_angle_alpha    89.99987746301755
_cell_angle_beta     89.99967545043391
_cell_angle_gamma    98.6385876997623

_space_group_name_H-M_alt    "P 1"
_space_group_IT_number       1

loop_
  _space_group_symop_operation_xyz
  'x, y, z'

loop_
  _atom_site_type_symbol
  _atom_site_label
  _atom_site_symmetry_multiplicity
  _atom_site_fract_x
  _atom_site_fract_y
  _atom_site_fract_z
  _atom_site_occupancy
  Cu  Cu1       1.0  0.12671239859571407  0.7201838194210736  0.7500011356308887  1.0000
  Cu  Cu2       1.0  0.2798193476731043  0.8732837276920479  0.2500000922065908  1.0000
  Cu  Cu3       1.0  0.5089426699941058  0.4910573276305996  0.4999995412189122  1.0000
  Cu  Cu4       1.0  0.5089440790864473  0.4910573923876596  0.9999994801374114  1.0000
  H   H1        1.0  0.06901750711573841  0.6966628995422113  0.5236252015189392  1.0000
  H   H2        1.0  0.3033356088955372  0.9309745617783989  0.47637530737059547  1.0000
  H   H3        1.0  0.3033402014835503  0.9309732145180475  0.023621708864411096  1.0000
  H   H4        1.0  0.06902284446643137  0.6966618753551684  0.9763780454811126  1.0000
  H   H5        1.0  0.8398588482544087  0.7675122709850655  0.4075886378071445  1.0000
  H   H6        1.0  0.23248994387354574  0.16013434368270651  0.592411897001952  1.0000
  H   H7        1.0  0.23249053101176292  0.16013098438902054  0.9075831743255234  1.0000
  H   H8        1.0  0.8398630006399657  0.7675028276404133  0.09241811501262731  1.0000
  H   H9        1.0  0.5884218777925271  0.8966132101733352  0.4824239132998116  1.0000
  H   H10       1.0  0.10339246112884133  0.41157499871325604  0.51757777212174  1.0000
  H   H11       1.0  0.10338919844566163  0.4115673119429318  0.9824181701779793  1.0000
  H   H12       1.0  0.588426643214568  0.8966028652022969  0.0175857788392051  1.0000
  H   H13       1.0  0.5752397013123911  0.9372397466521319  0.6694723957608345  1.0000
  H   H14       1.0  0.06276662956436502  0.4247567947448445  0.3305293456677986  1.0000
  H   H15       1.0  0.06276406526282591  0.4247506938770442  0.16946608299875268  1.0000
  H   H16       1.0  0.5752405893907309  0.9372329098200184  0.8305386765565999  1.0000
  H   H17       1.0  0.7674746799614881  0.3465489671741936  0.5625964334277569  1.0000
  H   H18       1.0  0.653456422165185  0.2325226568444236  0.4374014749600689  1.0000
  H   H19       1.0  0.6534609433983647  0.2325236928794112  0.0626005277766879  1.0000
  H   H20       1.0  0.7674776899818881  0.34654679943282946  0.9373988896572526  1.0000
  H   H21       1.0  0.9960265288276703  0.22046756865519507  0.6570344865051679  1.0000
  H   H22       1.0  0.7795393316543411  0.003972349393571094  0.3429622982221474  1.0000
  H   H23       1.0  0.7795404690407466  0.003974130299290794  0.1570388150874109  1.0000
  H   H24       1.0  0.9960271774505288  0.2204696960682142  0.8429579696344973  1.0000
  C   C1        1.0  0.9566462062646436  0.7485665597539536  0.5522505218297837  1.0000
  C   C2        1.0  0.2514370849673497  0.04335002893749619  0.4477498716941922  1.0000
  C   C3        1.0  0.2514370266322103  0.043344569332269614  0.052247667742307186  1.0000
  C   C4        1.0  0.956648773070981  0.7485617502369806  0.947753480312862  1.0000
  C   C5        1.0  0.8278447465489408  0.7907002553223278  0.4884613217890319  1.0000
  C   C6        1.0  0.2093051304674631  0.17215021272075148  0.5115384951256132  1.0000
  C   C7        1.0  0.2093047063269822  0.1721451358682771  0.9884558838455532  1.0000
  C   C8        1.0  0.8278484594414836  0.7906912087541613  0.011545442130348199  1.0000
  C   C9        1.0  0.6904137857836616  0.8615534184344041  0.5308328350368612  1.0000
  C   C10       1.0  0.1384560380071918  0.3095842706395188  0.46916795319531696  1.0000
  C   C11       1.0  0.1384521860526249  0.30957754847217706  0.0308273670630896  1.0000
  C   C12       1.0  0.6904170770531267  0.8615459361496818  0.9691741757078274  1.0000
  C   C13       1.0  0.6830548369152538  0.8843554984509935  0.6349080318265762  1.0000
  C   C14       1.0  0.11565196907383073  0.3169427025957746  0.3650927878030217  1.0000
  C   C15       1.0  0.1156484821871331  0.3169367558357052  0.1349025991559571  1.0000
  C   C16       1.0  0.6830568152073725  0.8843498012843015  0.8650997295413347  1.0000
  C   C17       1.0  0.8130763920512721  0.8318752522838793  0.6945986349214834  1.0000
  C   C18       1.0  0.16812874066030054  0.1869190752215886  0.3054042583409426  1.0000
  C   C19       1.0  0.1681289834095381  0.18691677802176798  0.1945918704389769  1.0000
  C   C20       1.0  0.8130780451249252  0.8318724284350835  0.8054087592365846  1.0000
  C   C21       1.0  0.3856615900495584  0.5410131907494317  0.6942531981269153  1.0000
  C   C22       1.0  0.4589935185304341  0.6143378127735204  0.30574681914669105  1.0000
  C   C23       1.0  0.4589942676917929  0.6143393986644979  0.194253846111863  1.0000
  C   C24       1.0  0.3856597253619043  0.5410128716165232  0.8057461711628164  1.0000
  C   C25       1.0  0.634147450734396  0.4077353580107896  0.6963663034101443  1.0000
  C   C26       1.0  0.5922724039507659  0.3658535773243798  0.3036310529063826  1.0000
  C   C27       1.0  0.5922702295058501  0.3658525105680468  0.1963694783335015  1.0000
  C   C28       1.0  0.6341467236358796  0.40773378320250936  0.8036293870474368  1.0000
  C   C29       1.0  0.767245350576211  0.3420164784862791  0.6449132835086857  1.0000
  C   C30       1.0  0.6579840430363433  0.23274848732891226  0.3550853749393355  1.0000
  C   C31       1.0  0.6579878731826697  0.23275038578371013  0.1449158579257883  1.0000
  C   C32       1.0  0.7672497221821928  0.3420186234098139  0.8550812914481369  1.0000
  C   C33       1.0  0.8955818734423532  0.2749300921182396  0.6971295345364295  1.0000
  C   C34       1.0  0.7250762044515042  0.10441822370567878  0.3028681659587562  1.0000
  C   C35       1.0  0.725077871478149  0.10441723397943999  0.19713451254067846  1.0000
  C   C36       1.0  0.8955822698554101  0.2749272545630888  0.8028616788955177  1.0000
  N   N1        1.0  0.9485531561015607  0.7682604895177648  0.6523546358140563  1.0000
  N   N2        1.0  0.23174163412523546  0.05144223414281161  0.34764654116465016  1.0000
  N   N3        1.0  0.23174360068025385  0.0514401853075626  0.152351053712998  1.0000
  N   N4        1.0  0.9485558192763792  0.7682587650919074  0.8476493687313962  1.0000
  N   N5        1.0  0.5073820703043239  0.47572831487097733  0.6425851561240064  1.0000
  N   N6        1.0  0.5242783235784004  0.492615271960396  0.35741315744429153  1.0000
  N   N7        1.0  0.5242757622878146  0.49261704756514746  0.1425851785898402  1.0000
  N   N8        1.0  0.5073822329176494  0.4757277790112012  0.8574138895106457  1.0000
  Cl  Cl1       1.0  0.30453656830275827  0.018228716678962097  0.7499990132160335  1.0000
  Cl  Cl2       1.0  0.9817735267401063  0.6954583808128588  0.2500020534144411  1.0000
  O   O1        1.0  0.26628040350720283  0.609771851301005  0.6494411239303088  1.0000
  O   O2        1.0  0.39023261149172583  0.7337186939589201  0.35055908917686196  1.0000
  O   O3        1.0  0.390234608413664  0.733716660377695  0.1494416562040826  1.0000
  O   O4        1.0  0.2662830363111651  0.6097701116191414  0.850558556897731  1.0000
