data_image0
_chemical_formula_structural       Cu3P2H24C38N4O10
_chemical_formula_sum              "Cu3 P2 H24 C38 N4 O10"
_cell_length_a       8.344840194623577
_cell_length_b       9.747924741956595
_cell_length_c       11.493802525191631
_cell_angle_alpha    100.5203107854561
_cell_angle_beta     97.84052705588762
_cell_angle_gamma    90.55015190018503

_space_group_name_H-M_alt    "P 1"
_space_group_IT_number       1

loop_
  _space_group_symop_operation_xyz
  'x, y, z'

loop_
  _atom_site_type_symbol
  _atom_site_label
  _atom_site_symmetry_multiplicity
  _atom_site_fract_x
  _atom_site_fract_y
  _atom_site_fract_z
  _atom_site_occupancy
  Cu  Cu1       1.0  0.8416866844215106  0.000747214748201897  0.799519419685204  1.0000
  Cu  Cu2       1.0  0.15832415504553407  0.9992444591597263  0.20047844806786938  1.0000
  Cu  Cu3       1.0  0.500006345874425  0.9999961890652285  3.718592161270989e-06  1.0000
  P   P1        1.0  0.8455516222881699  0.8506052744231881  0.02814265669155701  1.0000
  P   P2        1.0  0.1544553883836883  0.1493832912360773  0.971855116673126  1.0000
  H   H1        1.0  0.6847406883319352  0.6936552637622454  0.17225792896628891  1.0000
  H   H2        1.0  0.3152598750812317  0.30634419940103186  0.8277306517958679  1.0000
  H   H3        1.0  0.6067779503339921  0.4417129092083342  0.15032258018855768  1.0000
  H   H4        1.0  0.39322731648766057  0.5582871395946893  0.8496779249929673  1.0000
  H   H5        1.0  0.8113686684001848  0.350704444353191  0.8241970729843118  1.0000
  H   H6        1.0  0.1886175261569321  0.6492792886224591  0.17579499575892746  1.0000
  H   H7        1.0  0.8890913860704829  0.6049595146287601  0.844279563568179  1.0000
  H   H8        1.0  0.1108973005022662  0.39502433301771583  0.1557084405140188  1.0000
  H   H9        1.0  0.6012369597099152  0.7543738205230426  0.8148011865537869  1.0000
  H   H10       1.0  0.39875371768101087  0.24564431264847994  0.18519749879349226  1.0000
  H   H11       1.0  0.4136162552249516  0.5913118002942853  0.6629099280098032  1.0000
  H   H12       1.0  0.5863462505885266  0.4087231165436124  0.33709830633137733  1.0000
  H   H13       1.0  0.3913224508903994  0.6113440755933368  0.4464166309673558  1.0000
  H   H14       1.0  0.6086632723137484  0.38867388799167196  0.5535884566669864  1.0000
  H   H15       1.0  0.8417273024806776  0.14101166957573943  0.3196887257616794  1.0000
  H   H16       1.0  0.1582656551146968  0.8590052360086916  0.6803143372609527  1.0000
  H   H17       1.0  0.007694726045457399  0.2945929853058474  0.4965228081730473  1.0000
  H   H18       1.0  0.9923063020105545  0.7054175079981775  0.5034808465776095  1.0000
  H   H19       1.0  0.0041675755924117965  0.23957029157246268  0.7031478788913148  1.0000
  H   H20       1.0  0.9958376137182299  0.7604286838707778  0.2968532969690045  1.0000
  H   H21       1.0  0.6401287769328192  0.9352635468923934  0.24493174133964848  1.0000
  H   H22       1.0  0.3598718847132076  0.06473886745208549  0.7550625990437112  1.0000
  H   H23       1.0  0.47447205221196503  0.7474302616769747  0.2907428098463924  1.0000
  H   H24       1.0  0.5255416904474187  0.2525696954940244  0.7092577170604031  1.0000
  C   C1        1.0  0.7897362381095832  0.6660601895500164  0.008586654950868002  1.0000
  C   C2        1.0  0.2102636546491752  0.3339287491584599  0.9914025879766868  1.0000
  C   C3        1.0  0.7141649037537975  0.6185092564804079  0.09636308760497772  1.0000
  C   C4        1.0  0.2858316132533929  0.3814839082324398  0.9036265472876651  1.0000
  C   C5        1.0  0.6717373330648186  0.4780033900982872  0.08504431457552637  1.0000
  C   C6        1.0  0.3282615922241662  0.5219915579638225  0.9149537305786382  1.0000
  C   C7        1.0  0.7038453249002999  0.38126537745951333  0.9855264035314236  1.0000
  C   C8        1.0  0.296153445366663  0.618727423883037  0.01447298298034382  1.0000
  C   C9        1.0  0.6455301529561553  0.2322538548296365  0.967564002843325  1.0000
  C   C10       1.0  0.3544755773020897  0.7677355027722184  0.032441608554400085  1.0000
  C   C11       1.0  0.7830755236016032  0.42772049936052525  0.8992436619329993  1.0000
  C   C12       1.0  0.2169134489703097  0.5722694299137814  0.10075068028653789  1.0000
  C   C13       1.0  0.8261031392329912  0.5686167833358409  0.9107242477226974  1.0000
  C   C14       1.0  0.17388837012128278  0.4313733502419979  0.08926343928327189  1.0000
  C   C15       1.0  0.5897330385477204  0.7619152785621708  0.7207849602211452  1.0000
  C   C16       1.0  0.4102584479679265  0.23809836454630326  0.2792217154096406  1.0000
  C   C17       1.0  0.4846570450145719  0.6699825062482815  0.6340925110132503  1.0000
  C   C18       1.0  0.5153280029417999  0.33004480627997873  0.36591591274127927  1.0000
  C   C19       1.0  0.4717359373389272  0.6815492072919014  0.5150634382988883  1.0000
  C   C20       1.0  0.5282545850299839  0.31846677916006877  0.4849365884059935  1.0000
  C   C21       1.0  0.5623023084974648  0.787897197174651  0.4820488333039421  1.0000
  C   C22       1.0  0.43769942175099896  0.21210308296932817  0.5179461113827557  1.0000
  C   C23       1.0  0.6624416783092357  0.8772110557709212  0.57543363817706  1.0000
  C   C24       1.0  0.3375636660234278  0.12279006639187881  0.4245661963256637  1.0000
  C   C25       1.0  0.7529230618236084  0.9902417979515117  0.5492633346570343  1.0000
  C   C26       1.0  0.24708606363771676  0.009761418855312292  0.4507355378778612  1.0000
  C   C27       1.0  0.7462409495817114  0.010923069381512105  0.4299738683416265  1.0000
  C   C28       1.0  0.25376695515496556  0.9890810588781779  0.5700293881562786  1.0000
  C   C29       1.0  0.8413690187996038  0.12345541877348148  0.4108081103794419  1.0000
  C   C30       1.0  0.158625697568219  0.876550033544767  0.5891913573088416  1.0000
  C   C31       1.0  0.9323782991666789  0.20747961823707323  0.5081140402516482  1.0000
  C   C32       1.0  0.06762112973225949  0.792524601654641  0.4918891945209793  1.0000
  C   C33       1.0  0.9312361224545143  0.17911738283283543  0.6239445996827726  1.0000
  C   C34       1.0  0.06877038581363587  0.8208836323387415  0.37605795183574037  1.0000
  C   C35       1.0  0.6450788533474139  0.9189207851629037  0.3369297160901681  1.0000
  C   C36       1.0  0.35492770258726136  0.08108124361331187  0.6630738917845633  1.0000
  C   C37       1.0  0.5558972072989476  0.8122603737008304  0.362487639031265  1.0000
  C   C38       1.0  0.4441080267784159  0.1877386913751238  0.637510946276528  1.0000
  N   N1        1.0  0.676886218547338  0.8624023932815419  0.6916383294984101  1.0000
  N   N2        1.0  0.3231156874449965  0.1376019114034222  0.3083617041306895  1.0000
  N   N3        1.0  0.8441193543521024  0.072580212789461  0.6432688462715177  1.0000
  N   N4        1.0  0.15588824656335729  0.9274168799929043  0.3567252886978025  1.0000
  O   O1        1.0  0.89114838905013  0.8717321758746476  0.9074495540598377  1.0000
  O   O2        1.0  0.10886015819002638  0.12826161971472058  0.09254844644415527  1.0000
  O   O3        1.0  0.9896425540623852  0.8627553871564257  0.1294613553887557  1.0000
  O   O4        1.0  0.010362934963410496  0.137227978450305  0.8705353273191037  1.0000
  O   O5        1.0  0.7063916237454677  0.9385762835312974  0.07193455128145843  1.0000
  O   O6        1.0  0.29362034981258495  0.061415223630263  0.9280677605224169  1.0000
  O   O7        1.0  0.5842367011245528  0.19502887042945363  0.05451530935435039  1.0000
  O   O8        1.0  0.41578487323960195  0.804964196420009  0.9454996255606289  1.0000
  O   O9        1.0  0.6512890550505334  0.1514692589093656  0.8687740896713763  1.0000
  O   O10       1.0  0.34871025906383585  0.8485148485637241  0.1312333792865559  1.0000
