data_image0
_chemical_formula_structural       Al2H13C26Cl2O10F
_chemical_formula_sum              "Al2 H13 C26 Cl2 O10 F1"
_cell_length_a       6.64000511198923
_cell_length_b       11.167941579407008
_cell_length_c       17.741796673478284
_cell_angle_alpha    83.34661657451268
_cell_angle_beta     80.8207694209572
_cell_angle_gamma    72.91263835992372

_space_group_name_H-M_alt    "P 1"
_space_group_IT_number       1

loop_
  _space_group_symop_operation_xyz
  'x, y, z'

loop_
  _atom_site_type_symbol
  _atom_site_label
  _atom_site_symmetry_multiplicity
  _atom_site_fract_x
  _atom_site_fract_y
  _atom_site_fract_z
  _atom_site_occupancy
  Al  Al1       1.0  0.5120070498442502  0.4948850673920759  0.492624908948109  1.0000
  Al  Al2       1.0  0.013209883492265788  0.4906422148954164  0.4944445266754869  1.0000
  H   H1        1.0  0.264938178908693  0.41791388104451954  0.5855020092071542  1.0000
  H   H2        1.0  0.7221151321399828  0.6366773936480997  0.43827461652324473  1.0000
  H   H3        1.0  0.6855921382540657  0.40776191421930014  0.27214207956522785  1.0000
  H   H4        1.0  0.7716286648902578  0.4062170274253064  0.1301268981744457  1.0000
  H   H5        1.0  0.10664681016909579  0.5783088233184657  0.11027175477077121  1.0000
  H   H6        1.0  0.8031178264944712  0.6056590463399303  0.8725052523739761  1.0000
  H   H7        1.0  0.40456863182885167  0.42958797551577277  0.7221079395978337  1.0000
  H   H8        1.0  0.31959031382869796  0.4218472289746201  0.8640742376339929  1.0000
  H   H9        1.0  0.6951664508041446  0.1164196653189009  0.4262657642796626  1.0000
  H   H10       1.0  0.24086244045839314  0.0996041504957574  0.6218882291605112  1.0000
  H   H11       1.0  0.40986492914802136  0.11115490432883486  0.534346017484431  1.0000
  H   H12       1.0  0.529257557156917  0.8736284801731742  0.5347569250979803  1.0000
  H   H13       1.0  0.3574852090977814  0.864064037081718  0.6220085726935524  1.0000
  C   C1        1.0  0.8653893618420411  0.2691233626308573  0.49149199385465187  1.0000
  C   C2        1.0  0.7026177929240518  0.5063415728325892  0.6319619310238025  1.0000
  C   C3        1.0  0.15619415969454298  0.7201750679658616  0.48928084464908744  1.0000
  C   C4        1.0  0.3136139159828557  0.48545095739720506  0.3569768808667391  1.0000
  C   C5        1.0  0.35044340588750333  0.4884336314560046  0.2715221349775803  1.0000
  C   C6        1.0  0.5598958848609427  0.44251770498591725  0.23576711098286296  1.0000
  C   C7        1.0  0.6081443044044618  0.4423821536484169  0.1567408266233556  1.0000
  C   C8        1.0  0.444273643617336  0.4908273961164226  0.11038632551075982  1.0000
  C   C9        1.0  0.23394451519059334  0.5381760577180329  0.1454074462583463  1.0000
  C   C10       1.0  0.18760141010378822  0.5371864806940536  0.22485505936946742  1.0000
  C   C11       1.0  0.48766048950398044  0.49569681998206505  0.029379146777848995  1.0000
  C   C12       1.0  0.5204450165747333  0.5029182425962516  0.9595613633748741  1.0000
  C   C13       1.0  0.5599986552549013  0.510108745283091  0.878518577868782  1.0000
  C   C14       1.0  0.7166851664826766  0.5652521906061807  0.8399457528746767  1.0000
  C   C15       1.0  0.7619499854533132  0.5696224922211711  0.7603392803551542  1.0000
  C   C16       1.0  0.6531266468616579  0.517349676154126  0.7166002813563566  1.0000
  C   C17       1.0  0.4916787301198937  0.4669749561899508  0.7561050981020117  1.0000
  C   C18       1.0  0.44410021568475583  0.4626846951220712  0.835092808886337  1.0000
  C   C19       1.0  0.9421495635580184  0.13055281708080463  0.48857155722974716  1.0000
  C   C20       1.0  0.08337627433742509  0.8594875125991591  0.48708362275167616  1.0000
  C   C21       1.0  0.1213631650418421  0.058294185775253006  0.5208514137888969  1.0000
  C   C22       1.0  0.9053038880623415  0.9350632574105049  0.4529235360196964  1.0000
  C   C23       1.0  0.1877347463545218  0.9277029744240156  0.5203239418452128  1.0000
  C   C24       1.0  0.8344767809467228  0.0651338554405356  0.45363354403676936  1.0000
  C   C25       1.0  0.2960165113587506  0.062532959110726  0.565165809854804  1.0000
  C   C26       1.0  0.3704760539453174  0.9142727168942386  0.5651896693862709  1.0000
  Cl  Cl1       1.0  0.9268204788781845  0.6050254814654322  0.26199459517880536  1.0000
  Cl  Cl2       1.0  0.9504774416631175  0.6457603789174158  0.7200880161741523  1.0000
  O   O1        1.0  0.6749947844771782  0.32383851035999817  0.47947773421498135  1.0000
  O   O2        1.0  0.8835494967807094  0.5144897803087287  0.5995277766799489  1.0000
  O   O3        1.0  0.022926372126356367  0.6628564085459131  0.4803970846131236  1.0000
  O   O4        1.0  0.45749003151628626  0.5066353784050859  0.3887576187435259  1.0000
  O   O5        1.0  0.3488479583223237  0.6689662013209697  0.5005770312811464  1.0000
  O   O6        1.0  0.14526745334802632  0.461962661185261  0.39146823709617  1.0000
  O   O7        1.0  0.9973419243799527  0.322141783939763  0.5074930900138455  1.0000
  O   O8        1.0  0.5607044302645788  0.48448226728690014  0.5990536587443174  1.0000
  O   O9        1.0  0.2750040551883615  0.4389713714447793  0.5307553031385126  1.0000
  O   O10       1.0  0.749881555963853  0.5504023726576575  0.45978580961814697  1.0000
  F   F1        1.0  0.7948580596582315  0.8802891846444892  0.4155292493757585  1.0000
