data_image0
_chemical_formula_structural       Cd2H56C40N20O12
_chemical_formula_sum              "Cd2 H56 C40 N20 O12"
_cell_length_a       10.252055816065443
_cell_length_b       10.25204110359711
_cell_length_c       15.334282685300472
_cell_angle_alpha    102.04882051441561
_cell_angle_beta     102.04864001134563
_cell_angle_gamma    107.1829868391552

_space_group_name_H-M_alt    "P 1"
_space_group_IT_number       1

loop_
  _space_group_symop_operation_xyz
  'x, y, z'

loop_
  _atom_site_type_symbol
  _atom_site_label
  _atom_site_symmetry_multiplicity
  _atom_site_fract_x
  _atom_site_fract_y
  _atom_site_fract_z
  _atom_site_occupancy
  Cd  Cd1       1.0  0.7910646643586646  0.2089303447560908  0.7500010250992871  1.0000
  Cd  Cd2       1.0  0.2089322349970644  0.7910662991355936  0.25000257224405686  1.0000
  H   H1        1.0  0.5664851929371792  0.31258574980224546  0.9093651149220817  1.0000
  H   H2        1.0  0.3125794972763957  0.5664827760254314  0.4093626369016832  1.0000
  H   H3        1.0  0.43351306318414373  0.6874205927408211  0.09063357053685905  1.0000
  H   H4        1.0  0.6874167581472933  0.4335118072646225  0.5906373053928036  1.0000
  H   H5        1.0  0.5656616092156953  0.1364775732963892  0.8711149466960464  1.0000
  H   H6        1.0  0.1364736989265651  0.5656602974624008  0.3711111754641648  1.0000
  H   H7        1.0  0.43433821175555914  0.8635276588641005  0.12888771828787776  1.0000
  H   H8        1.0  0.8635236043919222  0.43433435026600625  0.6288869721874093  1.0000
  H   H9        1.0  0.4050899010952024  0.16527769027432984  0.8795532625216111  1.0000
  H   H10       1.0  0.16527207137716  0.405086610021293  0.37954747581386516  1.0000
  H   H11       1.0  0.5949116261148505  0.8347296813370804  0.12045061484514007  1.0000
  H   H12       1.0  0.8347245564544609  0.5949090540078287  0.6204520259241377  1.0000
  H   H13       1.0  0.2289070630342778  0.3148143369222751  0.5563940845977199  1.0000
  H   H14       1.0  0.3148168229087034  0.22891496765883795  0.056389514736558476  1.0000
  H   H15       1.0  0.771088946958379  0.6851824010512716  0.4436041791342192  1.0000
  H   H16       1.0  0.6851918522092362  0.7710926676789852  0.9436102244303937  1.0000
  H   H17       1.0  0.19953431357605214  0.1362423088421991  0.4960498719759839  1.0000
  H   H18       1.0  0.1362473111676366  0.1995403274499523  0.9960457998220206  1.0000
  H   H19       1.0  0.8004660730480354  0.8637555802817617  0.5039491969283887  1.0000
  H   H20       1.0  0.8637629603550678  0.8004631206029631  0.00395290973463595  1.0000
  H   H21       1.0  0.345339272605962  0.2764827965773692  0.4911073578326253  1.0000
  H   H22       1.0  0.2764842317842807  0.3453467482806759  0.9911042884189739  1.0000
  H   H23       1.0  0.6546614431901291  0.7235161300528646  0.5088932145846172  1.0000
  H   H24       1.0  0.723521744117086  0.6546618465357881  0.00889715400461446  1.0000
  H   H25       1.0  0.010186053782902608  0.06558753644523561  0.840101939015895  1.0000
  H   H26       1.0  0.065585736385934  0.0101846399218672  0.3401019369006661  1.0000
  H   H27       1.0  0.9898073002291028  0.9344102042397324  0.15989608390333387  1.0000
  H   H28       1.0  0.9344110156917014  0.9898173652540053  0.6598991588073417  1.0000
  H   H29       1.0  0.004219917111079487  0.8960245216869468  0.8560325902748006  1.0000
  H   H30       1.0  0.8960222923702332  0.004218546428028  0.3560311349582292  1.0000
  H   H31       1.0  0.9957788442842885  0.1039775259000706  0.14396880428610356  1.0000
  H   H32       1.0  0.10397781726798173  0.9957845742817568  0.6439712645188749  1.0000
  H   H33       1.0  0.9389139910300911  0.007522005403117795  0.9264911837869859  1.0000
  H   H34       1.0  0.0075179313548404585  0.9389131881598659  0.42648986143070294  1.0000
  H   H35       1.0  0.06108045138174837  0.9924789486771957  0.07350681350901307  1.0000
  H   H36       1.0  0.9924822764363201  0.06109313915062132  0.5735117149736126  1.0000
  H   H37       1.0  0.44300104096427617  0.5959217951088576  0.5654133453528445  1.0000
  H   H38       1.0  0.5959309856288967  0.44299796886633663  0.06541070241511449  1.0000
  H   H39       1.0  0.5569979019949116  0.4040687085674293  0.4345818286190805  1.0000
  H   H40       1.0  0.40407360152457983  0.5570064038703678  0.9345879660725913  1.0000
  H   H41       1.0  0.36732694272923533  0.6260167100442046  0.6576100336267388  1.0000
  H   H42       1.0  0.6260279831055798  0.3673243394878938  0.15760766814553048  1.0000
  H   H43       1.0  0.6326713535670336  0.3739748387546485  0.3423851983853652  1.0000
  H   H44       1.0  0.37397859895365576  0.632680061249019  0.8423919472181963  1.0000
  H   H45       1.0  0.4776784751178624  0.5203462221004856  0.6587176765908893  1.0000
  H   H46       1.0  0.520351880328981  0.477670145072281  0.1587145036627859  1.0000
  H   H47       1.0  0.5223201098453671  0.4796432152476626  0.34127728991440875  1.0000
  H   H48       1.0  0.4796496091069146  0.5223309718579472  0.8412838915952461  1.0000
  H   H49       1.0  0.5332327263485368  0.9022973890536008  0.6462377782057088  1.0000
  H   H50       1.0  0.9023050321395731  0.5332357016723961  0.14624016383011454  1.0000
  H   H51       1.0  0.4667606187132591  0.09769412577204409  0.3537534665585511  1.0000
  H   H52       1.0  0.09769923752298844  0.4667707536931547  0.853760066210647  1.0000
  H   H53       1.0  0.5295016011922443  0.16628801535576804  0.5662196865783784  1.0000
  H   H54       1.0  0.16628973471460992  0.5295106422623449  0.06621622270993299  1.0000
  H   H55       1.0  0.4704947352415303  0.8337128658482486  0.43378379375547377  1.0000
  H   H56       1.0  0.8337141625400263  0.47049473236413775  0.9337844478873123  1.0000
  C   C1        1.0  0.4702283187362824  0.20967509465357645  0.7620473710325086  1.0000
  C   C2        1.0  0.209674527517258  0.4702291695619608  0.2620435941577313  1.0000
  C   C3        1.0  0.5297700558391797  0.7903258577834434  0.2379551121080041  1.0000
  C   C4        1.0  0.7903271380206859  0.529766614905931  0.7379560066893943  1.0000
  C   C5        1.0  0.3580444776651036  0.24297644965535173  0.7117744093532679  1.0000
  C   C6        1.0  0.24297152574904848  0.35804393036299587  0.21176770801812944  1.0000
  C   C7        1.0  0.6419502650947919  0.757025513109383  0.28822638750184376  1.0000
  C   C8        1.0  0.7570278994520976  0.6419539807881806  0.7882292673904343  1.0000
  C   C9        1.0  0.37255354260211243  0.22623122036159765  0.6215706046156058  1.0000
  C   C10       1.0  0.2262325381689365  0.3725621424314269  0.1215674770851578  1.0000
  C   C11       1.0  0.6274364106133774  0.77376536155667  0.3784280586038733  1.0000
  C   C12       1.0  0.7737676002932333  0.6274410071002239  0.8784336263457105  1.0000
  C   C13       1.0  0.503845403578083  0.20591141382982414  0.8606743962889778  1.0000
  C   C14       1.0  0.20590576600307745  0.5038440145197356  0.3606708908315568  1.0000
  C   C15       1.0  0.4961547609771486  0.7940948702478822  0.13932912418469098  1.0000
  C   C16       1.0  0.7940884656909049  0.49615051194825094  0.6393294006331516  1.0000
  C   C17       1.0  0.282346727132591  0.23970521921897608  0.5367997287035564  1.0000
  C   C18       1.0  0.2397077220761616  0.2823526920856736  0.036796297671728  1.0000
  C   C19       1.0  0.7176536450795226  0.7602926554940552  0.46319998822393416  1.0000
  C   C20       1.0  0.7602974973282457  0.7176506211175351  0.9632029607989168  1.0000
  C   C21       1.0  0.8030633790874477  0.9017411818796149  0.7878464106503885  1.0000
  C   C22       1.0  0.9017414236803206  0.8030618683092784  0.2878440444140082  1.0000
  C   C23       1.0  0.196932287321232  0.09825450417672242  0.2121509975918059  1.0000
  C   C24       1.0  0.09825601556526921  0.19694224070100574  0.7121587622734963  1.0000
  C   C25       1.0  0.24555057797289953  0.2809231342555663  0.7430188183861475  1.0000
  C   C26       1.0  0.2809126280885153  0.2455433262389803  0.2430128023087619  1.0000
  C   C27       1.0  0.7544482122464231  0.7190789421533027  0.256981280128521  1.0000
  C   C28       1.0  0.7190851255870073  0.7544438631654629  0.7569869334482175  1.0000
  C   C29       1.0  0.5924636626327883  0.74226818787664  0.6941589327670955  1.0000
  C   C30       1.0  0.7422729367233458  0.592463222156354  0.19415863784181642  1.0000
  C   C31       1.0  0.40753511863632497  0.2577276626729059  0.3058343875926042  1.0000
  C   C32       1.0  0.2577296672054601  0.407544242715268  0.8058421488357936  1.0000
  C   C33       1.0  0.9474334902266154  0.9713863969192578  0.8558735129599953  1.0000
  C   C34       1.0  0.9713870837763494  0.9474354864416057  0.3558743978002851  1.0000
  C   C35       1.0  0.052564584000798206  0.028613546833334207  0.1441261706214121  1.0000
  C   C36       1.0  0.02861444343371031  0.05257188516979741  0.6441294795664659  1.0000
  C   C37       1.0  0.4633335565815385  0.6144186131243643  0.6410349568012137  1.0000
  C   C38       1.0  0.6144263399292599  0.46332897686034624  0.1410318826943637  1.0000
  C   C39       1.0  0.536666749032463  0.38557297808562657  0.3589605740637936  1.0000
  C   C40       1.0  0.3855768989813626  0.5366743227535835  0.858965780877142  1.0000
  N   N1        1.0  0.548205144961358  0.17620507485090542  0.7060982185138941  1.0000
  N   N2        1.0  0.1762075749580133  0.5482068245391004  0.20609641280341148  1.0000
  N   N3        1.0  0.45179417935596433  0.8237927354237727  0.293903293056502  1.0000
  N   N4        1.0  0.8237900287085296  0.45178883187372776  0.7939045344072682  1.0000
  N   N5        1.0  0.4875478233645297  0.187707437751051  0.6218823137572542  1.0000
  N   N6        1.0  0.18771436050612783  0.4875492075448948  0.1218836538517607  1.0000
  N   N7        1.0  0.5124556204720889  0.8122905582224008  0.3781152593571164  1.0000
  N   N8        1.0  0.8122932321012044  0.512446603279919  0.8781213797158995  1.0000
  N   N9        1.0  0.7318245391757614  0.9739542692172308  0.7461457680882758  1.0000
  N   N10       1.0  0.9739587918233424  0.7318249703199412  0.24614613718311765  1.0000
  N   N11       1.0  0.2681735521945114  0.026042583222100305  0.2538495543809702  1.0000
  N   N12       1.0  0.026041043559885693  0.2681802762514779  0.7538558797776814  1.0000
  N   N13       1.0  0.6048796786985163  0.8758078206434945  0.6903356791641073  1.0000
  N   N14       1.0  0.8758146451780817  0.6048801244803955  0.19033505560240374  1.0000
  N   N15       1.0  0.39512614107190563  0.1241795672273653  0.3096639559582357  1.0000
  N   N16       1.0  0.12418630742893547  0.3951283643082277  0.8096656396889373  1.0000
  N   N17       1.0  0.71561325173343  0.14015443653010354  0.4974999917774526  1.0000
  N   N18       1.0  0.14015634086596404  0.7156168769406718  0.9975020986945963  1.0000
  N   N19       1.0  0.28439468129953843  0.8598479316053942  0.5024969154134311  1.0000
  N   N20       1.0  0.8598454056820657  0.2843852054411897  0.002501040191894731  1.0000
  O   O1        1.0  0.7509498820600555  0.11550246037992913  0.5754712034462912  1.0000
  O   O2        1.0  0.11549818960779128  0.7509497322757782  0.07547229293683697  1.0000
  O   O3        1.0  0.24906363478842053  0.8845168248964654  0.42453550344189483  1.0000
  O   O4        1.0  0.8844969602732106  0.24904472893220483  0.9245320360930334  1.0000
  O   O5        1.0  0.7939527790321677  0.14717109024069694  0.4454914617875048  1.0000
  O   O6        1.0  0.14718019872300656  0.7939632719469855  0.945496334131782  1.0000
  O   O7        1.0  0.20603666311741614  0.8528180553808298  0.5545066960415709  1.0000
  O   O8        1.0  0.8528198793603821  0.2060429256651446  0.05451107448060096  1.0000
  O   O9        1.0  0.5944581390290439  0.1564294325202695  0.47307521092438515  1.0000
  O   O10       1.0  0.15642984160085396  0.5944630626410827  0.973073905692871  1.0000
  O   O11       1.0  0.4055381568996949  0.843568299726769  0.5269265003897842  1.0000
  O   O12       1.0  0.8435770408064373  0.4055423467802584  0.02692850922996115  1.0000
