data_image0
_chemical_formula_structural       Zn2H40C48N10O34
_chemical_formula_sum              "Zn2 H40 C48 N10 O34"
_cell_length_a       11.084063389138402
_cell_length_b       12.616825654585366
_cell_length_c       13.635655261954218
_cell_angle_alpha    79.88341602496884
_cell_angle_beta     83.70976023402498
_cell_angle_gamma    77.26835089721045

_space_group_name_H-M_alt    "P 1"
_space_group_IT_number       1

loop_
  _space_group_symop_operation_xyz
  'x, y, z'

loop_
  _atom_site_type_symbol
  _atom_site_label
  _atom_site_symmetry_multiplicity
  _atom_site_fract_x
  _atom_site_fract_y
  _atom_site_fract_z
  _atom_site_occupancy
  Zn  Zn1       1.0  0.47140496145889443  0.6164741152139472  0.509218861667719  1.0000
  Zn  Zn2       1.0  0.5304505236360555  0.38632857290165407  0.4852897922298496  1.0000
  H   H1        1.0  0.9154417396046312  0.5599066676177176  0.34586935937111457  1.0000
  H   H2        1.0  0.11981806414222254  0.5427878465733545  0.35108211669417944  1.0000
  H   H3        1.0  0.0984366245552053  0.6484218017278496  0.42243500789678723  1.0000
  H   H4        1.0  0.39895530877095103  0.563636264202792  0.8358405729933837  1.0000
  H   H5        1.0  0.3252844356606844  0.7271636811995708  0.6608961169451391  1.0000
  H   H6        1.0  0.34120957811411756  0.08821033184640469  0.7233395929165809  1.0000
  H   H7        1.0  0.2952387282024985  0.89946781790146  0.7341888384230443  1.0000
  H   H8        1.0  0.7150676582120636  0.27744798918138264  0.35408967199433755  1.0000
  H   H9        1.0  0.713872086038009  0.930596785269849  0.40425925716789385  1.0000
  H   H10       1.0  0.43703411773834216  0.2381194200617928  0.628406848807593  1.0000
  H   H11       1.0  0.7077743334200689  0.49751962237822783  0.695936473437861  1.0000
  H   H12       1.0  0.777051105461325  0.4260509253465656  0.8075037379229926  1.0000
  H   H13       1.0  0.7507493108975325  0.3501886075201314  0.7142399700110857  1.0000
  H   H14       1.0  0.5867913521037168  0.08717809047143993  0.8637444644964702  1.0000
  H   H15       1.0  0.7452078025269983  0.09229495415791433  0.8227250907396878  1.0000
  H   H16       1.0  0.6409413919113688  0.08174141002405123  0.7352050301481938  1.0000
  H   H17       1.0  0.556019929830228  0.16888697313236636  0.23477275289462085  1.0000
  H   H18       1.0  0.6871917572286391  0.087502363497542  0.1736457036714469  1.0000
  H   H19       1.0  0.5581203213842727  0.15960686107560926  0.1047474613719643  1.0000
  H   H20       1.0  0.8453457699117592  0.22555223258833484  0.8641339936425538  1.0000
  H   H21       1.0  0.8789003130971621  0.13165776939838747  0.97772983465466  1.0000
  H   H22       1.0  0.8320957877463541  0.2762525974497123  0.9811382057526856  1.0000
  H   H23       1.0  0.2156303346927402  0.8848846503255887  0.2246521640094272  1.0000
  H   H24       1.0  0.3681485760893464  0.8152207372005835  0.26082839705625815  1.0000
  H   H25       1.0  0.24095640988480235  0.8297807796023735  0.35386948710878124  1.0000
  H   H26       1.0  0.645577918458926  0.6153314092348057  0.188849020730828  1.0000
  H   H27       1.0  0.7908704729526406  0.5407047598510887  0.14048598773244686  1.0000
  H   H28       1.0  0.7570512565301967  0.5372677655807864  0.2729209721480075  1.0000
  H   H29       1.0  0.9292750139862279  0.9336233371003576  0.36736864792979407  1.0000
  H   H30       1.0  0.9822677994363713  0.9961436902177784  0.24592845206877456  1.0000
  H   H31       1.0  0.8432528838763246  0.9426347288850399  0.26159609592600214  1.0000
  H   H32       1.0  0.8539355460075555  0.7327503599034773  0.7067291723269307  1.0000
  H   H33       1.0  0.8984327614635461  0.5939436139135311  0.7703628797639155  1.0000
  H   H34       1.0  0.7380024704452026  0.6545696030683248  0.7564638459995834  1.0000
  H   H35       1.0  0.9058565872751387  0.30529418916087553  0.2643487144768386  1.0000
  H   H36       1.0  0.042122964210619784  0.24611641881265472  0.3288693508046521  1.0000
  H   H37       1.0  0.03878770265936988  0.3686947881346826  0.2377568980702733  1.0000
  H   H38       1.0  0.24781859030923667  0.21913534760380324  0.32884197585322994  1.0000
  H   H39       1.0  0.3341111474733082  0.2540246764699178  0.41815460766790113  1.0000
  H   H40       1.0  0.3236968018325045  0.33488099354305234  0.2974587299153272  1.0000
  C   C1        1.0  0.4605952157362906  0.5597399300656323  0.3109268377787373  1.0000
  C   C2        1.0  0.7387600976763125  0.5032693445459204  0.49544531378990797  1.0000
  C   C3        1.0  0.4919467468041248  0.4525871172210574  0.6904092278405329  1.0000
  C   C4        1.0  0.2674909128831757  0.4800615156432572  0.507404145712762  1.0000
  C   C5        1.0  0.9314520592805238  0.5823978351532235  0.4160092051432258  1.0000
  C   C6        1.0  0.0731585152168606  0.5705674044095306  0.4196157414075826  1.0000
  C   C7        1.0  0.9125701063398993  0.5158557859566955  0.6090669497115967  1.0000
  C   C8        1.0  0.9572306806714579  0.38588190672759753  0.4648529240090226  1.0000
  C   C9        1.0  0.8816342535331642  0.49857886500993953  0.5004998372479295  1.0000
  C   C10       1.0  0.12637222433099984  0.4830236873304943  0.5084332354028192  1.0000
  C   C11       1.0  0.058565237201222003  0.5180563915998492  0.6068173425778198  1.0000
  C   C12       1.0  0.10458890314069436  0.37185527272404784  0.47839347253442815  1.0000
  C   C13       1.0  0.6044482278061877  0.2836341530011382  0.9359147798498029  1.0000
  C   C14       1.0  0.5006488220687828  0.4112020692166072  0.7999828805095319  1.0000
  C   C15       1.0  0.30418398016969656  0.6618366268675193  0.19158663097318396  1.0000
  C   C16       1.0  0.24339339103845972  0.6665200559817563  0.10481018081323872  1.0000
  C   C17       1.0  0.2944322204090639  0.5983312750644033  0.0345411031299605  1.0000
  C   C18       1.0  0.41207219832485015  0.528844914375327  0.041964634149508094  1.0000
  C   C19       1.0  0.4746691398072754  0.5237964725466783  0.1301006176058621  1.0000
  C   C20       1.0  0.4683731575492231  0.45717231534862907  0.9694777045654064  1.0000
  C   C21       1.0  0.5541708075413039  0.358429378902578  0.0037599557212005187  1.0000
  C   C22       1.0  0.603282452600851  0.3482751049629089  0.09953060476333056  1.0000
  C   C23       1.0  0.5871019296372282  0.44118914062945436  0.1452630030143851  1.0000
  C   C24       1.0  0.450130608439089  0.48309376415159044  0.8673062368309842  1.0000
  C   C25       1.0  0.5702135296033363  0.30465674443593127  0.8368217333475769  1.0000
  C   C26       1.0  0.4176756796507489  0.5876117195233521  0.2060434232531918  1.0000
  C   C27       1.0  0.35591638393533737  0.8891679588016007  0.6665592372348783  1.0000
  C   C28       1.0  0.6802153326663714  0.20710369788445604  0.39580756481473867  1.0000
  C   C29       1.0  0.7333072564144414  0.09979748962709321  0.3753161809742025  1.0000
  C   C30       1.0  0.6756853864040692  0.013975965911932108  0.4190645003428414  1.0000
  C   C31       1.0  0.5713969949293656  0.03558823207750811  0.48727902124790745  1.0000
  C   C32       1.0  0.5381233010293583  0.14073213602837606  0.5179719006101138  1.0000
  C   C33       1.0  0.498048466708866  0.9553730449595582  0.5321771226881323  1.0000
  C   C34       1.0  0.4193176896506399  0.9726554757496334  0.6207149937179111  1.0000
  C   C35       1.0  0.40212377828527207  0.07506079388920743  0.6563196727496888  1.0000
  C   C36       1.0  0.45460164990998914  0.15828166647308717  0.6037341287149472  1.0000
  C   C37       1.0  0.4908514269662946  0.8621640003694894  0.49125143836661783  1.0000
  C   C38       1.0  0.3693735919815139  0.7946240577519746  0.625603391004077  1.0000
  C   C39       1.0  0.7753124410371582  0.4256286962188228  0.7271372567248874  1.0000
  C   C40       1.0  0.6491738154851561  0.11652987293530263  0.8017915218667326  1.0000
  C   C41       1.0  0.6148769873433579  0.16223762533086022  0.16482928959149493  1.0000
  C   C42       1.0  0.819852007338234  0.20846281103978737  0.9448066765421004  1.0000
  C   C43       1.0  0.26853352071291436  0.8183831453828037  0.27612133189035143  1.0000
  C   C44       1.0  0.7178687360861461  0.5404764381238183  0.202064228848208  1.0000
  C   C45       1.0  0.9008360074765775  0.9841389177280323  0.29619285406591433  1.0000
  C   C46       1.0  0.8325044974993856  0.6502418647094858  0.7209271802879086  1.0000
  C   C47       1.0  0.9847591040492673  0.32311881479859045  0.2957657473786597  1.0000
  C   C48       1.0  0.2744408364120119  0.28653110797211684  0.3568594182157767  1.0000
  N   N1        1.0  0.4349088792018847  0.781664992126608  0.5360665899542951  1.0000
  N   N2        1.0  0.5897043409813135  0.22544799366485085  0.4664793801006013  1.0000
  N   N3        1.0  0.870498161239162  0.7052799211486801  0.395944793453296  1.0000
  N   N4        1.0  0.14421827632933323  0.26508200157705636  0.5538394967841143  1.0000
  N   N5        1.0  0.12419464932619918  0.45628011046962785  0.7049670391232894  1.0000
  N   N6        1.0  0.21614616425952693  0.5971395885354486  0.9534784720499089  1.0000
  N   N7        1.0  0.11834256624501195  0.7354045149655448  0.09585835378609178  1.0000
  N   N8        1.0  0.5283690574915951  0.8616738753300694  0.3822362609673108  1.0000
  N   N9        1.0  0.076230785813209  0.6398042631539199  0.6146892292467427  1.0000
  N   N10       1.0  0.9102534402188809  0.2712400469950894  0.5225255497406494  1.0000
  O   O1        1.0  0.4693377233152346  0.6371684770909384  0.3559645928217421  1.0000
  O   O2        1.0  0.48059681760224743  0.458099920825312  0.3465095671921361  1.0000
  O   O3        1.0  0.66433387382569  0.5926489394340139  0.5053838732424225  1.0000
  O   O4        1.0  0.7097433531029366  0.4162833265798939  0.4795880019379126  1.0000
  O   O5        1.0  0.4647914750309069  0.5565472711258298  0.6618254882225472  1.0000
  O   O6        1.0  0.5185550866173045  0.3813564142926254  0.632329239462976  1.0000
  O   O7        1.0  0.2959827810588321  0.5722557814723929  0.506493885888311  1.0000
  O   O8        1.0  0.33897753678306936  0.38799396871821323  0.5045632593580294  1.0000
  O   O9        1.0  0.8168857011228636  0.7593608520264826  0.45995907414387455  1.0000
  O   O10       1.0  0.886162693479136  0.7432844411601423  0.305846864577525  1.0000
  O   O11       1.0  0.1421518115511944  0.27165736384165484  0.6426752678194632  1.0000
  O   O12       1.0  0.16827589496788414  0.17872689727284552  0.5178796983026359  1.0000
  O   O13       1.0  0.8978388441676797  0.42754144120603155  0.6819245482020334  1.0000
  O   O14       1.0  0.23709741395111186  0.42395593402015663  0.6940641855773039  1.0000
  O   O15       1.0  0.06183273428570146  0.4522333062128327  0.7847476102004052  1.0000
  O   O16       1.0  0.6131451984065066  0.23352773292718615  0.7714438555490941  1.0000
  O   O17       1.0  0.6774279310907475  0.25391121614418216  0.1419199312737902  1.0000
  O   O18       1.0  0.6944214122603255  0.1915519344928995  0.9636243039027264  1.0000
  O   O19       1.0  0.23922506316294093  0.714682441341765  0.26611747838009586  1.0000
  O   O20       1.0  0.19458855324068491  0.6823352325563335  0.8915625842489092  1.0000
  O   O21       1.0  0.1779264703824595  0.5124343525316278  0.9548408414957521  1.0000
  O   O22       1.0  0.10640842087202877  0.8345861602185071  0.09962492907458649  1.0000
  O   O23       1.0  0.033860171072809905  0.6892811550984989  0.08535230557001944  1.0000
  O   O24       1.0  0.6692028470562335  0.4413644570983381  0.212424880543665  1.0000
  O   O25       1.0  0.6070512708552228  0.7861461092017735  0.3544992468637531  1.0000
  O   O26       1.0  0.47045159617380966  0.941632005196361  0.3272664678298725  1.0000
  O   O27       1.0  0.8360729830642132  0.09242303552166221  0.31245081561161203  1.0000
  O   O28       1.0  0.8355555207489188  0.6145453463751098  0.625586173691687  1.0000
  O   O29       1.0  0.02940356839506106  0.7160874705457518  0.5525670060905199  1.0000
  O   O30       1.0  0.13281508207765574  0.648792106575243  0.6843322811823072  1.0000
  O   O31       1.0  0.8983851662595013  0.24948847401206112  0.613567976224644  1.0000
  O   O32       1.0  0.8983156567657034  0.2106475544200421  0.4643977916354983  1.0000
  O   O33       1.0  0.9309156887811342  0.39560698118309295  0.3680577503289158  1.0000
  O   O34       1.0  0.16364256722803114  0.3630617290794548  0.3846560401730769  1.0000
