data_image0
_chemical_formula_structural       Zn8H96C120N16O32
_chemical_formula_sum              "Zn8 H96 C120 N16 O32"
_cell_length_a       12.270477664381415
_cell_length_b       20.014699742319404
_cell_length_c       20.014747057554313
_cell_angle_alpha    103.08318817030826
_cell_angle_beta     93.82773263093807
_cell_angle_gamma    93.82740273824602

_space_group_name_H-M_alt    "P 1"
_space_group_IT_number       1

loop_
  _space_group_symop_operation_xyz
  'x, y, z'

loop_
  _atom_site_type_symbol
  _atom_site_label
  _atom_site_symmetry_multiplicity
  _atom_site_fract_x
  _atom_site_fract_y
  _atom_site_fract_z
  _atom_site_occupancy
  Zn  Zn1       1.0  0.8077023122540441  0.6084517885832239  0.11548507896760894  1.0000
  Zn  Zn2       1.0  0.616565089668768  0.6653137425536498  0.15461600470023734  1.0000
  Zn  Zn3       1.0  0.9216243410300609  0.19933415462128315  0.9293949820713576  1.0000
  Zn  Zn4       1.0  0.01483715305798939  0.3520309275639946  0.08715997749788328  1.0000
  Zn  Zn5       1.0  0.307704212098038  0.1154846256305362  0.6084526323407075  1.0000
  Zn  Zn6       1.0  0.11656247584892301  0.15461444419482714  0.6653122694288668  1.0000
  Zn  Zn7       1.0  0.4216277100910517  0.9293964368028323  0.19933402354106272  1.0000
  Zn  Zn8       1.0  0.5148386017749119  0.0871597440994805  0.35202974653550706  1.0000
  H   H1        1.0  0.5125270553747611  0.728667329330953  0.2860798650232112  1.0000
  H   H2        1.0  0.4294405431517916  0.6514196228513638  0.24637631562653425  1.0000
  H   H3        1.0  0.29163227660899343  0.8411614118524399  0.2818718274454923  1.0000
  H   H4        1.0  0.433223912080379  0.8372227041089455  0.30683230918714327  1.0000
  H   H5        1.0  0.3234865628913823  0.7998926464479297  0.09719942508594669  1.0000
  H   H6        1.0  0.2275021493485525  0.8189125898019965  0.16142222086399724  1.0000
  H   H7        1.0  0.18074778588706406  0.7377201171270327  0.22757730067097973  1.0000
  H   H8        1.0  0.23954911145628444  0.656290604527001  0.21215849040245868  1.0000
  H   H9        1.0  0.3639944408156381  0.6295649190977669  0.12631221042403948  1.0000
  H   H10       1.0  0.4013403040391951  0.6900232423890812  0.07645270397419066  1.0000
  H   H11       1.0  0.5135297971182453  0.7952560477758722  0.13018393569821993  1.0000
  H   H12       1.0  0.5620426368622731  0.8107966167395374  0.21881480673728498  1.0000
  H   H13       1.0  0.047320128637309694  0.6004972876706205  0.17671571243832318  1.0000
  H   H14       1.0  0.05952757292737227  0.649608718433974  0.11282641778548444  1.0000
  H   H15       1.0  0.8631759661220428  0.4624164158175714  0.06807665635695057  1.0000
  H   H16       1.0  0.9353843581152077  0.4930046519799448  0.1508231540132101  1.0000
  H   H17       1.0  0.9610619981723474  0.6080267107387627  0.00042960603119010965  1.0000
  H   H18       1.0  0.8786518885998263  0.5280408432992444  0.9814122474947948  1.0000
  H   H19       1.0  0.20709213175418742  0.4636794205725962  0.09015555502713822  1.0000
  H   H20       1.0  0.13450818444704282  0.49331307606970404  0.16370615769643138  1.0000
  H   H21       1.0  0.15642063378489013  0.6100922973163421  0.015013712628913784  1.0000
  H   H22       1.0  0.22107393561047667  0.5313240212450195  0.00423105047687502  1.0000
  H   H23       1.0  0.9638353441188201  0.4220504536415178  0.9681168943692597  1.0000
  H   H24       1.0  0.10983100828440939  0.42254718379274425  0.978581651706058  1.0000
  H   H25       1.0  0.6475769253367502  0.8390070888182773  0.059164237671360725  1.0000
  H   H26       1.0  0.6230753013776251  0.9554918755352587  0.04485425193300329  1.0000
  H   H27       1.0  0.6909934556180843  0.05890791001660027  0.003831726128943591  1.0000
  H   H28       1.0  0.9603995446074195  0.9523590530449296  0.9177947159510392  1.0000
  H   H29       1.0  0.9892686226034686  0.8352047044054841  0.9365950994853945  1.0000
  H   H30       1.0  0.9290089665011579  0.7365034091915773  0.9860651388045836  1.0000
  H   H31       1.0  0.8044666133884135  0.4511650204486059  0.22091052557757246  1.0000
  H   H32       1.0  0.4506419747545607  0.41501473691099  0.3216396304024868  1.0000
  H   H33       1.0  0.4885676393202303  0.5174645942098549  0.2730938118281755  1.0000
  H   H34       1.0  0.8609504882629013  0.3409483472031524  0.24157034750854217  1.0000
  H   H35       1.0  0.8247509686176927  0.23877890907454002  0.2916756405099861  1.0000
  H   H36       1.0  0.5091834937982256  0.3050898022534269  0.3451967920694371  1.0000
  H   H37       1.0  0.7536136365267794  0.8325763005382921  0.3300294394444449  1.0000
  H   H38       1.0  0.7697900949853533  0.9371544181641833  0.42489991117737685  1.0000
  H   H39       1.0  0.17424623162474262  0.9250268714080931  0.45374086199607433  1.0000
  H   H40       1.0  0.15653990598332257  0.8149840871708774  0.3631889008726929  1.0000
  H   H41       1.0  0.03879041279943606  0.7279892498824194  0.2736811324691785  1.0000
  H   H42       1.0  0.8870933404707061  0.0255141645251555  0.514612710189162  1.0000
  H   H43       1.0  0.6851773730325804  0.38769809499064667  0.11166528449761157  1.0000
  H   H44       1.0  0.483223330562339  0.38677864055103567  0.11679655320632064  1.0000
  H   H45       1.0  0.29677909441404193  0.33883700213371526  0.06770675384175456  1.0000
  H   H46       1.0  0.6430910092093285  0.22411346215501735  0.9283923944311568  1.0000
  H   H47       1.0  0.45440611104685763  0.1720407932116714  0.8815699022032671  1.0000
  H   H48       1.0  0.2530452177611551  0.1713089827905207  0.8873744819157848  1.0000
  H   H49       1.0  0.012526473636434277  0.28607907437973507  0.7286694705308178  1.0000
  H   H50       1.0  0.9294414632984527  0.24637605360006623  0.65142058128675  1.0000
  H   H51       1.0  0.7916286490766069  0.28187121426950057  0.8411607039632186  1.0000
  H   H52       1.0  0.9332183545167895  0.30683082439617937  0.8372223458255305  1.0000
  H   H53       1.0  0.8234847975952491  0.09719856650486489  0.7998915625568087  1.0000
  H   H54       1.0  0.7274991683145162  0.16142028776681627  0.8189114690233124  1.0000
  H   H55       1.0  0.6807452117611064  0.22757677253600408  0.7377186346249118  1.0000
  H   H56       1.0  0.7395482363457547  0.21215745201977398  0.6562901228314856  1.0000
  H   H57       1.0  0.8639941256216375  0.12631148066220987  0.6295654746196675  1.0000
  H   H58       1.0  0.9013394312617892  0.07645148237758549  0.6900240891414241  1.0000
  H   H59       1.0  0.013528055483696688  0.13018280433404775  0.7952571077859644  1.0000
  H   H60       1.0  0.06203997987980609  0.21881442103576618  0.8107976375069654  1.0000
  H   H61       1.0  0.5473168805260827  0.17671667107899214  0.6004969544020753  1.0000
  H   H62       1.0  0.5595263714942504  0.11282832100026498  0.6496086709226246  1.0000
  H   H63       1.0  0.3631757368043295  0.06807568426474829  0.4624163459017296  1.0000
  H   H64       1.0  0.4353820696586014  0.15082236543255328  0.4930031866180825  1.0000
  H   H65       1.0  0.46106240311328867  0.0004303091988049002  0.6080259383279127  1.0000
  H   H66       1.0  0.37865427844031535  0.981413162282898  0.5280399584757021  1.0000
  H   H67       1.0  0.707091047076247  0.09015662319243488  0.46368055606213676  1.0000
  H   H68       1.0  0.634505452933908  0.1637072190662748  0.4933123111408547  1.0000
  H   H69       1.0  0.6564219200816482  0.015016432401019093  0.6100938018515406  1.0000
  H   H70       1.0  0.7210748761013052  0.0042345089870111  0.5313255671063857  1.0000
  H   H71       1.0  0.4638387175836484  0.9681165743144002  0.4220507692489831  1.0000
  H   H72       1.0  0.6098336862926672  0.9785827950725403  0.4225486428095094  1.0000
  H   H73       1.0  0.1475815004219712  0.05916489178371621  0.8390057226456307  1.0000
  H   H74       1.0  0.1230768538600628  0.044854108751792396  0.9554907241752131  1.0000
  H   H75       1.0  0.19099043001542526  0.003829383808096099  0.05890627079990201  1.0000
  H   H76       1.0  0.46039971605248553  0.9177929498576842  0.9523600519054723  1.0000
  H   H77       1.0  0.48927134149905527  0.9365932013160996  0.8352057413133874  1.0000
  H   H78       1.0  0.4290144193049627  0.9860625949916152  0.7365028769610118  1.0000
  H   H79       1.0  0.30446388331706226  0.2209092984299018  0.4511660782255403  1.0000
  H   H80       1.0  0.9506404612824398  0.321641098529497  0.41501486564396106  1.0000
  H   H81       1.0  0.9885650808223971  0.2730949747400117  0.517464064906818  1.0000
  H   H82       1.0  0.36095061545999135  0.2415704629513584  0.34095041784945573  1.0000
  H   H83       1.0  0.32475179574129953  0.29167616018917636  0.23878030714945447  1.0000
  H   H84       1.0  0.009182571061863582  0.34519918141486977  0.30509045842729415  1.0000
  H   H85       1.0  0.2536088352724589  0.3300341162452014  0.8325803096037844  1.0000
  H   H86       1.0  0.2697888365252724  0.4249032317804762  0.937157565630194  1.0000
  H   H87       1.0  0.6742413894029937  0.4537407729867055  0.9250274648131975  1.0000
  H   H88       1.0  0.6565336200332084  0.3631869112313169  0.814984063940926  1.0000
  H   H89       1.0  0.5387796929512589  0.27367982291220716  0.7279904997999721  1.0000
  H   H90       1.0  0.387092191634359  0.5146167291127312  0.025517447478989676  1.0000
  H   H91       1.0  0.18517862506310223  0.11166466202313788  0.3877007354018716  1.0000
  H   H92       1.0  0.9832236771093648  0.11679654366722757  0.3867795829282484  1.0000
  H   H93       1.0  0.7967798317201585  0.06770719986447198  0.3388350533710848  1.0000
  H   H94       1.0  0.14309213941163523  0.9283945779920156  0.224113013383409  1.0000
  H   H95       1.0  0.9544074520455652  0.881570665678538  0.1720421596263932  1.0000
  H   H96       1.0  0.7530477024940655  0.8873748361721565  0.17130932949450536  1.0000
  C   C1        1.0  0.44302741181039823  0.7065672434804426  0.24830332413783648  1.0000
  C   C2        1.0  0.36481797943383043  0.8141186588638474  0.2684991872036092  1.0000
  C   C3        1.0  0.3009266205932164  0.792201303947614  0.14725441579989243  1.0000
  C   C4        1.0  0.2546452869271434  0.7114118117420459  0.2139840123601644  1.0000
  C   C5        1.0  0.3787914561007284  0.6844171206869162  0.12717706533754838  1.0000
  C   C6        1.0  0.4929560769508328  0.7886389378656701  0.18084874799209416  1.0000
  C   C7        1.0  0.05254800648651069  0.5973501419346475  0.12152996105796626  1.0000
  C   C8        1.0  0.9391619463676265  0.4899623112807846  0.09559399973247203  1.0000
  C   C9        1.0  0.955137159880863  0.5555404031915855  0.008412402615242263  1.0000
  C   C10       1.0  0.1371433827095885  0.49183327358359447  0.10866852097892375  1.0000
  C   C11       1.0  0.1495612155648374  0.5575034715795367  0.02307261932453736  1.0000
  C   C12       1.0  0.039256664756429395  0.4505825339143997  0.9959067665600186  1.0000
  C   C13       1.0  0.7534316201520141  0.7246103792609445  0.05895350386624182  1.0000
  C   C14       1.0  0.7846598604783422  0.7822252142903848  0.026002152735855922  1.0000
  C   C15       1.0  0.7224793365265398  0.8382650349528048  0.03271947085871565  1.0000
  C   C16       1.0  0.755882704041106  0.8957874700015864  0.006801312681098117  1.0000
  C   C17       1.0  0.6968539266958088  0.9554924478994733  0.01725186319579555  1.0000
  C   C18       1.0  0.7337373166243211  0.0121187980087072  0.9943430213951386  1.0000
  C   C19       1.0  0.8871264850740703  0.9524884156007969  0.9458291681238506  1.0000
  C   C20       1.0  0.9147472391912288  0.8357738920597768  0.9635594466507553  1.0000
  C   C21       1.0  0.8816222044271953  0.7812092077789357  0.9907136489385662  1.0000
  C   C22       1.0  0.8293339641440625  0.010560958347951998  0.957780967440861  1.0000
  C   C23       1.0  0.8710855943538791  0.0722075118609666  0.9339392573902855  1.0000
  C   C24       1.0  0.8537386851871248  0.8945938410617911  0.9711481734131481  1.0000
  C   C25       1.0  0.6711403341578688  0.5495620489980408  0.211662562921127  1.0000
  C   C26       1.0  0.6498947806726464  0.4904190353761918  0.244424030015196  1.0000
  C   C27       1.0  0.7276406152152434  0.4431598692331349  0.24342026859212496  1.0000
  C   C28       1.0  0.7084692533984339  0.38411026019831945  0.2697703535501006  1.0000
  C   C29       1.0  0.6068193838256377  0.3739926928554381  0.2991051016252229  1.0000
  C   C30       1.0  0.5284795888714556  0.42343522005304374  0.300156231868712  1.0000
  C   C31       1.0  0.5491084210649007  0.4800872833270089  0.2732670638780802  1.0000
  C   C32       1.0  0.7860682674100448  0.3341387745485419  0.26674011535713044  1.0000
  C   C33       1.0  0.7656468771105338  0.2773033497320511  0.2933423426680974  1.0000
  C   C34       1.0  0.586995988745734  0.3140330950776117  0.32414098761317683  1.0000
  C   C35       1.0  0.6647285993019028  0.2666222641395206  0.3218152010727592  1.0000
  C   C36       1.0  0.6425437041279312  0.2021717487856094  0.34657632954538536  1.0000
  C   C37       1.0  0.8233460561025508  0.7259986305990862  0.2383853216386455  1.0000
  C   C38       1.0  0.8896970348197046  0.7763831337608521  0.29590877447971303  1.0000
  C   C39       1.0  0.8416840998590942  0.8291455433976507  0.3376993753822218  1.0000
  C   C40       1.0  0.9054494198220909  0.8792908520183712  0.38915453154921653  1.0000
  C   C41       1.0  0.8581270498931559  0.9342634785601615  0.4322275010292669  1.0000
  C   C42       1.0  0.08558739905474505  0.9268579611952529  0.4476498654763786  1.0000
  C   C43       1.0  0.02173510653598493  0.875231272693696  0.39766125295257365  1.0000
  C   C44       1.0  0.06860500108534498  0.8193942891576143  0.35541830119759504  1.0000
  C   C45       1.0  0.0042040716744366725  0.7713425858380487  0.3060191461698948  1.0000
  C   C46       1.0  0.037149721497179634  0.979618368366374  0.4892160731901141  1.0000
  C   C47       1.0  0.10467091664845192  0.0337704374393581  0.5426371909386134  1.0000
  C   C48       1.0  0.9219893198270342  0.9828330062166156  0.48131586586192276  1.0000
  C   C49       1.0  0.6750897638381304  0.30628337986922816  0.018732586616827977  1.0000
  C   C50       1.0  0.796108745007551  0.3071579936877384  0.01691874684364336  1.0000
  C   C51       1.0  0.6300849698331419  0.35211254588381985  0.07285751222380549  1.0000
  C   C52       1.0  0.5185051518403796  0.3514505082898367  0.07563015454094567  1.0000
  C   C53       1.0  0.33204173066493337  0.30355382025274485  0.026513435831901702  1.0000
  C   C54       1.0  0.1431623631690115  0.25887963372166917  0.9794855941706117  1.0000
  C   C55       1.0  0.4469639418409627  0.3044029553110476  0.02516981814689248  1.0000
  C   C56       1.0  0.49212851822561987  0.2569727873650435  0.9711111940847201  1.0000
  C   C57       1.0  0.6071733552542258  0.259835817021127  0.9688677788405683  1.0000
  C   C58       1.0  0.4199464093818436  0.20877279737158713  0.9219993231825256  1.0000
  C   C59       1.0  0.263732014481235  0.2568484977000621  0.9770811361981089  1.0000
  C   C60       1.0  0.30825674957305443  0.2082361774234656  0.9249816564011296  1.0000
  C   C61       1.0  0.9430284552567728  0.24830187509723328  0.7065669156382056  1.0000
  C   C62       1.0  0.8648144633000997  0.26849858816444777  0.8141183944189834  1.0000
  C   C63       1.0  0.8009238473533673  0.1472531452420824  0.7922002704511895  1.0000
  C   C64       1.0  0.754643376076011  0.21398285259836308  0.7114118165448388  1.0000
  C   C65       1.0  0.8787900620689799  0.12717604119667666  0.6844176089969309  1.0000
  C   C66       1.0  0.9929541148354133  0.18084766965570506  0.7886395274671756  1.0000
  C   C67       1.0  0.5525461854860155  0.12153165007703139  0.5973496992887276  1.0000
  C   C68       1.0  0.4391620428955605  0.0955941534495821  0.4899613640604912  1.0000
  C   C69       1.0  0.45513894330377264  0.008413797340082897  0.5555405687867179  1.0000
  C   C70       1.0  0.6371413106428605  0.10866977195271937  0.4918339016903133  1.0000
  C   C71       1.0  0.6495622046757462  0.023075928252936296  0.5575052330029917  1.0000
  C   C72       1.0  0.5392580129216569  0.9959078625657867  0.45058343127152506  1.0000
  C   C73       1.0  0.2534380501747151  0.0589529338362382  0.724608999922701  1.0000
  C   C74       1.0  0.28466436422261415  0.026001230201003995  0.7822230820716456  1.0000
  C   C75       1.0  0.22248264725773487  0.03272032284976229  0.8382642506477466  1.0000
  C   C76       1.0  0.25588743097868166  0.0068005420064238984  0.8957866790245318  1.0000
  C   C77       1.0  0.19685599445499247  0.0172515581776977  0.9554909521761558  1.0000
  C   C78       1.0  0.23373764200202626  0.9943405950568117  0.012117457463766272  1.0000
  C   C79       1.0  0.3871284116984485  0.9458281467253329  0.9524889417105199  1.0000
  C   C80       1.0  0.4147508011344457  0.9635593210624689  0.8357742627426816  1.0000
  C   C81       1.0  0.3816243074070301  0.9907137245561513  0.7812116411544209  1.0000
  C   C82       1.0  0.32933539439602555  0.9577800086141364  0.010561402204224518  1.0000
  C   C83       1.0  0.3710882637334336  0.9339383262742228  0.07220691175118782  1.0000
  C   C84       1.0  0.35374148695814267  0.9711481036916395  0.8945958342635051  1.0000
  C   C85       1.0  0.1711369891202708  0.21166426329727267  0.5495647452305262  1.0000
  C   C86       1.0  0.14989340192951772  0.24442336395649283  0.4904194520614453  1.0000
  C   C87       1.0  0.22763718917180142  0.24342105285889903  0.4431611050967348  1.0000
  C   C88       1.0  0.20846730858363574  0.269772228964669  0.384111372302712  1.0000
  C   C89       1.0  0.10681815762456642  0.2991059598815368  0.3739938079363299  1.0000
  C   C90       1.0  0.028477978623726592  0.3001576388541877  0.4234357305712777  1.0000
  C   C91       1.0  0.049105908000427696  0.2732671015574652  0.48008735312387063  1.0000
  C   C92       1.0  0.2860682297136847  0.2667421942630526  0.334140931259263  1.0000
  C   C93       1.0  0.2656455352882716  0.29334382056846653  0.2773053847344755  1.0000
  C   C94       1.0  0.08699552780002051  0.32414250259628824  0.314033329263843  1.0000
  C   C95       1.0  0.1647286584793477  0.3218149571549205  0.2666218412888028  1.0000
  C   C96       1.0  0.1425385997254836  0.3465737015095555  0.20217406026539206  1.0000
  C   C97       1.0  0.3233345301363642  0.23838814438489914  0.7260018054731885  1.0000
  C   C98       1.0  0.3896873587144327  0.295909911960102  0.7763863415430733  1.0000
  C   C99       1.0  0.3416740493503738  0.33770073279332274  0.8291457662879863  1.0000
  C   C100      1.0  0.4054431361342168  0.38915520608351517  0.8792906425994997  1.0000
  C   C101      1.0  0.35812401788671633  0.4322289419200444  0.9342647721375027  1.0000
  C   C102      1.0  0.5855826071298581  0.44764962790143403  0.9268580495956087  1.0000
  C   C103      1.0  0.5217269605465092  0.397661704814766  0.8752345331905785  1.0000
  C   C104      1.0  0.568597234399505  0.35541930168452035  0.8193969639163469  1.0000
  C   C105      1.0  0.5041946437435882  0.3060201435450125  0.771345827069929  1.0000
  C   C106      1.0  0.5371475466439719  0.48921591583525975  0.9796212715618111  1.0000
  C   C107      1.0  0.6046738412193378  0.5426358879894121  0.03377161767875234  1.0000
  C   C108      1.0  0.4219878320027135  0.4813164446945917  0.9828344116023472  1.0000
  C   C109      1.0  0.17509357650253327  0.018733469271879192  0.3062835514485513  1.0000
  C   C110      1.0  0.2961142426362215  0.016919902724431796  0.3071580114254218  1.0000
  C   C111      1.0  0.13008423875461264  0.0728574416145094  0.3521138156050085  1.0000
  C   C112      1.0  0.0185045800976624  0.0756302762659615  0.35145030465896804  1.0000
  C   C113      1.0  0.8320438694010408  0.02651467190614199  0.30355307288135686  1.0000
  C   C114      1.0  0.6431665110225566  0.9794882261149096  0.25887739105959884  1.0000
  C   C115      1.0  0.9469637402808218  0.02517083682052149  0.30440153781141527  1.0000
  C   C116      1.0  0.9921268562995921  0.9711126754392936  0.2569717569279675  1.0000
  C   C117      1.0  0.10717545921411897  0.9688692436194513  0.25983525341163727  1.0000
  C   C118      1.0  0.919946215434152  0.9219993821501972  0.20877187271057807  1.0000
  C   C119      1.0  0.7637339100312772  0.9770829716175907  0.2568468767493002  1.0000
  C   C120      1.0  0.8082569019498963  0.9249824846303906  0.2082361681214379  1.0000
  N   N1        1.0  0.47395418730459243  0.7141166965222183  0.17884139586546147  1.0000
  N   N2        1.0  0.344775657730672  0.741226041986188  0.2668988747758547  1.0000
  N   N3        1.0  0.2802349502176966  0.7191830976320616  0.1450572048518594  1.0000
  N   N4        1.0  0.3939534875174218  0.8250931354815944  0.19986251866011162  1.0000
  N   N5        1.0  0.9482343533743461  0.5605577839280613  0.0841436620589207  1.0000
  N   N6        1.0  0.034265527860590284  0.45207070467093746  0.07110546395723107  1.0000
  N   N7        1.0  0.14762568491745037  0.561499768289316  0.09756181872767655  1.0000
  N   N8        1.0  0.04951294921615808  0.5197251773517735  0.9839016698281069  1.0000
  N   N9        1.0  0.9739548956462228  0.17884054879487368  0.7141173793132154  1.0000
  N   N10       1.0  0.8447729462734728  0.2668973160784418  0.7412258806387442  1.0000
  N   N11       1.0  0.7802331967973049  0.1450569385404563  0.7191833935705815  1.0000
  N   N12       1.0  0.8939494239471983  0.1998615698712384  0.8250915555910722  1.0000
  N   N13       1.0  0.4482362298994076  0.08414504312052168  0.5605571350467855  1.0000
  N   N14       1.0  0.5342656921528502  0.07110535663214529  0.45207145724972253  1.0000
  N   N15       1.0  0.6476250112995672  0.09756462289127649  0.5615004833682988  1.0000
  N   N16       1.0  0.5495147255616786  0.9839021627897394  0.5197265199313958  1.0000
  O   O1        1.0  0.8155255682053166  0.6751712146507244  0.05233470495544875  1.0000
  O   O2        1.0  0.6689822835351364  0.7291243087444597  0.09309214591841193  1.0000
  O   O3        1.0  0.8348686690596098  0.13059280377938617  0.9635603067269684  1.0000
  O   O4        1.0  0.9383225884842119  0.0677647482585684  0.8886705838090592  1.0000
  O   O5        1.0  0.762881145059602  0.5539867352893281  0.18551295785381675  1.0000
  O   O6        1.0  0.5964797270407871  0.5907723004243122  0.21035575164174247  1.0000
  O   O7        1.0  0.7187236586475337  0.17205850753603608  0.367833099501496  1.0000
  O   O8        1.0  0.53841206448012  0.18044674850433037  0.3424814825842261  1.0000
  O   O9        1.0  0.877291811532281  0.6866035666472425  0.19573073035153493  1.0000
  O   O10       1.0  0.7193024685446119  0.7267513223188116  0.2352339079255187  1.0000
  O   O11       1.0  0.0536851444739455  0.06927788030257888  0.5899043995006535  1.0000
  O   O12       1.0  0.2074177674105186  0.0406946337871759  0.5370054110811537  1.0000
  O   O13       1.0  0.10799468726182941  0.31312371058942995  0.015175547357998186  1.0000
  O   O14       1.0  0.081959272580967  0.2071646617811851  0.9439243722156689  1.0000
  O   O15       1.0  0.8537196969352081  0.33597820697061553  0.07283226698650938  1.0000
  O   O16       1.0  0.835886850104899  0.28099381885937186  0.9603756121350457  1.0000
  O   O17       1.0  0.3155358426481527  0.05233215754502399  0.6751681939042269  1.0000
  O   O18       1.0  0.1689920505199396  0.09308912200577169  0.7291193355150511  1.0000
  O   O19       1.0  0.33487163019411537  0.9635624109611097  0.13059341825678655  1.0000
  O   O20       1.0  0.4383189173289353  0.8886678557254016  0.06776221700720703  1.0000
  O   O21       1.0  0.2628836214571919  0.18551408143010653  0.5539891718323914  1.0000
  O   O22       1.0  0.0964810003865253  0.21035627699305331  0.5907726651495722  1.0000
  O   O23       1.0  0.2187295495685788  0.367831867473221  0.17205432325980743  1.0000
  O   O24       1.0  0.038418145949449894  0.34248046371294544  0.18044708375793309  1.0000
  O   O25       1.0  0.3772882247854739  0.19573053656155534  0.6866065333304049  1.0000
  O   O26       1.0  0.21929651529747926  0.23523509203310053  0.7267539610053857  1.0000
  O   O27       1.0  0.5536839873638115  0.5899050707342113  0.06928093018160544  1.0000
  O   O28       1.0  0.7074141600585051  0.5370055817859265  0.04069657303398333  1.0000
  O   O29       1.0  0.6079966329674705  0.015176792366091294  0.3131221465261618  1.0000
  O   O30       1.0  0.5819627112577663  0.9439292322131931  0.2071614745213422  1.0000
  O   O31       1.0  0.3537244103445333  0.07283457539350739  0.3359788446619305  1.0000
  O   O32       1.0  0.33589323189022474  0.9603770604340123  0.28099475783817224  1.0000
