data_image0
_chemical_formula_structural       Cd2H32C48N8O8
_chemical_formula_sum              "Cd2 H32 C48 N8 O8"
_cell_length_a       7.204414877524337
_cell_length_b       10.94493961202676
_cell_length_c       15.169330943778133
_cell_angle_alpha    109.20413810761166
_cell_angle_beta     89.9800157769602
_cell_angle_gamma    109.20554866871716

_space_group_name_H-M_alt    "P 1"
_space_group_IT_number       1

loop_
  _space_group_symop_operation_xyz
  'x, y, z'

loop_
  _atom_site_type_symbol
  _atom_site_label
  _atom_site_symmetry_multiplicity
  _atom_site_fract_x
  _atom_site_fract_y
  _atom_site_fract_z
  _atom_site_occupancy
  Cd  Cd1       1.0  0.8785710157406046  9.36254399448001e-05  0.250019411546198  1.0000
  Cd  Cd2       1.0  0.12142782709166507  0.9999085559739381  0.7499749529593841  1.0000
  H   H1        1.0  0.506714763517401  0.2731494631135403  0.20760359377953813  1.0000
  H   H2        1.0  0.23362921077464452  0.7271150989564105  0.2926542463112368  1.0000
  H   H3        1.0  0.49328790377088444  0.7268548252739818  0.7924044520820956  1.0000
  H   H4        1.0  0.7663793849679975  0.2728788240561499  0.7073381687131998  1.0000
  H   H5        1.0  0.36266730927129487  0.46051036294755915  0.2664127925752807  1.0000
  H   H6        1.0  0.9023713274138246  0.5397371048422526  0.23404705176968574  1.0000
  H   H7        1.0  0.6373350008807962  0.5394959876420629  0.7335950806854612  1.0000
  H   H8        1.0  0.09763244090040497  0.4602527202759317  0.7659536259039967  1.0000
  H   H9        1.0  0.5158105071763474  0.655339513952441  0.4157333403110853  1.0000
  H   H10       1.0  0.8609735922730481  0.34468879542789205  0.08476340550746639  1.0000
  H   H11       1.0  0.48419561139790096  0.34466890266335065  0.5842756793454384  1.0000
  H   H12       1.0  0.13903346272385864  0.6553020485329595  0.9152335569306018  1.0000
  H   H13       1.0  0.810797356705436  0.6603856162487742  0.50790417329641  1.0000
  H   H14       1.0  0.15076508658463442  0.33975083714493337  0.9924423446429529  1.0000
  H   H15       1.0  0.1892018618285363  0.33961455037587024  0.492104877974583  1.0000
  H   H16       1.0  0.8492313696191476  0.6602410121933316  0.007546285992390249  1.0000
  H   H17       1.0  0.08833369157927963  0.16383825995918497  0.1089671935498515  1.0000
  H   H18       1.0  0.9244992670419167  0.8370131588768284  0.39121582741089606  1.0000
  H   H19       1.0  0.9116696688842157  0.836161850145878  0.891024704144769  1.0000
  H   H20       1.0  0.07549140252585573  0.16299210703347458  0.6087753102538613  1.0000
  H   H21       1.0  0.3516159179471856  0.16726622308533476  0.003342416229877198  1.0000
  H   H22       1.0  0.18383734759448345  0.833310013120517  0.4969386878400143  1.0000
  H   H23       1.0  0.6483826455491624  0.8327215146174394  0.9966505178581286  1.0000
  H   H24       1.0  0.8161380958796373  0.166687008081297  0.5030538018544135  1.0000
  H   H25       1.0  0.420029853592041  0.8255449708620614  0.06812240779169088  1.0000
  H   H26       1.0  0.5948094768128841  0.17424406727239725  0.4317926226646733  1.0000
  H   H27       1.0  0.5799778505352863  0.17445828693475104  0.9318860536861067  1.0000
  H   H28       1.0  0.40517134198962174  0.8257581658163246  0.5682169177891865  1.0000
  H   H29       1.0  0.14961759351264467  0.8332363674702065  0.1666222111664055  1.0000
  H   H30       1.0  0.31727870794565405  0.16695560190797915  0.3332425273199888  1.0000
  H   H31       1.0  0.8503897162661359  0.16677720979556904  0.8333880260883575  1.0000
  H   H32       1.0  0.6827194002796164  0.8330590042795761  0.6667666350567031  1.0000
  C   C1        1.0  0.8002115260477181  0.238771970286784  0.29158168922284483  1.0000
  C   C2        1.0  0.5613037163550842  0.7615163314839248  0.20871402679200193  1.0000
  C   C3        1.0  0.19979910425055178  0.7612343599342848  0.708420245479452  1.0000
  C   C4        1.0  0.4387076561451693  0.23847759335964  0.7912790476519546  1.0000
  C   C5        1.0  0.7335412462215133  0.3601844825192798  0.32410411202342  1.0000
  C   C6        1.0  0.3733391182660741  0.6400578679947627  0.1760998224712438  1.0000
  C   C7        1.0  0.26647288185783685  0.6398177423696153  0.6759041051781765  1.0000
  C   C8        1.0  0.626662533472839  0.3599360450524783  0.8238892946675023  1.0000
  C   C9        1.0  0.5706659580965407  0.3590707545653728  0.2731983998240679  1.0000
  C   C10       1.0  0.21155393435285672  0.6411775490341894  0.22704738773100525  1.0000
  C   C11       1.0  0.42934035807392223  0.6409325033935003  0.7268100618113492  1.0000
  C   C12       1.0  0.7884497840907159  0.35882050102390645  0.7729453422992519  1.0000
  C   C13       1.0  0.4909861999851444  0.46357696833882733  0.30614033895970033  1.0000
  C   C14       1.0  0.027496944768813557  0.536602287082651  0.19419622024810215  1.0000
  C   C15       1.0  0.5090215058299563  0.5364262937682368  0.6938694419876014  1.0000
  C   C16       1.0  0.9725064588142447  0.46338958084146475  0.8057983472119261  1.0000
  C   C17       1.0  0.5765271146975977  0.5727258098776956  0.39057391284659093  1.0000
  C   C18       1.0  0.004137476998032155  0.4274009768759654  0.10980820360254735  1.0000
  C   C19       1.0  0.42347123255567715  0.4272753911617285  0.6094360418048979  1.0000
  C   C20       1.0  0.9958636673474712  0.5725919256249907  0.8901872673955892  1.0000
  C   C21       1.0  0.7396578655948219  0.576380885288941  0.4421418828287996  1.0000
  C   C22       1.0  0.16362650419745256  0.42381434253687195  0.0581673272825682  1.0000
  C   C23       1.0  0.26033461581439354  0.42361413641989276  0.5578705696176698  1.0000
  C   C24       1.0  0.8363753113008697  0.5761826777408313  0.9418258191519301  1.0000
  C   C25       1.0  0.8181759431257659  0.47016456084793373  0.4094399328429573  1.0000
  C   C26       1.0  0.34825136624788655  0.5300780229687942  0.09074706917315467  1.0000
  C   C27       1.0  0.18181947120548628  0.5298335505261919  0.590571270706029  1.0000
  C   C28       1.0  0.6517480237218154  0.46991691818989517  0.9092409722994432  1.0000
  C   C29       1.0  0.16646487505035173  0.09070069251840349  0.097366435402229  1.0000
  C   C30       1.0  0.07589878036922935  0.9098812234918935  0.40273487879716896  1.0000
  C   C31       1.0  0.8335419409185507  0.9093035565905794  0.9026297347610351  1.0000
  C   C32       1.0  0.9240870524873728  0.09011992081759959  0.5972572644345675  1.0000
  C   C33       1.0  0.31605087348388844  0.09262543698482519  0.03930666983083599  1.0000
  C   C34       1.0  0.22329711096256227  0.9077838696238696  0.4608437375314764  1.0000
  C   C35       1.0  0.6839554663967461  0.907369529225107  0.9606892876707107  1.0000
  C   C36       1.0  0.7766856302759281  0.09221109072064589  0.5391495837105111  1.0000
  C   C37       1.0  0.41635670046314033  0.9988923585051306  0.028259792893514588  1.0000
  C   C38       1.0  0.4174509275627827  0.0011862456669504999  0.4717595692245524  1.0000
  C   C39       1.0  0.5836468685671006  0.0011026209597063007  0.9717401233317702  1.0000
  C   C40       1.0  0.5825298844886291  0.9988159701807289  0.5282446933512972  1.0000
  C   C41       1.0  0.3511418400871875  0.9021052062198577  0.07360876257714462  1.0000
  C   C42       1.0  0.44923571285017533  0.09791113124789767  0.4263645026183198  1.0000
  C   C43       1.0  0.6488610214217659  0.0978939148902285  0.926396086324381  1.0000
  C   C44       1.0  0.5507518439209703  0.9020962489117675  0.5736422963948086  1.0000
  C   C45       1.0  0.20023347215315102  0.9066610675818151  0.12989771088474095  1.0000
  C   C46       1.0  0.2940709089611389  0.09360849428759366  0.3700699968162979  1.0000
  C   C47       1.0  0.7997717683893129  0.09334836620771368  0.8701069342742613  1.0000
  C   C48       1.0  0.7059208040856007  0.9063988659897078  0.6299308641112304  1.0000
  N   N1        1.0  0.11099571420472638  0.0007204435080083999  0.1433516528429877  1.0000
  N   N2        1.0  0.11070505283753819  0.9997325511585441  0.3566445481352146  1.0000
  N   N3        1.0  0.8890107488474114  0.9992858785787315  0.8566476433931527  1.0000
  N   N4        1.0  0.8892862996974602  0.0002768627003319999  0.6433535012524203  1.0000
  N   N5        1.0  0.99555017733789  0.47952116247685683  0.45588037837244844  1.0000
  N   N6        1.0  0.5162096602547521  0.5207487101623015  0.044127125027777866  1.0000
  N   N7        1.0  0.00444714078249577  0.5204779808327941  0.544131068507042  1.0000
  N   N8        1.0  0.4837906001517567  0.47924519442648245  0.9558593533295863  1.0000
  O   O1        1.0  0.7717303079527867  0.16559508682941979  0.20479408611063826  1.0000
  O   O2        1.0  0.6061247137055261  0.8343984910237761  0.29552758813777996  1.0000
  O   O3        1.0  0.2282860320251175  0.8344143348879383  0.7952072591136882  1.0000
  O   O4        1.0  0.393869640269017  0.16559748288076284  0.704460697453406  1.0000
  O   O5        1.0  0.8743939642076057  0.20745325441942689  0.3547272117960246  1.0000
  O   O6        1.0  0.6665880534047589  0.7930719050411736  0.14553973870811623  1.0000
  O   O7        1.0  0.12560437882624606  0.7925479358443466  0.6452794441817105  1.0000
  O   O8        1.0  0.33342589910076015  0.20692718244544028  0.8544552129112191  1.0000
