data_image0
_chemical_formula_structural       Co4H32C48N16
_chemical_formula_sum              "Co4 H32 C48 N16"
_cell_length_a       13.33618882700856
_cell_length_b       13.33618726700481
_cell_length_c       13.981889707008719
_cell_angle_alpha    90.00006049496078
_cell_angle_beta     90.0001077968217
_cell_angle_gamma    89.99992220323186

_space_group_name_H-M_alt    "P 1"
_space_group_IT_number       1

loop_
  _space_group_symop_operation_xyz
  'x, y, z'

loop_
  _atom_site_type_symbol
  _atom_site_label
  _atom_site_symmetry_multiplicity
  _atom_site_fract_x
  _atom_site_fract_y
  _atom_site_fract_z
  _atom_site_occupancy
  Co  Co1       1.0  0.9893293289999506  0.9893286389645012  0.1249994627273168  1.0000
  Co  Co2       1.0  0.010671595925146002  0.010672065920743996  0.6249992229128623  1.0000
  Co  Co3       1.0  0.0106726864386388  0.9893282324240502  0.8749995258029486  1.0000
  Co  Co4       1.0  0.9893279994383378  0.010672008535870203  0.3749995279200959  1.0000
  H   H1        1.0  0.22399221654325166  0.9744403292475423  0.09689744167749131  1.0000
  H   H2        1.0  0.398111118365911  0.0424693674595105  0.3988005356564556  1.0000
  H   H3        1.0  0.5813178822314954  0.0427489332335043  0.3987878204919326  1.0000
  H   H4        1.0  0.755570809358133  0.048328370277154406  0.3980791999502883  1.0000
  H   H5        1.0  0.7760101506441757  0.025557344138824992  0.5968956797312828  1.0000
  H   H6        1.0  0.6018903659801395  0.957528651200853  0.8987993798915354  1.0000
  H   H7        1.0  0.4186836020867232  0.9572513349306389  0.8987863474645508  1.0000
  H   H8        1.0  0.2444299236739269  0.9516741465970426  0.8980802808352663  1.0000
  H   H9        1.0  0.0255582396196701  0.2239910228668052  0.8468963839652587  1.0000
  H   H10       1.0  0.957529065282962  0.3981102215269133  0.1487992206923394  1.0000
  H   H11       1.0  0.9572522501191472  0.5813170072065078  0.14878643584969345  1.0000
  H   H12       1.0  0.9516740756772107  0.7555707124507268  0.1480798874835116  1.0000
  H   H13       1.0  0.9744401393195901  0.7760084361144594  0.34689567510242375  1.0000
  H   H14       1.0  0.04246890891209889  0.6018912604193218  0.6488003267710026  1.0000
  H   H15       1.0  0.042744974213853495  0.4186844747275559  0.6487909400749245  1.0000
  H   H16       1.0  0.048325396728365895  0.2444292689930379  0.6480813708491412  1.0000
  H   H17       1.0  0.7760105689567638  0.9744411654133671  0.9031043932010903  1.0000
  H   H18       1.0  0.601892183013369  0.04246934488038081  0.601201106984007  1.0000
  H   H19       1.0  0.4186854187664721  0.0427491593730096  0.6012123919990485  1.0000
  H   H20       1.0  0.24442873486395197  0.04832733409939749  0.601918872336739  1.0000
  H   H21       1.0  0.22399167402093667  0.0255606073668346  0.4031045160206475  1.0000
  H   H22       1.0  0.3981094431281278  0.9575313327877595  0.1012017233077742  1.0000
  H   H23       1.0  0.5813162073973857  0.9572530179872202  0.101213325042437  1.0000
  H   H24       1.0  0.7555691435484134  0.9516710948736103  0.10191938623833609  1.0000
  H   H25       1.0  0.9744410660357303  0.2239899820784856  0.1531040049949226  1.0000
  H   H26       1.0  0.04246850422008211  0.3981082449226818  0.8511999073818614  1.0000
  H   H27       1.0  0.0427510692840656  0.5813157800768207  0.8512128706161164  1.0000
  H   H28       1.0  0.0483282572294641  0.7555709782360225  0.8519188734400345  1.0000
  H   H29       1.0  0.0255599163116074  0.7760085054293384  0.6531023905081241  1.0000
  H   H30       1.0  0.9575313831935829  0.6018889694615127  0.35120043014639185  1.0000
  H   H31       1.0  0.9572510676756069  0.41868143432139243  0.351214644928497  1.0000
  H   H32       1.0  0.9516716316512087  0.24443073600804152  0.35192046843257424  1.0000
  C   C1        1.0  0.20759104785413032  0.9863043439719517  0.1721190250549682  1.0000
  C   C2        1.0  0.43766959194592653  0.023601841425616492  0.3329246298072733  1.0000
  C   C3        1.0  0.5417952920968148  0.0237097476350812  0.3329197134646051  1.0000
  C   C4        1.0  0.7718872566625521  0.0248208492794362  0.3253658554770453  1.0000
  C   C5        1.0  0.7924114730231722  0.013693415441878201  0.6721172799350157  1.0000
  C   C6        1.0  0.562331757803932  0.9763976015744831  0.832923423968431  1.0000
  C   C7        1.0  0.4582060576428119  0.9762896953592913  0.8329183273584276  1.0000
  C   C8        1.0  0.22811407764357478  0.9751808345954415  0.8253662158088844  1.0000
  C   C9        1.0  0.0136936185713026  0.20758983453703908  0.9221172422957409  1.0000
  C   C10       1.0  0.9763971802686271  0.43766945358281356  0.0829233253882578  1.0000
  C   C11       1.0  0.9762906323598983  0.5417951660615897  0.0829183695127256  1.0000
  C   C12       1.0  0.9751814559082349  0.7718864126083246  0.07536585340807989  1.0000
  C   C13       1.0  0.9863041642164488  0.79241046031089  0.4221165699310561  1.0000
  C   C14       1.0  0.0235991596529388  0.5623312031856713  0.5829243603004172  1.0000
  C   C15       1.0  0.023705707554363197  0.4582054907028166  0.5829221640668932  1.0000
  C   C16       1.0  0.0248163682539015  0.22811273583805294  0.5753687106339171  1.0000
  C   C17       1.0  0.7924124713732681  0.9863043220054947  0.8278828213756809  1.0000
  C   C18       1.0  0.5623322353796  0.0236004482088035  0.6670769944601603  1.0000
  C   C19       1.0  0.45820653507958303  0.023709995453693  0.6670804804868881  1.0000
  C   C20       1.0  0.2281130693241238  0.024820668249361695  0.6746321939220791  1.0000
  C   C21       1.0  0.2075903677552091  0.013696614907658501  0.32788361947604017  1.0000
  C   C22       1.0  0.43766877551765754  0.9764003047991066  0.1670776976039861  1.0000
  C   C23       1.0  0.5417944758244673  0.9762915073978108  0.1670813636866768  1.0000
  C   C24       1.0  0.7718857074905187  0.9751800934001196  0.1746320437328279  1.0000
  C   C25       1.0  0.9863049595181083  0.2075894414552266  0.0778824154835789  1.0000
  C   C26       1.0  0.023601085348268196  0.43766832777100007  0.9170765564162265  1.0000
  C   C27       1.0  0.023711241039350697  0.5417940401080016  0.9170808984699406  1.0000
  C   C28       1.0  0.024820854839148903  0.7718867934645104  0.9246322081909996  1.0000
  C   C29       1.0  0.0136943694607581  0.792409709866064  0.5778815116482292  1.0000
  C   C30       1.0  0.976397436982701  0.5623297117937937  0.4170770733059185  1.0000
  C   C31       1.0  0.9762880311412587  0.45820399946201457  0.41708274420552977  1.0000
  C   C32       1.0  0.9751784327677484  0.22811425409945937  0.4246338279695934  1.0000
  C   C33       1.0  0.2731247624993429  0.9999999575730314  0.2500014931434364  1.0000
  C   C34       1.0  0.3825975675818682  0.999999883267904  0.2500015878504129  1.0000
  C   C35       1.0  0.5968341862315967  1.2375320821e-06  0.2500003427694537  1.0000
  C   C36       1.0  0.7063332356928455  1.1632087293e-06  0.24999972228823705  1.0000
  C   C37       1.0  0.7268779175040622  0.9999986407509526  0.7499998797770573  1.0000
  C   C38       1.0  0.6174043625823415  0.9999994648965043  0.7500005002806986  1.0000
  C   C39       1.0  0.40316692330428344  1.5521874269999973e-07  0.7499991128851632  1.0000
  C   C40       1.0  0.2936671240023827  9.793816956999998e-07  0.7499990181551937  1.0000
  C   C41       1.0  0.9999984028116203  0.2731238602977442  2.828755540999999e-07  1.0000
  C   C42       1.0  0.9999986002148731  0.38259650017329966  0.9999996419166024  1.0000
  C   C43       1.0  2.1159768905999996e-06  0.5968338226378479  0.9999995963116106  1.0000
  C   C44       1.0  2.0416198722999993e-06  0.7063336347474946  0.999998934409973  1.0000
  C   C45       1.0  0.9999986054793979  0.7268752730396388  0.49999944144339276  1.0000
  C   C46       1.0  0.9999979299786759  0.617402455152515  0.5000001033575217  1.0000
  C   C47       1.0  0.9999973256197234  0.4031658114418519  0.5000021446898799  1.0000
  C   C48       1.0  0.9999959002979182  0.2936659993332214  0.5000028065902171  1.0000
  N   N1        1.0  0.11153589622505682  0.9913261013268481  0.2018860222936638  1.0000
  N   N2        1.0  0.8680203955650397  0.015424528787121998  0.29658155596045077  1.0000
  N   N3        1.0  0.8884659356312811  0.0086724419702193  0.7018844384821676  1.0000
  N   N4        1.0  0.1319808799301754  0.9845778720083016  0.7965824743193508  1.0000
  N   N5        1.0  0.0086727894990588  0.11153541494198288  0.9518849842925333  1.0000
  N   N6        1.0  0.984576099226942  0.8680195629445391  0.0465815302287496  1.0000
  N   N7        1.0  0.9913273036266119  0.8884649139480556  0.451883698933237  1.0000
  N   N8        1.0  0.0154224159612752  0.13197955258073787  0.5465821319637669  1.0000
  N   N9        1.0  0.8884668663412043  0.9913274146005406  0.7981151138157044  1.0000
  N   N10       1.0  0.13198069302288934  0.015424511177890595  0.7034171995012386  1.0000
  N   N11       1.0  0.11153516212818458  0.0086734882694728  0.29811645603833636  1.0000
  N   N12       1.0  0.8680196422824481  0.9845762833903462  0.2034165095832847  1.0000
  N   N13       1.0  0.9913289184010452  0.11153498099854178  0.048115295173325  1.0000
  N   N14       1.0  0.0154230816035437  0.868019989475563  0.9534166249713537  1.0000
  N   N15       1.0  0.0086725992763732  0.8884641362775768  0.5481137609633961  1.0000
  N   N16       1.0  0.9845762648135336  0.1319803411674485  0.4534167369844724  1.0000
