data_image0
_chemical_formula_structural       Ag4H24C24S4N4Cl8O16
_chemical_formula_sum              "Ag4 H24 C24 S4 N4 Cl8 O16"
_cell_length_a       6.919723341350584
_cell_length_b       7.108197408064452
_cell_length_c       20.12765801398689
_cell_angle_alpha    89.99964794746873
_cell_angle_beta     91.94355504523921
_cell_angle_gamma    89.99968117195988

_space_group_name_H-M_alt    "P 1"
_space_group_IT_number       1

loop_
  _space_group_symop_operation_xyz
  'x, y, z'

loop_
  _atom_site_type_symbol
  _atom_site_label
  _atom_site_symmetry_multiplicity
  _atom_site_fract_x
  _atom_site_fract_y
  _atom_site_fract_z
  _atom_site_occupancy
  Ag  Ag1       1.0  0.23861369588480838  0.04227394570721539  0.5485092094373982  1.0000
  Ag  Ag2       1.0  0.761385506009276  0.5422762690872958  0.9514886397167431  1.0000
  Ag  Ag3       1.0  0.7613916254132319  0.9577291312930216  0.4514903839061049  1.0000
  Ag  Ag4       1.0  0.2386183826329216  0.45772680792555326  0.0485099409896037  1.0000
  H   H1        1.0  0.9740718589185349  0.08023298802317673  0.8037699564884093  1.0000
  H   H2        1.0  0.025924194010251304  0.5802366151856829  0.6962297564081084  1.0000
  H   H3        1.0  0.025929124539168  0.9197560207247123  0.1962295794351689  1.0000
  H   H4        1.0  0.9740709922854052  0.4197566140488576  0.3037706964217861  1.0000
  H   H5        1.0  0.5633556109221444  0.32160559633479846  0.6999848048415346  1.0000
  H   H6        1.0  0.4366346655024812  0.821605242564381  0.8000123234655306  1.0000
  H   H7        1.0  0.4366410279743036  0.6783918533793527  0.3000151703828919  1.0000
  H   H8        1.0  0.563363419342174  0.17839642762507427  0.1999876708993966  1.0000
  H   H9        1.0  0.13572356251389547  0.36131808646214836  0.6001960057814131  1.0000
  H   H10       1.0  0.8642708173596673  0.8613221728017635  0.8998005943367176  1.0000
  H   H11       1.0  0.8642774209096443  0.6386821768971983  0.3998035301295673  1.0000
  H   H12       1.0  0.13572874670465754  0.13868090423167703  0.1001969354420282  1.0000
  H   H13       1.0  0.3794551084030786  0.3655561988327776  0.6014516871971765  1.0000
  H   H14       1.0  0.6205363471688584  0.8655601896899229  0.8985453618919906  1.0000
  H   H15       1.0  0.6205429697889926  0.6344454713523717  0.39854880391371955  1.0000
  H   H16       1.0  0.3794632035860274  0.1344442941613337  0.10145316137711552  1.0000
  H   H17       1.0  0.07853191625288498  0.7017736895942975  0.5265433985633123  1.0000
  H   H18       1.0  0.9214706353297188  0.20177582554481432  0.973455641315759  1.0000
  H   H19       1.0  0.9214690605095228  0.2982293874136062  0.4734566340904891  1.0000
  H   H20       1.0  0.07853324001158059  0.7982258446329878  0.026543932884095504  1.0000
  H   H21       1.0  0.24377723520730393  0.7089316551007698  0.4726168938712405  1.0000
  H   H22       1.0  0.7562241813670169  0.20893540233019087  0.0273823635539117  1.0000
  H   H23       1.0  0.7562222956026332  0.2910686082582643  0.5273831196404828  1.0000
  H   H24       1.0  0.24377970062259635  0.7910676746783452  0.972616713898404  1.0000
  C   C1        1.0  0.26385737245242774  0.2468590324744256  0.6832358439193627  1.0000
  C   C2        1.0  0.736136243002143  0.7468539887487469  0.8167619867067445  1.0000
  C   C3        1.0  0.7361436109625713  0.7531440445377913  0.31676369198847  1.0000
  C   C4        1.0  0.26386040254688936  0.25314346096971724  0.1832374917717203  1.0000
  C   C5        1.0  0.10005323375483499  0.17300925377821136  0.7136882076190503  1.0000
  C   C6        1.0  0.8999364522002934  0.673005280774376  0.786312711316434  1.0000
  C   C7        1.0  0.8999448577594863  0.8269867891098244  0.2863112900062106  1.0000
  C   C8        1.0  0.10005581555871859  0.3269893552773341  0.2136896902053067  1.0000
  C   C9        1.0  0.10345654570448198  0.1334486968082587  0.7812709451344588  1.0000
  C   C10       1.0  0.8965377382259092  0.6334501396673035  0.7187286295263888  1.0000
  C   C11       1.0  0.8965444310835479  0.86654593924105  0.21872908752878575  1.0000
  C   C12       1.0  0.103460346640091  0.36654449638999154  0.2812713648464111  1.0000
  C   C13       1.0  0.27019233351029465  0.1628984160235234  0.8207928002494213  1.0000
  C   C14       1.0  0.7298104474165183  0.6628986158462739  0.6792068233778252  1.0000
  C   C15       1.0  0.729805757999749  0.8370990336909403  0.1792066973742692  1.0000
  C   C16       1.0  0.2701934146196052  0.3371030543229027  0.3207937443139599  1.0000
  C   C17       1.0  0.4364095148005874  0.22870254938373344  0.7901781329663323  1.0000
  C   C18       1.0  0.5635856568248271  0.7287002816156162  0.7098197574347793  1.0000
  C   C19       1.0  0.5635914619703611  0.7712977139713079  0.2098218996906169  1.0000
  C   C20       1.0  0.43641386731543713  0.2713056090448376  0.2901807528166103  1.0000
  C   C21       1.0  0.4328911518678709  0.27027205522785647  0.722546670718387  1.0000
  C   C22       1.0  0.567102328098059  0.7702714042808197  0.7774506107601908  1.0000
  C   C23       1.0  0.5671098382082533  0.7297282081358034  0.27745236844662463  1.0000
  C   C24       1.0  0.43289576339491015  0.22973167273937634  0.22254888685719718  1.0000
  S   S1        1.0  0.2596019724983165  0.12021738285073981  0.9081436103951289  1.0000
  S   S2        1.0  0.7403996348661221  0.6202176415939036  0.5918550961119422  1.0000
  S   S3        1.0  0.7403990242346623  0.879781473690791  0.09185493202549111  1.0000
  S   S4        1.0  0.2595998892698788  0.3797896558929779  0.4081454141378771  1.0000
  N   N1        1.0  0.2596111394941119  0.2892796793687965  0.6145558634048598  1.0000
  N   N2        1.0  0.7403836444288173  0.789281857627394  0.8854433816619577  1.0000
  N   N3        1.0  0.740389837268303  0.7107233976391073  0.3854441692489345  1.0000
  N   N4        1.0  0.25961587971572436  0.21072262620662496  0.11455712859100942  1.0000
  Cl  Cl1       1.0  0.6516545416181712  0.26024685982994816  0.8348669392853978  1.0000
  Cl  Cl2       1.0  0.34834189114780395  0.7602394752242463  0.6651304029268204  1.0000
  Cl  Cl3       1.0  0.34834789442750486  0.7397505898768558  0.1651321190279873  1.0000
  Cl  Cl4       1.0  0.6516547477657253  0.2397523471841723  0.3348695723039015  1.0000
  Cl  Cl5       1.0  0.8954550831788878  0.12416677473394339  0.6656723441018215  1.0000
  Cl  Cl6       1.0  0.104543575007213  0.6241732074207036  0.8343287989992731  1.0000
  Cl  Cl7       1.0  0.1045487855397127  0.8758250476545157  0.3343277268550153  1.0000
  Cl  Cl8       1.0  0.8954516179367573  0.37582142864457074  0.16567115708308222  1.0000
  O   O1        1.0  0.3785995315680708  0.95120961975001  0.9226484052868216  1.0000
  O   O2        1.0  0.6214000532091501  0.4512118029236022  0.5773505539734316  1.0000
  O   O3        1.0  0.6214000058944578  0.04879064361333011  0.07735111147894  1.0000
  O   O4        1.0  0.3786009301930377  0.5487954945679123  0.4226489819296759  1.0000
  O   O5        1.0  0.052953885365162996  0.08091954420961402  0.919132075995563  1.0000
  O   O6        1.0  0.9470450486868456  0.5809160874527919  0.5808681704088343  1.0000
  O   O7        1.0  0.9470470714522958  0.9190793123060602  0.0808694469008628  1.0000
  O   O8        1.0  0.0529515968493754  0.4190855827449624  0.4191313080649053  1.0000
  O   O9        1.0  0.3312915994027748  0.2903894431514901  0.9413182822490569  1.0000
  O   O10       1.0  0.6687031977397738  0.7903920659679359  0.5586794700957967  1.0000
  O   O11       1.0  0.6687108432954859  0.7096080065596198  0.05868027931836651  1.0000
  O   O12       1.0  0.33129486047317874  0.20961663833644917  0.44132251124512584  1.0000
  O   O13       1.0  0.14996574558819015  0.786580071945075  0.4966585854070757  1.0000
  O   O14       1.0  0.8500366522381028  0.2865837417042061  0.003340020645900701  1.0000
  O   O15       1.0  0.8500366771395064  0.21342159823240084  0.5033414663935218  1.0000
  O   O16       1.0  0.14996434447352408  0.7134221489694924  0.9966585217668538  1.0000
