data_image0
_chemical_formula_structural       Cu12H96C168N24O60
_chemical_formula_sum              "Cu12 H96 C168 N24 O60"
_cell_length_a       18.288104050036548
_cell_length_b       18.28812213763733
_cell_length_c       25.937618419554447
_cell_angle_alpha    69.35132282383336
_cell_angle_beta     69.35142981175265
_cell_angle_gamma    59.97309293345543

_space_group_name_H-M_alt    "P 1"
_space_group_IT_number       1

loop_
  _space_group_symop_operation_xyz
  'x, y, z'

loop_
  _atom_site_type_symbol
  _atom_site_label
  _atom_site_symmetry_multiplicity
  _atom_site_fract_x
  _atom_site_fract_y
  _atom_site_fract_z
  _atom_site_occupancy
  Cu  Cu1       1.0  0.7833369502686196  0.7398578998022457  0.2922062202396133  1.0000
  Cu  Cu2       1.0  0.7400669990656396  0.18447718280508957  0.29214927236799326  1.0000
  Cu  Cu3       1.0  0.18459123331971478  0.7833370166521977  0.2922114044739246  1.0000
  Cu  Cu4       1.0  0.31552058004029243  0.7599380760448896  0.20785019542629612  1.0000
  Cu  Cu5       1.0  0.7601418406482735  0.7166595523794687  0.20779632467000636  1.0000
  Cu  Cu6       1.0  0.7166627803135341  0.3154084683224314  0.2077880243733006  1.0000
  Cu  Cu7       1.0  0.21666117560042858  0.2601441993340999  0.7077915745537879  1.0000
  Cu  Cu8       1.0  0.2599356761897623  0.8155224134897665  0.7078503166008617  1.0000
  Cu  Cu9       1.0  0.8154062724328739  0.2166618684409585  0.7077896763006492  1.0000
  Cu  Cu10      1.0  0.6844769257122962  0.2400608090482662  0.7921508853482776  1.0000
  Cu  Cu11      1.0  0.2398575793004269  0.2833419934222903  0.7922012822130993  1.0000
  Cu  Cu12      1.0  0.28333795422012986  0.6845931309132355  0.7922119343666126  1.0000
  H   H1        1.0  0.022999737555821298  0.7362192164507634  0.23559019867726513  1.0000
  H   H2        1.0  0.7360289200049908  0.005250782701096926  0.23562937233355535  1.0000
  H   H3        1.0  0.005278442766915199  0.022909198349566395  0.23532373814119004  1.0000
  H   H4        1.0  0.4947412034515963  0.7639694259187594  0.2643749406465687  1.0000
  H   H5        1.0  0.7637818282479358  0.4769950764604047  0.26441623716634416  1.0000
  H   H6        1.0  0.4770907732204748  0.4947220261362801  0.2646717856973381  1.0000
  H   H7        1.0  0.9770003545951695  0.26377797394229663  0.7644102703381961  1.0000
  H   H8        1.0  0.2639673018356349  0.994751010973282  0.7643732240768344  1.0000
  H   H9        1.0  0.9947216460900848  0.9770920926453855  0.7646764625867704  1.0000
  H   H10       1.0  0.5052575893370345  0.2360265537160872  0.7356250084636217  1.0000
  H   H11       1.0  0.2362214987044524  0.5229995576572649  0.7355836741677635  1.0000
  H   H12       1.0  0.5229054050531516  0.505275620092327  0.7353253194291014  1.0000
  H   H13       1.0  0.25627715735771517  0.6571358886994006  0.10866651181549979  1.0000
  H   H14       1.0  0.657016379936131  0.9780718516050231  0.10867760060920525  1.0000
  H   H15       1.0  0.9781140371787983  0.2562118320497361  0.10845102503827062  1.0000
  H   H16       1.0  0.5219257684590843  0.8429882486576264  0.39132353484672683  1.0000
  H   H17       1.0  0.8428736178051466  0.24371614867160932  0.3913337659884349  1.0000
  H   H18       1.0  0.24379204637629207  0.5218809603697212  0.39154725837275345  1.0000
  H   H19       1.0  0.7437235952947958  0.34285927967113156  0.8913354592578242  1.0000
  H   H20       1.0  0.34298114223228277  0.0219293949806314  0.891325575833747  1.0000
  H   H21       1.0  0.0218866858240219  0.7437879968472885  0.8915474579432114  1.0000
  H   H22       1.0  0.4780743151151938  0.1570112782445321  0.6086759580656675  1.0000
  H   H23       1.0  0.1571368418658068  0.7562836651701376  0.6086672630640564  1.0000
  H   H24       1.0  0.756211964139304  0.47811519240271133  0.6084571065360649  1.0000
  H   H25       1.0  0.036117265813885496  0.6279257682203649  0.107552599951326  1.0000
  H   H26       1.0  0.6276767820313935  0.22862732064863397  0.10760925881651671  1.0000
  H   H27       1.0  0.22870694240273787  0.03596534565782863  0.1075427572123218  1.0000
  H   H28       1.0  0.271368588325501  0.8723218529598143  0.39239797972760465  1.0000
  H   H29       1.0  0.8720719687238017  0.4638797601789052  0.3924522765182772  1.0000
  H   H30       1.0  0.46404482927479757  0.27129030049143676  0.3924557799986772  1.0000
  H   H31       1.0  0.9638821748100596  0.37207228062506914  0.8924474310149433  1.0000
  H   H32       1.0  0.37232071923397575  0.7713721462296022  0.8923912899537215  1.0000
  H   H33       1.0  0.7712937868482114  0.9640344894850515  0.8924564937120179  1.0000
  H   H34       1.0  0.7286289078849608  0.12768112648937788  0.6076020648166106  1.0000
  H   H35       1.0  0.1279248543189411  0.5361293325259383  0.6075448457662845  1.0000
  H   H36       1.0  0.5359604515211488  0.7287087927798268  0.60754558894525  1.0000
  H   H37       1.0  0.3491989862389673  0.4426022781560235  0.01690464628483572  1.0000
  H   H38       1.0  0.44254007682115304  0.19145554031611306  0.01698647765618231  1.0000
  H   H39       1.0  0.19174865659987006  0.3489195966145432  0.016942042035225306  1.0000
  H   H40       1.0  0.3085471703360412  0.05745474481477684  0.4830180807625268  1.0000
  H   H41       1.0  0.0573984415033024  0.15078627493414842  0.4830971881108468  1.0000
  H   H42       1.0  0.15109356798151907  0.30824036245736147  0.48305370678043147  1.0000
  H   H43       1.0  0.6507978437895259  0.5573997862839731  0.9830931004803388  1.0000
  H   H44       1.0  0.5574522451714613  0.8085420330526959  0.9830143230998799  1.0000
  H   H45       1.0  0.8082585604305946  0.6510780755009903  0.9830584251333077  1.0000
  H   H46       1.0  0.6914600568620982  0.9425452825474069  0.5169837141315199  1.0000
  H   H47       1.0  0.9426009621453345  0.8492316701522571  0.5168989616508384  1.0000
  H   H48       1.0  0.8489078266559104  0.6917580418168401  0.5169476661117329  1.0000
  H   H49       1.0  0.46103426611628606  0.4032204277525792  0.9291498274030587  1.0000
  H   H50       1.0  0.4031575788988917  0.20663136475499747  0.9292797511097106  1.0000
  H   H51       1.0  0.20681623621603507  0.4608447652749845  0.9291904537869583  1.0000
  H   H52       1.0  0.2933757396296031  0.09683257633955121  0.5707244880718462  1.0000
  H   H53       1.0  0.0967761077960958  0.038952163198374  0.5708536936084697  1.0000
  H   H54       1.0  0.039161888641615385  0.29317694683921763  0.5708012292926624  1.0000
  H   H55       1.0  0.5389606198385904  0.5967783598415367  0.07084770157219827  1.0000
  H   H56       1.0  0.5968386036920278  0.7933698034133557  0.07071800170499644  1.0000
  H   H57       1.0  0.7931935738587086  0.5391523913252383  0.07081025747093152  1.0000
  H   H58       1.0  0.7066321455136588  0.9031624950913012  0.42927839713031796  1.0000
  H   H59       1.0  0.9032226317713422  0.9610572474601327  0.4291401629448261  1.0000
  H   H60       1.0  0.960839502474009  0.7068202813731195  0.42919967172245066  1.0000
  H   H61       1.0  0.4276321655614481  0.4955372118571619  0.8348862465357527  1.0000
  H   H62       1.0  0.49536538956250814  0.24199864766649176  0.8349829206280076  1.0000
  H   H63       1.0  0.2419461490255159  0.42758194509205794  0.8349214355125909  1.0000
  H   H64       1.0  0.25800603106392117  0.004624927521554413  0.6650196218328616  1.0000
  H   H65       1.0  0.004463894654556101  0.07236082451778  0.6651166702912833  1.0000
  H   H66       1.0  0.0724196485551261  0.2580551731049853  0.6650706741469534  1.0000
  H   H67       1.0  0.5723620723881807  0.504463610251193  0.16511131626735687  1.0000
  H   H68       1.0  0.5046320871080638  0.7580019671672743  0.16501464427641116  1.0000
  H   H69       1.0  0.7580584816065324  0.5724174217235714  0.16507964341505507  1.0000
  H   H70       1.0  0.7419992512651205  0.9953694771168815  0.3349817794600369  1.0000
  H   H71       1.0  0.9955335650325238  0.9276403596093631  0.3348788267230774  1.0000
  H   H72       1.0  0.9275804475154245  0.7419443662888765  0.3349303546511634  1.0000
  H   H73       1.0  0.18160144996181057  0.6532407852413655  0.9090934056123244  1.0000
  H   H74       1.0  0.6530259250283946  0.2562595461875503  0.9090685715582438  1.0000
  H   H75       1.0  0.2562742427910365  0.18155498803300676  0.9090683270884127  1.0000
  H   H76       1.0  0.24373651479734798  0.8469711747016293  0.5909340417410789  1.0000
  H   H77       1.0  0.8467660200706958  0.3183904925768245  0.5909059605955846  1.0000
  H   H78       1.0  0.31845027149447697  0.2437299005116813  0.5909277286598921  1.0000
  H   H79       1.0  0.8183947400704737  0.3467639079896399  0.09090537886208959  1.0000
  H   H80       1.0  0.34696966493712006  0.7437319864412402  0.09093563148534405  1.0000
  H   H81       1.0  0.7437219468435002  0.8184485322590617  0.09093036948038266  1.0000
  H   H82       1.0  0.7562616056190522  0.15303326406673523  0.40906316092068806  1.0000
  H   H83       1.0  0.1532308513661391  0.6816139583390707  0.4090969536094065  1.0000
  H   H84       1.0  0.6815504778640359  0.7562693684607428  0.40907397412593133  1.0000
  H   H85       1.0  0.2651115166238469  0.5976490608028299  0.0435696257660538  1.0000
  H   H86       1.0  0.5974397863753113  0.09389595610183923  0.043631515568606  1.0000
  H   H87       1.0  0.09394269326614342  0.2649037613676057  0.043422974665745115  1.0000
  H   H88       1.0  0.4060996590180181  0.9025628507516577  0.45637023342258926  1.0000
  H   H89       1.0  0.9023563043521319  0.2348818572814795  0.45643019405316215  1.0000
  H   H90       1.0  0.23510370027049993  0.40605290340822353  0.4565740842162074  1.0000
  H   H91       1.0  0.7348892208060746  0.4023472648920077  0.9564305133557339  1.0000
  H   H92       1.0  0.40255580342026326  0.906099680251771  0.9563728031589205  1.0000
  H   H93       1.0  0.9060580310998388  0.7350954826214111  0.9565756563486472  1.0000
  H   H94       1.0  0.5939023611885189  0.0974364279337152  0.5436284456200298  1.0000
  H   H95       1.0  0.09764897786484988  0.7651260314703451  0.5435716421971506  1.0000
  H   H96       1.0  0.7648996358841558  0.5939458438030486  0.5434270947161223  1.0000
  C   C1        1.0  0.9298995172277599  0.6945773405947335  0.2016580675180465  1.0000
  C   C2        1.0  0.694477660125507  0.17394617776425042  0.20168028991981402  1.0000
  C   C3        1.0  0.1740318051910563  0.9297566388573489  0.20155945829046826  1.0000
  C   C4        1.0  0.3260485863653243  0.8055208483062588  0.29832466274510244  1.0000
  C   C5        1.0  0.8054200914749786  0.5700988535999301  0.2983482019604366  1.0000
  C   C6        1.0  0.5702477677639733  0.32597280871770096  0.2984385947928772  1.0000
  C   C7        1.0  0.07009992027211348  0.30542070512777286  0.7983415794767977  1.0000
  C   C8        1.0  0.3055230704886043  0.8260530724706215  0.7983191090374433  1.0000
  C   C9        1.0  0.8259676393524344  0.0702437589888802  0.798441132458464  1.0000
  C   C10       1.0  0.6739489242722385  0.1944786279407537  0.7016770379394259  1.0000
  C   C11       1.0  0.19457740882496918  0.4299023711252445  0.7016522866825098  1.0000
  C   C12       1.0  0.42975488874703416  0.6740267688396031  0.7015586903473974  1.0000
  C   C13       1.0  0.021041720040578596  0.6826115072370912  0.17436147546009553  1.0000
  C   C14       1.0  0.6824059006907887  0.12212536804642586  0.17440467147034167  1.0000
  C   C15       1.0  0.122180056032569  0.020899589887037016  0.17421594909183108  1.0000
  C   C16       1.0  0.37786865847284185  0.8175932360287136  0.3255987963095281  1.0000
  C   C17       1.0  0.8173862948504435  0.478956552126455  0.3256445586187127  1.0000
  C   C18       1.0  0.47910499995168004  0.3778235008986499  0.3257800217353478  1.0000
  C   C19       1.0  0.978958373075841  0.31738392530903065  0.8256390536826642  1.0000
  C   C20       1.0  0.3175922431271728  0.8778744039495975  0.8255952513404096  1.0000
  C   C21       1.0  0.8778206816251598  0.9791020124715574  0.8257843936195003  1.0000
  C   C22       1.0  0.622128845916592  0.1824062339724435  0.6744021364321425  1.0000
  C   C23       1.0  0.18261572126660747  0.5210444812829351  0.6743536763251826  1.0000
  C   C24       1.0  0.52089830592773  0.6221734572364214  0.6742173776099778  1.0000
  C   C25       1.0  0.05905068479280119  0.7086630334526944  0.1984129056377385  1.0000
  C   C26       1.0  0.7084654196967789  0.033992763167496824  0.19846043236644562  1.0000
  C   C27       1.0  0.034018481560622094  0.05893714826770242  0.19819491704680559  1.0000
  C   C28       1.0  0.4660024053996991  0.7915325032232943  0.3015439097850887  1.0000
  C   C29       1.0  0.7913363565844946  0.4409478585082168  0.3015926657388661  1.0000
  C   C30       1.0  0.4410643870646637  0.46598230150791436  0.3017997394180085  1.0000
  C   C31       1.0  0.9409487599206302  0.291333260668722  0.8015875694272551  1.0000
  C   C32       1.0  0.2915282180740205  0.9660083824520316  0.801542983963259  1.0000
  C   C33       1.0  0.9659809504866032  0.9410632370868302  0.8018041378164041  1.0000
  C   C34       1.0  0.5339963877866721  0.20846464935048914  0.6984561272307133  1.0000
  C   C35       1.0  0.20866696667615509  0.5590497032724144  0.6984068894021291  1.0000
  C   C36       1.0  0.5589356894660041  0.5340148732705217  0.6981988097403046  1.0000
  C   C37       1.0  0.14343258170736556  0.7000697229647276  0.17435754073507326  1.0000
  C   C38       1.0  0.6999031347715458  0.9822724920312281  0.17439089797179738  1.0000
  C   C39       1.0  0.9822864052311431  0.14334131594154773  0.1741388175549403  1.0000
  C   C40       1.0  0.5177234943739606  0.8000976995108429  0.32561202881518625  1.0000
  C   C41       1.0  0.7999371940154701  0.35656469095012255  0.3256411150240553  1.0000
  C   C42       1.0  0.35666240796415843  0.5177129596723162  0.32585771321726037  1.0000
  C   C43       1.0  0.8565668723782665  0.2999265805254652  0.8256440862442104  1.0000
  C   C44       1.0  0.300095033641206  0.01772613200925827  0.8256120087047732  1.0000
  C   C45       1.0  0.0177143226566443  0.8566591041093331  0.8258602853364961  1.0000
  C   C46       1.0  0.48227529608608677  0.19990062287894972  0.6743877121348021  1.0000
  C   C47       1.0  0.2000700163691107  0.6434318019806186  0.6743584962960013  1.0000
  C   C48       1.0  0.6433389862755308  0.4822842716629481  0.6741435717692851  1.0000
  C   C49       1.0  0.1900377130574853  0.6641073076217836  0.1268819518262491  1.0000
  C   C50       1.0  0.6639251703999918  0.019131593947747647  0.12692025322311204  1.0000
  C   C51       1.0  0.019153713862962697  0.18995147642190352  0.12670345684554718  1.0000
  C   C52       1.0  0.48086339871017  0.8360787027349873  0.3730814453347478  1.0000
  C   C53       1.0  0.8358965444207981  0.309957930477374  0.3731167995462458  1.0000
  C   C54       1.0  0.31005206156808635  0.4808429486428736  0.3732931704539197  1.0000
  C   C55       1.0  0.8099630337446299  0.3358890274418301  0.873119339209836  1.0000
  C   C56       1.0  0.33607170393310065  0.9808675834273262  0.873082841363761  1.0000
  C   C57       1.0  0.980848309467639  0.8100478053863894  0.8732956061685043  1.0000
  C   C58       1.0  0.519136682137791  0.1639219939831876  0.6269177515118329  1.0000
  C   C59       1.0  0.16411001971944467  0.6900411849985348  0.6268830815401927  1.0000
  C   C60       1.0  0.6899486811445499  0.5191551411447577  0.6267076764834413  1.0000
  C   C61       1.0  0.15209638080967375  0.6372690511993895  0.10291693799838703  1.0000
  C   C62       1.0  0.6370521195855687  0.10791662768714622  0.10296782020742509  1.0000
  C   C63       1.0  0.10796824007621808  0.15195973134947138  0.10281056241056771  1.0000
  C   C64       1.0  0.3920795882836288  0.8629478472429499  0.39703562948957233  1.0000
  C   C65       1.0  0.862734741893945  0.3478989062111708  0.3970834527226756  1.0000
  C   C66       1.0  0.3480455125119306  0.3920304544839225  0.3971871388911482  1.0000
  C   C67       1.0  0.8479043587788909  0.36272903546531393  0.8970835249675417  1.0000
  C   C68       1.0  0.36294215545511577  0.8920830589573755  0.8970342623472263  1.0000
  C   C69       1.0  0.8920337846175455  0.8480389655508203  0.897188648636387  1.0000
  C   C70       1.0  0.6079198548966999  0.13705313551128737  0.6029648132264427  1.0000
  C   C71       1.0  0.13726921477491058  0.6521042279822283  0.6029145281340932  1.0000
  C   C72       1.0  0.6519565344480399  0.6079694372157789  0.6028148478614241  1.0000
  C   C73       1.0  0.06652512541607791  0.6472904440299558  0.12628791299111705  1.0000
  C   C74       1.0  0.647055576364515  0.16008726396233197  0.12634264228299238  1.0000
  C   C75       1.0  0.16014003356827536  0.06637454956462817  0.12619863662870054  1.0000
  C   C76       1.0  0.3399078873392369  0.8529428651412663  0.37366143303056987  1.0000
  C   C77       1.0  0.852709587660442  0.43347092247982744  0.3737162521437014  1.0000
  C   C78       1.0  0.43363192740667234  0.3398593646523409  0.37379867596561667  1.0000
  C   C79       1.0  0.9334762635408963  0.35270502321250763  0.8737126641798624  1.0000
  C   C80       1.0  0.35294256160305787  0.8399136747267728  0.873656600490513  1.0000
  C   C81       1.0  0.839861983514197  0.9336247259978167  0.8737996584424863  1.0000
  C   C82       1.0  0.6600909101644276  0.1470578093722494  0.6263392516735066  1.0000
  C   C83       1.0  0.14729113380927567  0.5665335950500251  0.6262821984888093  1.0000
  C   C84       1.0  0.5663707496096321  0.6601408196734584  0.6262011489417532  1.0000
  C   C85       1.0  0.18282980266148027  0.7288637576697357  0.20051107865692336  1.0000
  C   C86       1.0  0.7288530841637311  0.8878545569893037  0.2004980866935498  1.0000
  C   C87       1.0  0.8878975111235688  0.1827332118911683  0.20030589085806133  1.0000
  C   C88       1.0  0.6121411239080388  0.7711439942086925  0.2995028778305197  1.0000
  C   C89       1.0  0.7711435749060911  0.3171666825211333  0.2994861371135896  1.0000
  C   C90       1.0  0.3172660670424605  0.6121026104489146  0.2996934036881812  1.0000
  C   C91       1.0  0.8171696648858315  0.27113080046521526  0.7994921443353747  1.0000
  C   C92       1.0  0.2711450725482365  0.1121464004373607  0.7995034599085287  1.0000
  C   C93       1.0  0.1121025562627054  0.817269230182241  0.7996917099755053  1.0000
  C   C94       1.0  0.38785832745126203  0.22885347909750928  0.7004984530829502  1.0000
  C   C95       1.0  0.22886232305218357  0.6828315179455801  0.7005114461938005  1.0000
  C   C96       1.0  0.6827366212768807  0.3878940675517698  0.7003076933880691  1.0000
  C   C97       1.0  0.2558418562588257  0.5510720575510462  0.9697123683683985  1.0000
  C   C98       1.0  0.5509249301815868  0.22356597069317283  0.9697376081452944  1.0000
  C   C99       1.0  0.223729609880607  0.25567416338879684  0.9697011760448434  1.0000
  C   C100      1.0  0.27643262946708796  0.9490744907047957  0.5302652627193112  1.0000
  C   C101      1.0  0.9489333136862752  0.2441490366520043  0.5302881448564565  1.0000
  C   C102      1.0  0.24433351353867747  0.2762676438339682  0.5302913080811676  1.0000
  C   C103      1.0  0.7441556198440723  0.44893148806860234  0.030285224314333517  1.0000
  C   C104      1.0  0.4490706408695928  0.7764296469228781  0.030264406753651996  1.0000
  C   C105      1.0  0.7762730560025941  0.7443254235372835  0.030297261009721528  1.0000
  C   C106      1.0  0.7235680951266941  0.05093002994797771  0.4697335718846317  1.0000
  C   C107      1.0  0.05106612546244799  0.7558630812148195  0.4697121730343171  1.0000
  C   C108      1.0  0.7556678738852013  0.7237325120413232  0.46970923674083304  1.0000
  C   C109      1.0  0.3359204987678268  0.48042605282453393  0.9753005810006813  1.0000
  C   C110      1.0  0.4803269857062061  0.20850826685862964  0.9753699865348009  1.0000
  C   C111      1.0  0.20870106957180207  0.3357120697466486  0.9753193900754767  1.0000
  C   C112      1.0  0.2914896497823917  0.019672516617511345  0.52463349718807  1.0000
  C   C113      1.0  0.019574396037128797  0.1640677126396142  0.524701730067889  1.0000
  C   C114      1.0  0.16429690521773915  0.29129152046604645  0.524674262588043  1.0000
  C   C115      1.0  0.6640763402351196  0.5195748480452951  0.024698229773164812  1.0000
  C   C116      1.0  0.5196692212516963  0.7914864766904305  0.02463054655618899  1.0000
  C   C117      1.0  0.7913041996933002  0.6642852531859659  0.024680503110026713  1.0000
  C   C118      1.0  0.708513028029401  0.9803300135861545  0.4753665035305234  1.0000
  C   C119      1.0  0.980423725800307  0.8359455216093182  0.47529593990026336  1.0000
  C   C120      1.0  0.8357051346986138  0.7087060191099327  0.47532678041044807  1.0000
  C   C121      1.0  0.39835280041265253  0.45836867435355105  0.9265243443352631  1.0000
  C   C122      1.0  0.4582704854905373  0.21684100698993797  0.926618561251125  1.0000
  C   C123      1.0  0.2170043621229354  0.3981851940427176  0.9265466509891168  1.0000
  C   C124      1.0  0.2831645987226352  0.04172071557798056  0.5733862118082982  1.0000
  C   C125      1.0  0.0416302192818137  0.1016360547365025  0.5734798031136563  1.0000
  C   C126      1.0  0.1018209586327359  0.282992738782113  0.5734446051864309  1.0000
  C   C127      1.0  0.601642744112901  0.5416316069119277  0.07347456644327365  1.0000
  C   C128      1.0  0.5417250662485671  0.7831575226744505  0.07338117759756105  1.0000
  C   C129      1.0  0.7830015545797406  0.6018130251615476  0.07345323614685395  1.0000
  C   C130      1.0  0.7168439182378633  0.9582752365098911  0.4266147474871858  1.0000
  C   C131      1.0  0.9583685386322854  0.8983722017206193  0.42651626936260806  1.0000
  C   C132      1.0  0.898180427995662  0.7170050712153044  0.42655576382434646  1.0000
  C   C133      1.0  0.3799117985155219  0.5089957612366762  0.874070955762555  1.0000
  C   C134      1.0  0.5088414477147082  0.23709307195144202  0.8741423294019269  1.0000
  C   C135      1.0  0.23712061844749138  0.37984752183228204  0.8740893493562681  1.0000
  C   C136      1.0  0.2629103211745374  0.9911490974788467  0.6258615357453435  1.0000
  C   C137      1.0  0.991005032543569  0.12007962014320138  0.6259326368270663  1.0000
  C   C138      1.0  0.12015721620907979  0.262876996297301  0.6259017784170594  1.0000
  C   C139      1.0  0.6200837397618882  0.49100451378294724  0.12592718707311698  1.0000
  C   C140      1.0  0.49115410169581253  0.7629078004678932  0.12585720128655725  1.0000
  C   C141      1.0  0.7628833544093679  0.6201526971898588  0.1259105235793285  1.0000
  C   C142      1.0  0.7370936571349702  0.008848781911275682  0.3741389293218872  1.0000
  C   C143      1.0  0.008994378828418798  0.8799242621676555  0.37406399395298  1.0000
  C   C144      1.0  0.8798441690561489  0.7371213986081243  0.37409844256080776  1.0000
  C   C145      1.0  0.24263780185290068  0.5972121514033264  0.9153653491134505  1.0000
  C   C146      1.0  0.5970192087402424  0.24495250394381424  0.9153613631441075  1.0000
  C   C147      1.0  0.24499810468349642  0.24257393184521459  0.9153399514461427  1.0000
  C   C148      1.0  0.2550468563043609  0.902976929524698  0.5846413949255265  1.0000
  C   C149      1.0  0.902794451928237  0.257353083264931  0.5846351948864736  1.0000
  C   C150      1.0  0.25743120491048177  0.25500490112110447  0.5846536712632114  1.0000
  C   C151      1.0  0.7573583850553121  0.4027925387047517  0.08463305138953107  1.0000
  C   C152      1.0  0.4029757162365327  0.7550416324925922  0.08464080583728165  1.0000
  C   C153      1.0  0.7550019685531736  0.7574273435351061  0.084658329424677  1.0000
  C   C154      1.0  0.7449558103743213  0.09702500327925635  0.41535721794026154  1.0000
  C   C155      1.0  0.0972030454754531  0.7426534150010725  0.41536511337458387  1.0000
  C   C156      1.0  0.7425695368367328  0.7449949465134723  0.4153471155468509  1.0000
  C   C157      1.0  0.18232883648601472  0.5811013330236037  0.018394662708011805  1.0000
  C   C158      1.0  0.5808949066754251  0.21841331901061523  0.018416104546020134  1.0000
  C   C159      1.0  0.21860034564141975  0.18219032676721986  0.018404937561229  1.0000
  C   C160      1.0  0.28158461355097597  0.9191044276446618  0.4815869460104807  1.0000
  C   C161      1.0  0.9189056079609371  0.3176601168380985  0.4816062149859874  1.0000
  C   C162      1.0  0.31781774518051975  0.28139483295407797  0.4815895281248145  1.0000
  C   C163      1.0  0.8176680001883481  0.4189019106011786  0.9816039399056393  1.0000
  C   C164      1.0  0.41909678253453103  0.7815851315481197  0.981586561989431  1.0000
  C   C165      1.0  0.7814010212771549  0.8178092223395909  0.9815930674936764  1.0000
  C   C166      1.0  0.7184141640729393  0.08090208970306617  0.5184114904216486  1.0000
  C   C167      1.0  0.08109447158173569  0.6823505451766466  0.5183931531011652  1.0000
  C   C168      1.0  0.682185590974136  0.7186039142571873  0.5184116508075077  1.0000
  N   N1        1.0  0.30347381816048363  0.5778019120368613  0.8685529743873702  1.0000
  N   N2        1.0  0.5775923855161125  0.2503120270121784  0.8685674215371789  1.0000
  N   N3        1.0  0.2502567467499616  0.3034611106691756  0.8685442360926743  1.0000
  N   N4        1.0  0.24968743489736767  0.9224008201740619  0.6314364217689105  1.0000
  N   N5        1.0  0.9222001850474371  0.196517843948314  0.6314485754140479  1.0000
  N   N6        1.0  0.1965427922492111  0.2497425256265444  0.6314494486015575  1.0000
  N   N7        1.0  0.696521723638746  0.42219953904462676  0.1314456403253459  1.0000
  N   N8        1.0  0.4224057633567568  0.7496842324128891  0.1314330054995949  1.0000
  N   N9        1.0  0.7497420404160876  0.6965413123225164  0.13145523656982053  1.0000
  N   N10       1.0  0.7503133019648798  0.0775984363066585  0.36856374513119766  1.0000
  N   N11       1.0  0.0777979425825208  0.8034848432189605  0.3685494553178756  1.0000
  N   N12       1.0  0.8034579459761915  0.7502561459461673  0.36855086633146067  1.0000
  N   N13       1.0  0.20446361723845288  0.600932701091452  0.05541699578691352  1.0000
  N   N14       1.0  0.6007132083594227  0.13942182735313224  0.05546818698118735  1.0000
  N   N15       1.0  0.13950207731059547  0.2042902067155907  0.05533783944839853  1.0000
  N   N16       1.0  0.3605737680702674  0.8992883238479196  0.4445345869414795  1.0000
  N   N17       1.0  0.899070886675453  0.2955287790307822  0.4445834753021812  1.0000
  N   N18       1.0  0.2957158668078677  0.3604935691410134  0.4446596380237793  1.0000
  N   N19       1.0  0.7955364749125451  0.39906448930160815  0.9445834732285476  1.0000
  N   N20       1.0  0.3992810694075856  0.8605766894753799  0.9445341916392848  1.0000
  N   N21       1.0  0.8604992972192703  0.7957087637290597  0.944661081582275  1.0000
  N   N22       1.0  0.6394250249461705  0.10071293245068363  0.5554655657582614  1.0000
  N   N23       1.0  0.10093049279726067  0.7044801629562941  0.555416384911922  1.0000
  N   N24       1.0  0.704286828555098  0.6395054609833934  0.5553424028065593  1.0000
  O   O1        1.0  0.8847281074267312  0.6979550468439585  0.17247582386711002  1.0000
  O   O2        1.0  0.6977640644927093  0.2449754668338642  0.17250510210303105  1.0000
  O   O3        1.0  0.24506169412645556  0.8845097039072987  0.1724199359808765  1.0000
  O   O4        1.0  0.2550191366276238  0.8022411351620705  0.3274950589910263  1.0000
  O   O5        1.0  0.8020401388557088  0.6152694131155344  0.32753620723321575  1.0000
  O   O6        1.0  0.6154999549219227  0.2549488127439262  0.32757499086740444  1.0000
  O   O7        1.0  0.11527262415280147  0.3020424455439681  0.8275236352174388  1.0000
  O   O8        1.0  0.3022438019061582  0.7550195858594292  0.8274954792705529  1.0000
  O   O9        1.0  0.7549364430456292  0.1154888889039327  0.8275791309813981  1.0000
  O   O10       1.0  0.7449777207219838  0.19775861150638016  0.6725059677057885  1.0000
  O   O11       1.0  0.197955399251768  0.3847349656289083  0.6724620512863879  1.0000
  O   O12       1.0  0.38450467241613506  0.745054654673588  0.672425819772748  1.0000
  O   O13       1.0  0.9049690599525632  0.7017356686689383  0.2530728362799835  1.0000
  O   O14       1.0  0.7018802444934592  0.1401576649108875  0.2530459223883241  1.0000
  O   O15       1.0  0.14026965043628084  0.9049064079119095  0.25295535260714525  1.0000
  O   O16       1.0  0.35984238244346045  0.798115534096766  0.2469576421106652  1.0000
  O   O17       1.0  0.7982565922320503  0.5950359391144108  0.2469357385584274  1.0000
  O   O18       1.0  0.5950914862874087  0.3597381654792925  0.247039678053568  1.0000
  O   O19       1.0  0.09502906960823046  0.2982635028044527  0.74692531470653  1.0000
  O   O20       1.0  0.2981120818164483  0.8598434303976604  0.7469555260560057  1.0000
  O   O21       1.0  0.8597291493959602  0.09509192384665974  0.7470455402571331  1.0000
  O   O22       1.0  0.6401544784279521  0.20188538863354213  0.7530438564631937  1.0000
  O   O23       1.0  0.2017402575062519  0.4049643862161929  0.7530643721626261  1.0000
  O   O24       1.0  0.4049105247168612  0.6402570001124843  0.7529577333908292  1.0000
  O   O25       1.0  0.136833704918665  0.7580465917208912  0.2449164629715171  1.0000
  O   O26       1.0  0.7580756039779217  0.8602496645820853  0.2448905328307729  1.0000
  O   O27       1.0  0.8603796592217349  0.13672623469614117  0.2447335259143344  1.0000
  O   O28       1.0  0.6397457192966698  0.7419278935973638  0.25511239095887117  1.0000
  O   O29       1.0  0.7419535491723365  0.36317053401110416  0.25508248199312794  1.0000
  O   O30       1.0  0.3632731288192872  0.6396186653287473  0.2552588912463705  1.0000
  O   O31       1.0  0.8631657558128367  0.2419508909540867  0.755086019856236  1.0000
  O   O32       1.0  0.2419238415309906  0.1397489754171986  0.7551101180454508  1.0000
  O   O33       1.0  0.1396203936795573  0.8632703301908862  0.755262099505451  1.0000
  O   O34       1.0  0.3602517720288176  0.25807449469797217  0.7448870336753971  1.0000
  O   O35       1.0  0.2580452578734693  0.636826046146375  0.7449192389412999  1.0000
  O   O36       1.0  0.6367295657481905  0.3603780189177853  0.7447429737727377  1.0000
  O   O37       1.0  0.2596789607915824  0.7213193431533185  0.17637515726845981  1.0000
  O   O38       1.0  0.7214290794501608  0.8426355590961664  0.17634365985370698  1.0000
  O   O39       1.0  0.8426203284500317  0.25956030359196813  0.1761706471259217  1.0000
  O   O40       1.0  0.6573587396267727  0.7785735059826279  0.32365937087462976  1.0000
  O   O41       1.0  0.7786956533905282  0.24031699000607187  0.32361568607146296  1.0000
  O   O42       1.0  0.2404449031579077  0.6573810455140717  0.3238290483456653  1.0000
  O   O43       1.0  0.740321153397815  0.27867376537540184  0.8236278838630754  1.0000
  O   O44       1.0  0.27857164298497855  0.1573672005867336  0.8236548509060954  1.0000
  O   O45       1.0  0.15737977330097408  0.7404421728336176  0.8238311773933731  1.0000
  O   O46       1.0  0.3426406906595502  0.22142629134097558  0.6763394480500579  1.0000
  O   O47       1.0  0.2213206106666661  0.7596750384287605  0.6763819899665791  1.0000
  O   O48       1.0  0.7595558381915595  0.3426176291815679  0.6761716505587857  1.0000
  O   O49       1.0  0.10959672129640549  0.5887486213823296  0.0222478208272676  1.0000
  O   O50       1.0  0.5884977521753216  0.2796706305016911  0.022260141598508202  1.0000
  O   O51       1.0  0.27997665935811256  0.10952570386438511  0.02236048209971392  1.0000
  O   O52       1.0  0.22032747057145488  0.9115012650490899  0.4777444489105277  1.0000
  O   O53       1.0  0.9112579971370421  0.39039270916553204  0.47775527109519095  1.0000
  O   O54       1.0  0.39048196670570695  0.22001566568968658  0.4776341380201926  1.0000
  O   O55       1.0  0.8903988131193329  0.4112586850250681  0.9777500814992306  1.0000
  O   O56       1.0  0.41149134478584415  0.7203306814502214  0.9777424566588094  1.0000
  O   O57       1.0  0.7200247245439542  0.8904732759490417  0.9776395908452498  1.0000
  O   O58       1.0  0.7796693604803264  0.0885084219325308  0.5222536772554208  1.0000
  O   O59       1.0  0.0887407811124206  0.60962025778489  0.5222434568321076  1.0000
  O   O60       1.0  0.6095200888309832  0.7799818895009167  0.5223688248354393  1.0000
