data_image0
_chemical_formula_structural       Li2UH10C14N2O12
_chemical_formula_sum              "Li2 U1 H10 C14 N2 O12"
_cell_length_a       7.109874218804088
_cell_length_b       8.310429028986631
_cell_length_c       8.416651315819601
_cell_angle_alpha    83.56791575455223
_cell_angle_beta     71.43285161471415
_cell_angle_gamma    69.98630120866295

_space_group_name_H-M_alt    "P 1"
_space_group_IT_number       1

loop_
  _space_group_symop_operation_xyz
  'x, y, z'

loop_
  _atom_site_type_symbol
  _atom_site_label
  _atom_site_symmetry_multiplicity
  _atom_site_fract_x
  _atom_site_fract_y
  _atom_site_fract_z
  _atom_site_occupancy
  Li  Li1       1.0  0.7729504962992235  0.3497175041254152  0.91154426909241  1.0000
  Li  Li2       1.0  0.22705707811601145  0.6502830614132691  0.08845863943701467  1.0000
  U   U1        1.0  1.9561558488766032e-06  0.4999969751469492  0.500000202171208  1.0000
  H   H1        1.0  0.8916732617458504  0.4040497546162882  0.15934542100956853  1.0000
  H   H2        1.0  0.1083267917120096  0.5959584988126068  0.8406598158512965  1.0000
  H   H3        1.0  0.9457420270212675  0.20969513067814927  0.12955642634067746  1.0000
  H   H4        1.0  0.054256551390387986  0.7903130771304278  0.87044089667495  1.0000
  H   H5        1.0  0.31165639752235547  0.7704313691154355  0.5548880143028186  1.0000
  H   H6        1.0  0.688330262252826  0.2295806751639091  0.44511208002865754  1.0000
  H   H7        1.0  0.5908258731081514  0.7094869278904953  0.27632598939973013  1.0000
  H   H8        1.0  0.40914861322273305  0.29051102007804985  0.7236790170193004  1.0000
  H   H9        1.0  0.6393788541880592  0.9598079291925006  0.08548962528637828  1.0000
  H   H10       1.0  0.3606205463390992  0.040175929067324  0.9145079131955854  1.0000
  C   C1        1.0  0.05010566564787669  0.0958119460452096  0.6756374931665763  1.0000
  C   C2        1.0  0.949904823036419  0.9041924701363302  0.3243653725619567  1.0000
  C   C3        1.0  0.39642537029892094  0.2977698920336637  0.15408445014673333  1.0000
  C   C4        1.0  0.6035971003263679  0.7022267809311772  0.8459041972342761  1.0000
  C   C5        1.0  0.2151534152428168  0.0428526862506686  0.5109423969272059  1.0000
  C   C6        1.0  0.784852276444681  0.9571414225301922  0.4890522603535176  1.0000
  C   C7        1.0  0.33791049857955324  0.8733478164334231  0.46774970268304383  1.0000
  C   C8        1.0  0.662083270886974  0.12665014803695132  0.5322512890687108  1.0000
  C   C9        1.0  0.49208089234005525  0.8401813625413297  0.31264925299165486  1.0000
  C   C10       1.0  0.5079084746680422  0.15981277613460776  0.6873569326180728  1.0000
  C   C11       1.0  0.5183391678748418  0.9771167389788648  0.2062675782688431  1.0000
  C   C12       1.0  0.48164668370627334  0.022882444587978095  0.7937247149453557  1.0000
  C   C13       1.0  0.385447312095202  0.14194175319090624  0.25833654200755524  1.0000
  C   C14       1.0  0.6145562759069844  0.858061352847109  0.7416635837545515  1.0000
  N   N1        1.0  0.2375776733116267  0.17493463681343974  0.4077001708192824  1.0000
  N   N2        1.0  0.7624220309898746  0.8250633243570247  0.5922980324800167  1.0000
  O   O1        1.0  0.18974024955173246  0.5208404869832322  0.5924949010398921  1.0000
  O   O2        1.0  0.8102648660476673  0.4791588155854142  0.40751238100131826  1.0000
  O   O3        1.0  0.925471511527881  0.32225525364167856  0.0716254224330086  1.0000
  O   O4        1.0  0.07452849296345916  0.6777568296581648  0.9283770088388225  1.0000
  O   O5        1.0  0.9610760839625098  0.26056778815318893  0.6905798893621908  1.0000
  O   O6        1.0  0.03894034553092487  0.7394365926971959  0.30941424932193234  1.0000
  O   O7        1.0  0.005088693272291574  0.9913472859420126  0.7864312482880537  1.0000
  O   O8        1.0  0.9948975576265155  0.00865835360608  0.2135696963583555  1.0000
  O   O9        1.0  0.26027829870992747  0.4391653799721809  0.22362773490399232  1.0000
  O   O10       1.0  0.7397357209341916  0.5608339080372247  0.7763735828809645  1.0000
  O   O11       1.0  0.5275098500680498  0.2872913196727326  0.013003092209146387  1.0000
  O   O12       1.0  0.47247894921579087  0.712707967947253  0.9870074041323137  1.0000
