data_image0
_chemical_formula_structural       Zn8H36C56O38
_chemical_formula_sum              "Zn8 H36 C56 O38"
_cell_length_a       15.961325654170402
_cell_length_b       15.958766157101502
_cell_length_c       21.3526572704487
_cell_angle_alpha    111.94592876067712
_cell_angle_beta     111.93118868678265
_cell_angle_gamma    90.00602548275191

_space_group_name_H-M_alt    "P 1"
_space_group_IT_number       1

loop_
  _space_group_symop_operation_xyz
  'x, y, z'

loop_
  _atom_site_type_symbol
  _atom_site_label
  _atom_site_symmetry_multiplicity
  _atom_site_fract_x
  _atom_site_fract_y
  _atom_site_fract_z
  _atom_site_occupancy
  Zn  Zn1       1.0  0.2821694875969811  0.6826938790224163  0.5643932988407627  1.0000
  Zn  Zn2       1.0  0.6825717895819422  0.2821494205270625  0.5642171763038418  1.0000
  Zn  Zn3       1.0  0.2820536291567564  0.8816667363633216  0.5642163609806232  1.0000
  Zn  Zn4       1.0  0.7179507571439175  0.11833669354019354  0.4357863383693612  1.0000
  Zn  Zn5       1.0  0.31742655070404885  0.7178515224632988  0.43578495499957626  1.0000
  Zn  Zn6       1.0  0.7178356384599666  0.31730549650106354  0.4356101401595467  1.0000
  Zn  Zn7       1.0  0.11830931479087059  0.7177956099521835  0.4356029845101829  1.0000
  Zn  Zn8       1.0  0.8816951744467474  0.28220669055808406  0.5644011866268954  1.0000
  H   H1        1.0  0.3399185977520176  0.17965426898629033  0.01933211514668905  1.0000
  H   H2        1.0  0.9062526762944715  0.7149161680072494  0.03719692874746982  1.0000
  H   H3        1.0  0.808862800094559  0.640754658191895  0.02017086919274653  1.0000
  H   H4        1.0  0.7990598371375839  0.7004781549780928  0.9618880414365237  1.0000
  H   H5        1.0  0.3036756513860795  0.08787241546372118  0.037167456037309414  1.0000
  H   H6        1.0  0.22806208942045436  0.11236598086451721  0.9615741528426581  1.0000
  H   H7        1.0  0.6963236990159273  0.9121301099603445  0.9628329472128313  1.0000
  H   H8        1.0  0.6600776430789778  0.8203453335862604  0.9806638111237403  1.0000
  H   H9        1.0  0.7719338952111843  0.8876314741773541  0.03842493953264645  1.0000
  H   H10       1.0  0.19113389487484497  0.3592414548307162  0.9798248267817655  1.0000
  H   H11       1.0  0.09374523466483686  0.28507926866256383  0.9627999827479526  1.0000
  H   H12       1.0  0.20093909638884364  0.299519086103217  0.03810852327773519  1.0000
  H   H13       1.0  0.3163047311467934  0.8288519810710041  0.9632420962070752  1.0000
  H   H14       1.0  0.2576992836434471  0.9252341006512026  0.9796649607329541  1.0000
  H   H15       1.0  0.28024508937681963  0.8640116777813989  0.038262560616104294  1.0000
  H   H16       1.0  0.7422950495365586  0.07476785326009856  0.02033521832550625  1.0000
  H   H17       1.0  0.6836909526088422  0.17115224044474783  0.036752588572163306  1.0000
  H   H18       1.0  0.7197516898528559  0.13598297288127273  0.9617325352373383  1.0000
  H   H19       1.0  0.9023967092085743  0.3237290306288116  0.035899637388908466  1.0000
  H   H20       1.0  0.9960943465900769  0.2709825680618253  0.020846075107165594  1.0000
  H   H21       1.0  0.8807280806651645  0.21389055523111716  0.961232858164159  1.0000
  H   H22       1.0  0.0039030055846040568  0.7290142202459363  0.979150277767907  1.0000
  H   H23       1.0  0.09760007002110177  0.6762656200338598  0.9640954584645345  1.0000
  H   H24       1.0  0.11927110735134519  0.7861055660756263  0.03876122331605813  1.0000
  H   H25       1.0  0.43268576541683507  0.20032290618157586  0.9612864628719606  1.0000
  H   H26       1.0  0.5510049091413336  0.2218405946588717  0.9787579340216227  1.0000
  H   H27       1.0  0.5046001518559182  0.3031017278524715  0.03619003185790604  1.0000
  H   H28       1.0  0.4489908945186515  0.7781595631250796  0.02124097732370708  1.0000
  H   H29       1.0  0.5673101225034217  0.7996757892424354  0.038711848352299676  1.0000
  H   H30       1.0  0.49539498837323487  0.6968976436574223  0.9638075319508062  1.0000
  H   H31       1.0  0.24398842984739846  0.517694255823045  0.038383289302835556  1.0000
  H   H32       1.0  0.2253794766964745  0.6191956508503438  0.021422367894636817  1.0000
  H   H33       1.0  0.2633275620025869  0.5279595027124628  0.963639044521983  1.0000
  H   H34       1.0  0.7746183562281103  0.38080135916830227  0.9785758343579118  1.0000
  H   H35       1.0  0.7560133010206727  0.4823027616790085  0.9616147027715201  1.0000
  H   H36       1.0  0.7366698885927434  0.47203931251840453  0.036357406633300185  1.0000
  C   C1        1.0  0.1499763575040802  0.6499213566254269  0.29917051845200854  1.0000
  C   C2        1.0  0.53750195741695  0.03830251874074971  0.0751394900404493  1.0000
  C   C3        1.0  0.07455449539435934  0.7194177612358246  0.006502934655948427  1.0000
  C   C4        1.0  0.3067283730065  0.887867713240162  0.006238531584934084  1.0000
  C   C5        1.0  0.6932666705112636  0.112132898651879  0.9937582510727409  1.0000
  C   C6        1.0  0.9254447112988231  0.28057869303760435  0.9934932187324321  1.0000
  C   C7        1.0  0.5018764136612006  0.230202821228815  0.004755543726958079  1.0000
  C   C8        1.0  0.4981210556108023  0.7697963269687449  0.9952429793364884  1.0000
  C   C9        1.0  0.22049110024865115  0.5444465072452545  0.9951397895332902  1.0000
  C   C10       1.0  0.7795083140276803  0.4555509555469399  0.004858624558451774  1.0000
  C   C11       1.0  0.03696006311736971  0.5371570133034426  0.0751376504540033  1.0000
  C   C12       1.0  0.9630381600712923  0.4628415697971279  0.924862310661041  1.0000
  C   C13       1.0  0.4624952511394156  0.9616976382424695  0.924860825620982  1.0000
  C   C14       1.0  0.42363929827847374  0.923391840599301  0.8471019799727275  1.0000
  C   C15       1.0  0.5763622437736161  0.07661394117677392  0.15290403595455615  1.0000
  C   C16       1.0  0.0763762591289634  0.576405681189719  0.15289797589215226  1.0000
  C   C17       1.0  0.8500253343918873  0.35008116746408297  0.7008322253249731  1.0000
  C   C18       1.0  0.9236257291267193  0.42359323274226307  0.8471078019739975  1.0000
  C   C19       1.0  0.026782476551851113  0.9730605617266121  0.4999599118238081  1.0000
  C   C20       1.0  0.9732224934356638  0.026941960494539802  0.5000461086907464  1.0000
  C   C21       1.0  0.4731012232415424  0.5268271951220883  0.5000683903873906  1.0000
  C   C22       1.0  0.5268998832583023  0.47317296934453873  0.49993171509585466  1.0000
  C   C23       1.0  0.35053209294056836  0.8506487632519393  0.7008299918900461  1.0000
  C   C24       1.0  0.47317592865893937  0.973146052728147  0.5000567563100731  1.0000
  C   C25       1.0  0.5268227583122282  0.026855686421861  0.4999422994034504  1.0000
  C   C26       1.0  0.4089778773219663  0.5908534740954748  0.5000929207655105  1.0000
  C   C27       1.0  0.5910207219704019  0.40914319280398087  0.49990810081074943  1.0000
  C   C28       1.0  0.09080004639996983  0.908929918412781  0.499939845588777  1.0000
  C   C29       1.0  0.6494693133375334  0.14935432566765172  0.2991717819407071  1.0000
  C   C30       1.0  0.9092063957767992  0.0910740749862597  0.5000642243418127  1.0000
  C   C31       1.0  0.4091526420718807  0.9090897426148035  0.5001266972377537  1.0000
  C   C32       1.0  0.5908442169922807  0.09091604183036134  0.49987463763585527  1.0000
  C   C33       1.0  0.09095513395700285  0.5908624484558586  0.4999195754996819  1.0000
  C   C34       1.0  0.90905259430955  0.4091359169474131  0.5000844114294692  1.0000
  C   C35       1.0  0.02688022509069287  0.5268319871791433  0.49997213512563116  1.0000
  C   C36       1.0  0.9731272175579946  0.47316694305420987  0.5000308818572918  1.0000
  C   C37       1.0  0.44276737926850995  0.9708932305788878  0.025452717649550035  1.0000
  C   C38       1.0  0.5572286195235208  0.02910771374602211  0.9745470731270273  1.0000
  C   C39       1.0  0.9609556639761365  0.4101627515546511  0.9744575519864895  1.0000
  C   C40       1.0  0.039045259842787124  0.5898368483488099  0.025543055337614435  1.0000
  C   C41       1.0  0.41602651122977347  0.0268323272397382  0.9745188692322343  1.0000
  C   C42       1.0  0.5839706911010297  0.9731677187545883  0.025480755793147136  1.0000
  C   C43       1.0  0.06631221422037473  0.45118777408722366  0.025351492020789124  1.0000
  C   C44       1.0  0.9336878697123507  0.5488105859679135  0.9746489602436198  1.0000
  C   C45       1.0  0.39009852089550623  0.8902247400204146  0.7799635270213513  1.0000
  C   C46       1.0  0.6098998680066785  0.10977734198187512  0.22003317747383735  1.0000
  C   C47       1.0  0.1103755146008822  0.6102981463476099  0.22003201491047264  1.0000
  C   C48       1.0  0.8896216548928706  0.3896980773969858  0.7799648398054656  1.0000
  C   C49       1.0  0.4887651553586918  0.9056319498069668  0.9749041296586539  1.0000
  C   C50       1.0  0.511231311732125  0.09436899425103465  0.025096129223293063  1.0000
  C   C51       1.0  0.9323088294227733  0.4967055656273801  0.025133687307210655  1.0000
  C   C52       1.0  0.06769098756875268  0.5032936922245242  0.9748678669191335  1.0000
  C   C53       1.0  0.29957738398319816  0.11067979699362951  0.9935450858138566  1.0000
  C   C54       1.0  0.7004186928435346  0.8893195739824477  0.006453414205594856  1.0000
  C   C55       1.0  0.155523900474364  0.33376449832003624  0.006072303906997001  1.0000
  C   C56       1.0  0.8444743820723417  0.6662321784650159  0.993924294542758  1.0000
  O   O1        1.0  0.24993416204659274  0.7499608998494481  0.5000009902448143  1.0000
  O   O2        1.0  0.9060199529340736  0.3343609495183486  0.6693891843538965  1.0000
  O   O3        1.0  0.33484486391392915  0.7632039469326415  0.6694146592365299  1.0000
  O   O4        1.0  0.665157661642681  0.23679970601629924  0.33058754896408976  1.0000
  O   O5        1.0  0.3971517573966139  0.6283336155558105  0.4548845889241734  1.0000
  O   O6        1.0  0.6028449953120685  0.3716667636721099  0.5451166399040089  1.0000
  O   O7        1.0  0.1735520066045239  0.9424028970178783  0.5448753883119011  1.0000
  O   O8        1.0  0.8264528604460465  0.05760075459651398  0.4551291604155593  1.0000
  O   O9        1.0  0.7500698775688974  0.25004173389441325  0.500004784695065  1.0000
  O   O10       1.0  0.3980560426918914  0.8262067119984166  0.4554865122323406  1.0000
  O   O11       1.0  0.6019355977926821  0.1737976034041395  0.5445130283822905  1.0000
  O   O12       1.0  0.3709757159672051  0.9426742734024388  0.5448038533582533  1.0000
  O   O13       1.0  0.6290253470442478  0.057334553967997734  0.4551996303207275  1.0000
  O   O14       1.0  0.0576287150322655  0.628055687716774  0.45449841204703734  1.0000
  O   O15       1.0  0.942380711683363  0.3719454903498373  0.5455079569096739  1.0000
  O   O16       1.0  0.17356456174485402  0.602928534764203  0.5453050362046454  1.0000
  O   O17       1.0  0.8264426778369726  0.3970662306340387  0.45469709358180677  1.0000
  O   O18       1.0  0.37146811497521526  0.6026220699745011  0.5452806228464553  1.0000
  O   O19       1.0  0.6285309322300067  0.39737099638610834  0.45471947779783756  1.0000
  O   O20       1.0  0.05731189905579724  0.8261403197155699  0.45500901864557614  1.0000
  O   O21       1.0  0.9426955283347527  0.17386481216158242  0.5449905606875235  1.0000
  O   O22       1.0  0.23739412858522257  0.6656638279240781  0.3306645253662879  1.0000
  O   O23       1.0  0.7626089574652751  0.3343417406921603  0.6693375585838551  1.0000
  O   O24       1.0  0.3347531926209939  0.9065518959848688  0.6692988580004453  1.0000
  O   O25       1.0  0.6652477515838697  0.09345130419053051  0.3307031383609882  1.0000
  O   O26       1.0  0.09398164676679238  0.6656396586369554  0.3306141517789314  1.0000
  O   O27       1.0  0.33106348023081705  0.04744247387143472  0.9416988084013268  1.0000
  O   O28       1.0  0.6689331616060984  0.9525556564555872  0.05830094087453133  1.0000
  O   O29       1.0  0.1331576722857477  0.4081104733741938  0.05801349908930581  1.0000
  O   O30       1.0  0.8668420151573385  0.5918862026101266  0.9419845036765508  1.0000
  O   O31       1.0  0.39242832048876153  0.9470581683904414  0.058241146151381575  1.0000
  O   O32       1.0  0.6075665527991987  0.05294210091622628  0.9417575196192729  1.0000
  O   O33       1.0  0.9190734126580083  0.32010014380648505  0.9415458071332382  1.0000
  O   O34       1.0  0.08092617807368908  0.6798977725599756  0.05845141448158138  1.0000
  O   O35       1.0  0.5254950391964287  0.18864268590453287  0.05724960584343825  1.0000
  O   O36       1.0  0.47450188374206453  0.8113580359087607  0.9427497398717648  1.0000
  O   O37       1.0  0.12836105024344135  0.5019744440627534  0.9426517115466025  1.0000
  O   O38       1.0  0.8716379924454856  0.498021778614202  0.057347015590806974  1.0000
