data_image0
_chemical_formula_structural       Zn2H40C36N2O12
_chemical_formula_sum              "Zn2 H40 C36 N2 O12"
_cell_length_a       8.475720535211163
_cell_length_b       9.255072639872076
_cell_length_c       17.59065691242326
_cell_angle_alpha    89.98767696573096
_cell_angle_beta     93.18500587602517
_cell_angle_gamma    89.98150771760888

_space_group_name_H-M_alt    "P 1"
_space_group_IT_number       1

loop_
  _space_group_symop_operation_xyz
  'x, y, z'

loop_
  _atom_site_type_symbol
  _atom_site_label
  _atom_site_symmetry_multiplicity
  _atom_site_fract_x
  _atom_site_fract_y
  _atom_site_fract_z
  _atom_site_occupancy
  Zn  Zn1       1.0  0.6545501055132803  0.5165330865813472  0.5026278901854512  1.0000
  Zn  Zn2       1.0  0.345356602937713  0.5166148939580991  0.4973331565604298  1.0000
  H   H1        1.0  0.8799064779711474  0.3372896357547787  0.8515612562609649  1.0000
  H   H2        1.0  0.842182113585132  0.45960521756073536  0.9259868738214294  1.0000
  H   H3        1.0  0.7740066852131237  0.27988613173123156  0.9313600748826617  1.0000
  H   H4        1.0  0.12022255094605332  0.3371793274180135  0.14839700533047315  1.0000
  H   H5        1.0  0.15791687263146775  0.4595090576497114  0.0739442191772  1.0000
  H   H6        1.0  0.22618793729547096  0.2797906319030544  0.0686255805000968  1.0000
  H   H7        1.0  0.8977735330076301  0.45969389220317686  0.1504000591128118  1.0000
  H   H8        1.0  0.8385059913458904  0.3033571257616641  0.0973473832078113  1.0000
  H   H9        1.0  0.7844832370002808  0.4756531446286231  0.06222896889840971  1.0000
  H   H10       1.0  0.21564107651143166  0.4758206704107407  0.9377676829685696  1.0000
  H   H11       1.0  0.10229960162192951  0.4598720174558365  0.8496250197370969  1.0000
  H   H12       1.0  0.16163210385771984  0.3035380638286894  0.9027299278720236  1.0000
  H   H13       1.0  0.965182518676258  0.620143567091084  0.752806817356735  1.0000
  H   H14       1.0  0.8423672936214005  0.6265095864705684  0.8320270687798158  1.0000
  H   H15       1.0  0.7723435408448012  0.7611645296933317  0.6743572445962442  1.0000
  H   H16       1.0  0.6250048064057196  0.7350389362068128  0.7400404309089055  1.0000
  H   H17       1.0  0.7689902810437348  0.8873129039751431  0.8371431564609539  1.0000
  H   H18       1.0  0.7453137918292114  0.9864932681907347  0.7508010584140126  1.0000
  H   H19       1.0  0.9305281566126952  0.9079370919292982  0.7779505587290672  1.0000
  H   H20       1.0  0.03471675704496851  0.6199557954324603  0.2471450683026433  1.0000
  H   H21       1.0  0.1573752250598304  0.6262282802269608  0.1678646894148343  1.0000
  H   H22       1.0  0.22754549740211166  0.761076356014115  0.325434661148293  1.0000
  H   H23       1.0  0.37480623128072926  0.7348425667569103  0.25973103618477483  1.0000
  H   H24       1.0  0.23059426457131593  0.8871032590581932  0.1625936759879352  1.0000
  H   H25       1.0  0.2544653383917251  0.9862724845454806  0.24889724326180848  1.0000
  H   H26       1.0  0.0691806480207973  0.907874722696384  0.22185940949099606  1.0000
  H   H27       1.0  0.9981118920216546  0.3179346199977644  0.2956167993942955  1.0000
  H   H28       1.0  0.8675668680995586  0.24078276335848162  0.22379768692604785  1.0000
  H   H29       1.0  0.815045782968433  0.24297851589039962  0.3950026070968066  1.0000
  H   H30       1.0  0.6738032049567552  0.18563971180796557  0.3246593775737026  1.0000
  H   H31       1.0  0.8537218761663041  0.9879685027547751  0.2844584960047385  1.0000
  H   H32       1.0  0.825375934418716  0.9755240999091295  0.3833874613944559  1.0000
  H   H33       1.0  0.004236814141805196  0.047485037637955  0.35151484716430303  1.0000
  H   H34       1.0  0.0019686600427064934  0.31810893289778613  0.7043516627280013  1.0000
  H   H35       1.0  0.13237919473088772  0.24096810619755615  0.7762619650593336  1.0000
  H   H36       1.0  0.18527790959859664  0.24292029400842807  0.6050935232534728  1.0000
  H   H37       1.0  0.32636602251577784  0.18561602383974926  0.6755450808341055  1.0000
  H   H38       1.0  0.14641527807862792  0.9881487992551002  0.7157997989789564  1.0000
  H   H39       1.0  0.17504589974809903  0.9754555913833654  0.6169144552358291  1.0000
  H   H40       1.0  0.9960039853844764  0.0475221863290685  0.6486009603751131  1.0000
  C   C1        1.0  0.4999475028446839  0.7940418376055618  0.49997649598435606  1.0000
  C   C2        1.0  0.4999534497981702  0.23666315677194652  0.5000005766603977  1.0000
  C   C3        1.0  0.4999073997728659  0.9497542924402036  0.4999827301329846  1.0000
  C   C4        1.0  0.49992361062872737  0.08084050225816238  0.4999882106001864  1.0000
  C   C5        1.0  0.5089903430128047  0.4948640272234071  0.3548377325024745  1.0000
  C   C6        1.0  0.4909439646721196  0.49488396474766444  0.645124772475512  1.0000
  C   C7        1.0  0.6392588231201657  0.4060961036257281  0.8493371406533825  1.0000
  C   C8        1.0  0.36082475066086067  0.40597092278608216  0.1506366278204538  1.0000
  C   C9        1.0  0.6516240107351763  0.4106046333038619  0.15605563795001134  1.0000
  C   C10       1.0  0.3484484881492094  0.4106940852716931  0.843944556339224  1.0000
  C   C11       1.0  0.6349863866709456  0.45154731069800386  0.7732759527290656  1.0000
  C   C12       1.0  0.3650422777799563  0.451416905701805  0.22669345185656917  1.0000
  C   C13       1.0  0.6521124469174284  0.4323847407166708  0.23516922756663666  1.0000
  C   C14       1.0  0.34793003177394166  0.43245443035046793  0.7648288936613526  1.0000
  C   C15       1.0  0.4905169647541643  0.4606305606899139  0.7283356090723461  1.0000
  C   C16       1.0  0.5094849683239957  0.46055609777560846  0.27164338011946404  1.0000
  C   C17       1.0  0.49488629083528946  0.39430373152878656  0.8853134468117078  1.0000
  C   C18       1.0  0.5052337347928743  0.39422052153541626  0.11468085787614513  1.0000
  C   C19       1.0  0.4983172304155944  0.3761506431769276  0.9651947478258126  1.0000
  C   C20       1.0  0.5018269693550438  0.3761124088509716  0.0348078100154154  1.0000
  C   C21       1.0  0.7922112593090916  0.36928566350700004  0.89175590782601  1.0000
  C   C22       1.0  0.2079276890782822  0.36917847521192465  0.10820668796869631  1.0000
  C   C23       1.0  0.8016630202872791  0.41195623883511695  0.11476178266287462  1.0000
  C   C24       1.0  0.19843594918876314  0.4121096046478598  0.8852584895522356  1.0000
  C   C25       1.0  0.8420176427331257  0.6222796984821455  0.7692683972428185  1.0000
  C   C26       1.0  0.7527061224376865  0.752392543629142  0.7354753105677005  1.0000
  C   C27       1.0  0.8021196440369495  0.8911634134516857  0.7775852078455261  1.0000
  C   C28       1.0  0.1578185682340632  0.6220865303834698  0.23062252941026173  1.0000
  C   C29       1.0  0.24708939370286498  0.7522169425377637  0.2643120314024046  1.0000
  C   C30       1.0  0.19756681807614743  0.8909890322102001  0.2221661688330201  1.0000
  C   C31       1.0  0.8737755120837536  0.29247644325945993  0.28038020314274803  1.0000
  C   C32       1.0  0.8020366832913769  0.19380978245264655  0.3382670369877091  1.0000
  C   C33       1.0  0.8756057053102851  0.043061961391600796  0.33943645354263213  1.0000
  C   C34       1.0  0.12628554037628703  0.29260910078792063  0.7196532990391944  1.0000
  C   C35       1.0  0.19816410965642467  0.19382940836624124  0.6618587188600956  1.0000
  C   C36       1.0  0.12462367716851469  0.0431046944079014  0.6607657337282404  1.0000
  N   N1        1.0  0.0646940948233308  0.5189893696432647  0.4967282475092745  1.0000
  N   N2        1.0  0.93524267093882  0.5189430126318725  0.50321638027674  1.0000
  O   O1        1.0  0.6309683462587757  0.7331318111656555  0.5196341639564752  1.0000
  O   O2        1.0  0.36926416299393594  0.2973395002730825  0.5128901944998037  1.0000
  O   O3        1.0  0.6306568857777679  0.2972435601627054  0.4871206292954326  1.0000
  O   O4        1.0  0.3689578631561475  0.7331743145746826  0.48031668441728936  1.0000
  O   O5        1.0  0.6353526689784489  0.544043582223132  0.38885612514420137  1.0000
  O   O6        1.0  0.3645857078453503  0.5441606892286971  0.611107416147469  1.0000
  O   O7        1.0  0.6189716330853017  0.47099389136321407  0.6120052513724161  1.0000
  O   O8        1.0  0.3809362276729544  0.4711207665583001  0.387947441947425  1.0000
  O   O9        1.0  0.7767450270273386  0.4850019633363017  0.7428645380670744  1.0000
  O   O10       1.0  0.22322810946614172  0.4848293789886711  0.25708755178141734  1.0000
  O   O11       1.0  0.7951492823235854  0.43242050367626916  0.2759872877430142  1.0000
  O   O12       1.0  0.20488850872146003  0.4325277972110158  0.7240118939212508  1.0000
