data_image0
_chemical_formula_structural       Na2Ho2H24C24O24
_chemical_formula_sum              "Na2 Ho2 H24 C24 O24"
_cell_length_a       6.837867788709641
_cell_length_b       7.451811884004851
_cell_length_c       15.60521378802652
_cell_angle_alpha    89.999874779109
_cell_angle_beta     102.66147987711017
_cell_angle_gamma    90.00000002853147

_space_group_name_H-M_alt    "P 1"
_space_group_IT_number       1

loop_
  _space_group_symop_operation_xyz
  'x, y, z'

loop_
  _atom_site_type_symbol
  _atom_site_label
  _atom_site_symmetry_multiplicity
  _atom_site_fract_x
  _atom_site_fract_y
  _atom_site_fract_z
  _atom_site_occupancy
  Na  Na1       1.0  0.1409661069897084  0.24990503103349948  0.2820787205087073  1.0000
  Na  Na2       1.0  0.8590318309018059  0.7499059306520338  0.7179187916425464  1.0000
  Ho  Ho1       1.0  0.30414859596776017  0.7501571306647747  0.6083279113202453  1.0000
  Ho  Ho2       1.0  0.695849333215989  0.2501557223763342  0.39167152215783574  1.0000
  H   H1        1.0  0.2370209760885444  0.24950955182648477  0.10361551988363973  1.0000
  H   H2        1.0  0.7629784637577401  0.7495136819771203  0.8963814973543764  1.0000
  H   H3        1.0  0.1338426544649849  0.7502517681231565  0.8962776784901225  1.0000
  H   H4        1.0  0.8661627462513765  0.25025566845335595  0.10372760507781462  1.0000
  H   H5        1.0  0.15509669708005452  0.25502580367433586  0.9397382316497342  1.0000
  H   H6        1.0  0.8449147253194838  0.7550296463523338  0.06026122196016813  1.0000
  H   H7        1.0  0.21546701223417838  0.7447449099621225  0.060157956984369314  1.0000
  H   H8        1.0  0.7845443926202335  0.24475043971974492  0.9398466323915786  1.0000
  H   H9        1.0  0.5142217383523544  0.2682314359948919  0.5839086787630665  1.0000
  H   H10       1.0  0.4857731951184904  0.768222962785785  0.4160878820260408  1.0000
  H   H11       1.0  0.9302323865429756  0.7320747000337421  0.41604548415576664  1.0000
  H   H12       1.0  0.06975655008535848  0.23208318771695252  0.5839550200223229  1.0000
  H   H13       1.0  0.45686112497278236  0.11417468449041483  0.7002020540623806  1.0000
  H   H14       1.0  0.5431368889944893  0.6141720975471332  0.2997943285998731  1.0000
  H   H15       1.0  0.7565137542865301  0.886057647690606  0.29980078236329183  1.0000
  H   H16       1.0  0.24349159604958  0.3860588997416202  0.7001998657914827  1.0000
  H   H17       1.0  0.21303837345791274  0.5860516581057883  0.19574624611405514  1.0000
  H   H18       1.0  0.7869596407896752  0.08605376859725312  0.8042533706311661  1.0000
  H   H19       1.0  0.017382765884406095  0.4136774571669336  0.8041750612133571  1.0000
  H   H20       1.0  0.9826150728199748  0.9136739789621801  0.19582547072162984  1.0000
  H   H21       1.0  0.9907330988438403  0.5983009868769072  0.20838111566289547  1.0000
  H   H22       1.0  0.009263413022445401  0.09830183762082363  0.7916177016849845  1.0000
  H   H23       1.0  0.7824126281372442  0.4014146833297121  0.791561082079433  1.0000
  H   H24       1.0  0.2175882204230746  0.9014178837205411  0.20843847284041325  1.0000
  C   C1        1.0  0.5564249039943973  0.24987856278836776  0.11323955078185581  1.0000
  C   C2        1.0  0.4435775191485902  0.7498773787145723  0.8867609590906727  1.0000
  C   C3        1.0  0.6053063813847076  0.2500058295529258  0.21077413263705586  1.0000
  C   C4        1.0  0.39469304390839705  0.7500091093636956  0.7892260867256554  1.0000
  C   C5        1.0  0.3557416836795468  0.2505670923092752  0.06718458319878103  1.0000
  C   C6        1.0  0.6442652414995252  0.7505643535908605  0.9328150803820777  1.0000
  C   C7        1.0  0.28894650604374317  0.7492264298820785  0.932784920099728  1.0000
  C   C8        1.0  0.7110604026734749  0.24922915672712523  0.06721858818945496  1.0000
  C   C9        1.0  0.4646561256291974  0.24990894501192434  0.9295476890855314  1.0000
  C   C10       1.0  0.535356792594925  0.7499154362208884  0.07045319649125052  1.0000
  C   C11       1.0  0.3105334394391619  0.2528168614178625  0.9759111728580481  1.0000
  C   C12       1.0  0.6894779841060483  0.7528181871664688  0.024088283220152107  1.0000
  C   C13       1.0  0.3348430702271017  0.7470169194430696  0.0240513076245392  1.0000
  C   C14       1.0  0.6651653413867392  0.24701692376937257  0.9759517077805954  1.0000
  C   C15       1.0  0.37694242917643805  0.1865613908184045  0.5737172286440356  1.0000
  C   C16       1.0  0.6230525409092778  0.6865555513852682  0.4262807044221618  1.0000
  C   C17       1.0  0.8031187973983903  0.8136830195700144  0.42625970702483335  1.0000
  C   C18       1.0  0.1968746078974988  0.3136942326762622  0.5737379388828219  1.0000
  C   C19       1.0  0.4156512631521779  0.24998028895572597  0.8314359593012953  1.0000
  C   C20       1.0  0.5843616550371565  0.7499782878278654  0.16856492620055977  1.0000
  C   C21       1.0  0.353296966755643  0.08703679720908043  0.4868788041285797  1.0000
  C   C22       1.0  0.6466965560291768  0.5870252006280909  0.5131190949049442  1.0000
  C   C23       1.0  0.8664361569492981  0.9131915090993064  0.5130798547396083  1.0000
  C   C24       1.0  0.13354371246539642  0.41318969321054067  0.48691509233185576  1.0000
  O   O1        1.0  0.46528690288555913  0.2423753774093953  0.25343418973378823  1.0000
  O   O2        1.0  0.5347140309740014  0.7423734756542476  0.7465649022645452  1.0000
  O   O3        1.0  0.2119829771990922  0.7578180468338047  0.7466030992668922  1.0000
  O   O4        1.0  0.7880119473731783  0.2578105444158538  0.25339667582955633  1.0000
  O   O5        1.0  0.290292171693963  0.927500855604997  0.4838387968752117  1.0000
  O   O6        1.0  0.7096831764736038  0.42750023180983027  0.5161595418816065  1.0000
  O   O7        1.0  0.8066736762636281  0.07276771140433172  0.5161157000003983  1.0000
  O   O8        1.0  0.19332733692886714  0.5727898094864868  0.48388550300543204  1.0000
  O   O9        1.0  0.39373120855256616  0.055143535812781905  0.6415977189536053  1.0000
  O   O10       1.0  0.6062668302963986  0.5551366586997161  0.35840001070701544  1.0000
  O   O11       1.0  0.75188110413108  0.9450981912361203  0.3583779252375409  1.0000
  O   O12       1.0  0.24812120923851927  0.44510775695832194  0.6416242882193972  1.0000
  O   O13       1.0  0.5526625919462376  0.20858239287446173  0.7904749230675139  1.0000
  O   O14       1.0  0.44734885166872823  0.7085842388638997  0.20952522294609827  1.0000
  O   O15       1.0  0.7623043883161671  0.7913963079400547  0.2095720200081814  1.0000
  O   O16       1.0  0.23770999871482704  0.2914092340617104  0.7904308860225769  1.0000
  O   O17       1.0  0.094573988932531  0.5142073786329817  0.19995379286650924  1.0000
  O   O18       1.0  0.9054225722421593  0.014209504044188703  0.800043837323024  1.0000
  O   O19       1.0  0.8946787532129433  0.4855056207303933  0.7999308365453717  1.0000
  O   O20       1.0  0.1053160504752029  0.9855061783642899  0.20006932480617934  1.0000
  O   O21       1.0  0.3969205222130228  0.1694128806138053  0.42193738433234534  1.0000
  O   O22       1.0  0.603065449113288  0.6694224661853171  0.5780628994591767  1.0000
  O   O23       1.0  0.9748763101359545  0.8307026988779428  0.578040949740796  1.0000
  O   O24       1.0  0.0251185709306796  0.33072264850195415  0.4219600250158636  1.0000
