data_image0
_chemical_formula_structural       Cs4P8H40C44O12
_chemical_formula_sum              "Cs4 P8 H40 C44 O12"
_cell_length_a       7.223822579647637
_cell_length_b       12.438518116904971
_cell_length_c       14.69
_cell_angle_alpha    108.9299280258068
_cell_angle_beta     90.51915578323954
_cell_angle_gamma    90.62515146023104

_space_group_name_H-M_alt    "P 1"
_space_group_IT_number       1

loop_
  _space_group_symop_operation_xyz
  'x, y, z'

loop_
  _atom_site_type_symbol
  _atom_site_label
  _atom_site_symmetry_multiplicity
  _atom_site_fract_x
  _atom_site_fract_y
  _atom_site_fract_z
  _atom_site_occupancy
  Cs  Cs1       1.0  0.2683267517154704  0.0673617937979714  0.8949503949747141  1.0000
  Cs  Cs2       1.0  0.7316671756704024  0.9326346092889608  0.10505083635701601  1.0000
  Cs  Cs3       1.0  0.2142445251600691  0.1212593889567444  0.16773852458874933  1.0000
  Cs  Cs4       1.0  0.785747835403356  0.8787293640173317  0.8322599176155094  1.0000
  P   P1        1.0  0.7502431304022039  0.2055967831981249  0.0477181993071198  1.0000
  P   P2        1.0  0.2497578201760078  0.7944038699515091  0.9522862729738791  1.0000
  P   P3        1.0  0.8543208919384282  0.3416429903068661  0.18199429356734242  1.0000
  P   P4        1.0  0.14567875536631192  0.6583610628929293  0.8180117876023303  1.0000
  P   P5        1.0  0.5969483535761313  0.35466093236238555  0.2679884341145495  1.0000
  P   P6        1.0  0.4030442908092695  0.6453397207872484  0.7320112360103225  1.0000
  P   P7        1.0  0.6721345337839112  0.2095467914731515  0.3205300814962513  1.0000
  P   P8        1.0  0.3278636277903644  0.7904530116639421  0.6794680182509722  1.0000
  H   H1        1.0  0.6430048625274624  0.1782671800006668  0.8397890256462476  1.0000
  H   H2        1.0  0.3569919146813447  0.8217326231364339  0.16021859822539847  1.0000
  H   H3        1.0  0.5955515862870158  0.321229939150264  0.7598684794253288  1.0000
  H   H4        1.0  0.4044464536492641  0.6787647639115875  0.24013298398559618  1.0000
  H   H5        1.0  0.6608452812339037  0.525723406071009  0.845491731075029  1.0000
  H   H6        1.0  0.33913897586670316  0.47427384702846354  0.1545090099238777  1.0000
  H   H7        1.0  0.7803846534896266  0.6759750227541446  0.9915665781451324  1.0000
  H   H8        1.0  0.21960102852244032  0.3240239303704087  0.008433955447763715  1.0000
  H   H9        1.0  0.8870213429219475  0.7348485913241447  0.1642246014868789  1.0000
  H   H10       1.0  0.1129699981899819  0.2651554618756506  0.83577463532108  1.0000
  H   H11       1.0  0.9060939886037003  0.5936955088729619  0.24874860446826122  1.0000
  H   H12       1.0  0.09391133807389448  0.4063144944146231  0.7512523290857518  1.0000
  H   H13       1.0  0.623819237813187  0.6081542221843819  0.3455047497342392  1.0000
  H   H14       1.0  0.3761829552194982  0.39184048087746953  0.6544899248296262  1.0000
  H   H15       1.0  0.7240477137035625  0.7413248368691043  0.5048771313452747  1.0000
  H   H16       1.0  0.2759587337905174  0.2586741162554489  0.4951173681553059  1.0000
  H   H17       1.0  0.8278340387936465  0.6687303658727117  0.6349275121044542  1.0000
  H   H18       1.0  0.1721614148686896  0.33127198730201  0.36507059531231084  1.0000
  H   H19       1.0  0.8673040998202096  0.5045410935653862  0.6957993355182879  1.0000
  H   H20       1.0  0.1326843914687998  0.4954595595842477  0.3042037197776679  1.0000
  H   H21       1.0  0.863837980319843  0.2957703635415783  0.6647790283428493  1.0000
  H   H22       1.0  0.1361547046115561  0.7042319896331364  0.3352217896781014  1.0000
  H   H23       1.0  0.7813286989295564  0.1625130475777397  0.5023324421873667  1.0000
  H   H24       1.0  0.2186639657288509  0.8374884555844346  0.4976708651939178  1.0000
  H   H25       1.0  0.46460392886123  0.999527393027563  0.6869389463837408  1.0000
  H   H26       1.0  0.5353885768421095  0.0004836571354616  0.31306364715438667  1.0000
  H   H27       1.0  0.3517136981223175  0.0343218063544128  0.56148920266007  1.0000
  H   H28       1.0  0.6482803103555597  0.9656779967826807  0.4385102400526578  1.0000
  H   H29       1.0  0.4738292325220286  0.1669220626245576  0.6033041360630379  1.0000
  H   H30       1.0  0.5261606634054417  0.8330794405376167  0.3966903094241303  1.0000
  H   H31       1.0  0.24349419262053829  0.1555386946841395  0.6426846326844498  1.0000
  H   H32       1.0  0.7564929548489943  0.8444636584905822  0.3573093533113791  1.0000
  H   H33       1.0  0.0511952452875448  0.9623722980132428  0.7090554573285105  1.0000
  H   H34       1.0  0.9488041587412113  0.0376215550360683  0.2909444171998814  1.0000
  H   H35       1.0  0.7594546389208502  0.0690745690667853  0.6404185824342861  1.0000
  H   H36       1.0  0.2405531726656989  0.9309235340452275  0.35958113553569865  1.0000
  H   H37       1.0  0.981130436494503  0.0540463473533279  0.5838057643556241  1.0000
  H   H38       1.0  0.0188801235499838  0.9459509057461446  0.4161950938408979  1.0000
  H   H39       1.0  0.8511336380838443  0.9312363386600779  0.5854100778537727  1.0000
  H   H40       1.0  0.1488741735027048  0.0687617644519349  0.4145896401162119  1.0000
  C   C1        1.0  0.7200971061261113  0.3011339426712141  0.9775982723156816  1.0000
  C   C2        1.0  0.2799149193758339  0.6988667104784199  0.02240488784129719  1.0000
  C   C3        1.0  0.6673579192097634  0.2673935448944036  0.8815423696533884  1.0000
  C   C4        1.0  0.3326471641918474  0.73260625824269  0.11846392975763818  1.0000
  C   C5        1.0  0.6430425693346534  0.3492208521041249  0.8346273207299505  1.0000
  C   C6        1.0  0.35696104860949174  0.6507755509828144  0.16537395377984862  1.0000
  C   C7        1.0  0.679244632030894  0.4629091793639333  0.8822205538328873  1.0000
  C   C8        1.0  0.32076175464418805  0.537087223723006  0.11777869080791702  1.0000
  C   C9        1.0  0.7403497908927221  0.5000266769635715  0.9796634446609787  1.0000
  C   C10       1.0  0.2596663066136315  0.4999705761359081  0.020334715267942706  1.0000
  C   C11       1.0  0.7878834031717119  0.6148395708142687  0.03054459779314561  1.0000
  C   C12       1.0  0.21212021477243326  0.3851568322726706  0.9694519115702889  1.0000
  C   C13       1.0  0.8458188582453869  0.6470439959306589  0.1254917299443861  1.0000
  C   C14       1.0  0.1541862657022222  0.3529575072315154  0.8745055063348133  1.0000
  C   C15       1.0  0.8590454087222027  0.5661440524024641  0.17396540995866872  1.0000
  C   C16       1.0  0.14096386832180485  0.4338574507597102  0.8260332062957971  1.0000
  C   C17       1.0  0.8161413373740345  0.452559426672579  0.12696235949940163  1.0000
  C   C18       1.0  0.18387070840091013  0.5474420764895953  0.8730389920324341  1.0000
  C   C19       1.0  0.7570562482933881  0.4177174126434693  0.02833323658661162  1.0000
  C   C20       1.0  0.2429626787628933  0.5822823904936243  0.9716676786258135  1.0000
  C   C21       1.0  0.6760218242647724  0.45768500229091563  0.3828535327464095  1.0000
  C   C22       1.0  0.3239832185908398  0.5423131008210973  0.6171448114166012  1.0000
  C   C23       1.0  0.6716818923333605  0.5741817709840547  0.40121116233314075  1.0000
  C   C24       1.0  0.3283217661567904  0.4258163321279653  0.5987858141911815  1.0000
  C   C25       1.0  0.7276823855995502  0.6500513402984325  0.4920991314627585  1.0000
  C   C26       1.0  0.2723226369830627  0.3499459128010471  0.5078962561790306  1.0000
  C   C27       1.0  0.7828383880672334  0.6101798020680462  0.5652782049678536  1.0000
  C   C28       1.0  0.21716119841850198  0.3898217010941281  0.4347190066381615  1.0000
  C   C29       1.0  0.7829352893817826  0.4917696551465696  0.5510609031387973  1.0000
  C   C30       1.0  0.2170684502003581  0.5082318480156047  0.44893836917768226  1.0000
  C   C31       1.0  0.829660663509344  0.44586812795491687  0.62475161559734  1.0000
  C   C32       1.0  0.170336113699463  0.5541316751821839  0.3752492009223687  1.0000
  C   C33       1.0  0.82795754181803  0.3297071142152177  0.6072278387009007  1.0000
  C   C34       1.0  0.1720392353907769  0.670292688921883  0.39277161634841223  1.0000
  C   C35       1.0  0.7803590145183179  0.2539641967693527  0.5151615855531517  1.0000
  C   C36       1.0  0.21964470479083084  0.7460364563802884  0.48483813391808184  1.0000
  C   C37       1.0  0.7331979510392586  0.2962251202506678  0.44194132387323043  1.0000
  C   C38       1.0  0.2668098605472906  0.7037729828613452  0.5580563518911746  1.0000
  C   C39       1.0  0.7317245559825664  0.41490727118505794  0.45826601122300303  1.0000
  C   C40       1.0  0.2682846399694512  0.585090831926955  0.5417316707096945  1.0000
  C   C41       1.0  0.37572740481870437  0.1108450353123231  0.6244564082506656  1.0000
  C   C42       1.0  0.6242625519277638  0.8891590178874722  0.37554146091861185  1.0000
  C   C43       1.0  0.8874206929598216  0.0200628459899761  0.6271254465699699  1.0000
  C   C44       1.0  0.1125870983537283  0.9799344071094965  0.3728747185547618  1.0000
  O   O1        1.0  0.9066475724846157  0.1227188604885328  0.008368191513540098  1.0000
  O   O2        1.0  0.0933491844511991  0.8772800926360276  0.9916371565720823  1.0000
  O   O3        1.0  0.5658907200628747  0.1522865467047438  0.06153480818021962  1.0000
  O   O4        1.0  0.4341075023303985  0.8477158064699708  0.938468757454686  1.0000
  O   O5        1.0  0.5031064502805975  0.1342127300591969  0.31831895192095067  1.0000
  O   O6        1.0  0.4968863360157982  0.8657938731782195  0.6816864376781809  1.0000
  O   O7        1.0  0.8427789930257533  0.1476990290244515  0.2693477352232776  1.0000
  O   O8        1.0  0.1572107812637284  0.8522973740624806  0.7306439473108527  1.0000
  O   O9        1.0  0.4454423888393322  0.083378580095868  0.7049853743460446  1.0000
  O   O10       1.0  0.5545476895451245  0.9166305731791766  0.2950152577762779  1.0000
  O   O11       1.0  0.9685395787053821  0.0286207722462564  0.718191647456223  1.0000
  O   O12       1.0  0.03146125023483389  0.9713747808281354  0.2818093811365401  1.0000
