data_image0
_chemical_formula_structural       Zn2H44C52N6O8
_chemical_formula_sum              "Zn2 H44 C52 N6 O8"
_cell_length_a       16.256132323610313
_cell_length_b       17.39096847075922
_cell_length_c       19.40334452145777
_cell_angle_alpha    85.87947418825786
_cell_angle_beta     85.38781061903626
_cell_angle_gamma    86.21420830879758

_space_group_name_H-M_alt    "P 1"
_space_group_IT_number       1

loop_
  _space_group_symop_operation_xyz
  'x, y, z'

loop_
  _atom_site_type_symbol
  _atom_site_label
  _atom_site_symmetry_multiplicity
  _atom_site_fract_x
  _atom_site_fract_y
  _atom_site_fract_z
  _atom_site_occupancy
  Zn  Zn1       1.0  0.585821070240165  0.5002940122836037  0.4944885944772821  1.0000
  Zn  Zn2       1.0  0.4141804422334659  0.49969252458929975  0.5055087594949725  1.0000
  H   H1        1.0  0.6277474422315237  0.5156778616938383  0.7141557584822779  1.0000
  H   H2        1.0  0.3722601754191075  0.48430892947675364  0.28584740395357505  1.0000
  H   H3        1.0  0.278157014084627  0.5802941673208154  0.4328262570552539  1.0000
  H   H4        1.0  0.7218411352464997  0.4196975066866386  0.5671737092619082  1.0000
  H   H5        1.0  0.7108478132065272  0.5930334719328485  0.4104647149306615  1.0000
  H   H6        1.0  0.2891527172514898  0.4069598799670117  0.5895355664426347  1.0000
  H   H7        1.0  0.13508091788535384  0.3975243271720431  0.5982875286168508  1.0000
  H   H8        1.0  0.8649176096974571  0.6024824360551623  0.4017242898538385  1.0000
  H   H9        1.0  0.6213890334120437  0.5159374699431752  0.8437205991213476  1.0000
  H   H10       1.0  0.3786049339397763  0.48407613846082864  0.1562799239459949  1.0000
  H   H11       1.0  0.3952525117342348  0.2578409247105355  0.5695126251857232  1.0000
  H   H12       1.0  0.6047543717305573  0.74213467867947  0.43049714214692614  1.0000
  H   H13       1.0  0.6453459993248529  0.10513821066165016  0.48020224249613364  1.0000
  H   H14       1.0  0.3546603040035948  0.8948511048371304  0.5197957590324478  1.0000
  H   H15       1.0  0.6027288155261131  0.8864578435436811  0.4240002381281514  1.0000
  H   H16       1.0  0.39728670042822495  0.11351756235874436  0.5760110733497755  1.0000
  H   H17       1.0  0.9970584126507589  0.5581989730017584  0.4364206849897058  1.0000
  H   H18       1.0  0.002937205211985395  0.44181568542425975  0.5635967207433978  1.0000
  H   H19       1.0  0.8750967702897016  0.42111985255480283  0.5664015197173669  1.0000
  H   H20       1.0  0.1248991473577803  0.5788898500515316  0.43360984414469067  1.0000
  H   H21       1.0  0.2575967047323716  0.5589480952457322  0.7930719962040483  1.0000
  H   H22       1.0  0.25529123397399184  0.4579332730955342  0.7855680207393689  1.0000
  H   H23       1.0  0.20074281844272693  0.5012004991155836  0.8569201583390652  1.0000
  H   H24       1.0  0.33134851214188643  0.431726232609229  0.8938014405072751  1.0000
  H   H25       1.0  0.3278568619549204  0.5296652162876899  0.906595008411351  1.0000
  H   H26       1.0  0.7446864517432915  0.5421497111385635  0.2144177788205326  1.0000
  H   H27       1.0  0.7424218375150886  0.44113043252851736  0.2069228110751737  1.0000
  H   H28       1.0  0.7992509104848651  0.4988941990219333  0.14306891705435024  1.0000
  H   H29       1.0  0.6721516037607032  0.47038146880943543  0.09339321920250404  1.0000
  H   H30       1.0  0.6686170951824478  0.5683255715507161  0.10619128726693823  1.0000
  H   H31       1.0  0.36696396205596227  0.4931809849896214  0.7253059280038343  1.0000
  H   H32       1.0  0.6330376769188036  0.5068288202331817  0.27468548789089203  1.0000
  H   H33       1.0  0.3560450456100882  0.750623353400151  0.5228475275515194  1.0000
  H   H34       1.0  0.6439562807812322  0.24936730312227703  0.4771476380230908  1.0000
  H   H35       1.0  0.46456158735515635  0.9598895018546258  0.3320338095642583  1.0000
  H   H36       1.0  0.3646678157699769  0.9573832329227443  0.375171691844038  1.0000
  H   H37       1.0  0.3903319997816084  0.03784459513940421  0.3176455469465367  1.0000
  H   H38       1.0  0.39158217939391443  0.07347724440623443  0.439459162942839  1.0000
  H   H39       1.0  0.48933929016038746  0.07882280562471071  0.395786540712983  1.0000
  H   H40       1.0  0.6353300379708743  0.04260140429706641  0.6248316205316868  1.0000
  H   H41       1.0  0.5354340385069989  0.04009136756356212  0.6679635752362784  1.0000
  H   H42       1.0  0.6096639975819826  0.9621400474713088  0.682358393889473  1.0000
  H   H43       1.0  0.5106662281408632  0.9211579886454333  0.604208697634725  1.0000
  H   H44       1.0  0.6084280337160736  0.9265072640811027  0.5605423703683812  1.0000
  C   C1        1.0  0.5155103619447416  0.3486046080224981  0.5156054067733535  1.0000
  C   C2        1.0  0.48449367466105303  0.6513807209481044  0.4843923494753426  1.0000
  C   C3        1.0  0.51923206822093  0.26216462569375654  0.522570078835628  1.0000
  C   C4        1.0  0.48076627037288244  0.7378236847812047  0.47742740928441657  1.0000
  C   C5        1.0  0.4500537964149487  0.22363845514314568  0.5508713263872167  1.0000
  C   C6        1.0  0.5499524902712382  0.7763380122101043  0.44913122878515566  1.0000
  C   C7        1.0  0.4513301591943915  0.143392059943892  0.5540246352745584  1.0000
  C   C8        1.0  0.5486857162639752  0.8565900044295561  0.44597818186586125  1.0000
  C   C9        1.0  0.5209535415465466  0.099665598675486  0.5275773372988297  1.0000
  C   C10       1.0  0.47905612880656906  0.9003178633401773  0.4724216853350072  1.0000
  C   C11       1.0  0.5907945683191613  0.13854802592415896  0.5008153652668881  1.0000
  C   C12       1.0  0.40920923241564117  0.8614418805495135  0.4991832845739097  1.0000
  C   C13       1.0  0.590270615809608  0.21888833500094051  0.4987678022712814  1.0000
  C   C14       1.0  0.40973525563492785  0.7810976055061688  0.5012282749284651  1.0000
  C   C15       1.0  0.5184850816583619  0.0143984495285494  0.5258807341303112  1.0000
  C   C16       1.0  0.4815259951808529  0.9855822689161687  0.4741141685534486  1.0000
  C   C17       1.0  0.24321175868760755  0.540718396369762  0.4682440808342818  1.0000
  C   C18       1.0  0.7567866865846966  0.459279578192536  0.5317566894467944  1.0000
  C   C19       1.0  0.1579954828361565  0.539178597640735  0.4691995831203499  1.0000
  C   C20       1.0  0.8420012882976452  0.4608265190374895  0.5308108498536157  1.0000
  C   C21       1.0  0.11597008037910679  0.48716538005945875  0.5163169864123917  1.0000
  C   C22       1.0  0.8840259587351368  0.5128420536795774  0.4836934140813156  1.0000
  C   C23       1.0  0.49806218755256276  0.5039310504633789  0.635376440631866  1.0000
  C   C24       1.0  0.5019556216587162  0.4960627222310522  0.3646207127203027  1.0000
  C   C25       1.0  0.1642600550099473  0.43889960571846837  0.5606894869240833  1.0000
  C   C26       1.0  0.8357384937604804  0.5611072768141343  0.4393192321128013  1.0000
  C   C27       1.0  0.24950518599346344  0.4436655704821036  0.5563987971928199  1.0000
  C   C28       1.0  0.7504933810965041  0.5563293989800968  0.44360515974238274  1.0000
  C   C29       1.0  0.026683382256408105  0.48112319748518945  0.5212286115893505  1.0000
  C   C30       1.0  0.9733131032177339  0.5188869545496501  0.47878579696645573  1.0000
  C   C31       1.0  0.5695667942251247  0.5099915980308013  0.745533573814541  1.0000
  C   C32       1.0  0.43044017231287773  0.49000924379671335  0.25446400424078053  1.0000
  C   C33       1.0  0.5657771831847853  0.5097972810318724  0.8172714021482008  1.0000
  C   C34       1.0  0.43421797278939783  0.49021752449262124  0.1827274617221235  1.0000
  C   C35       1.0  0.4906407345647493  0.501504086458951  0.8578391508280205  1.0000
  C   C36       1.0  0.5093478971472082  0.49853119429624837  0.1421542724410401  1.0000
  C   C37       1.0  0.41633919308479506  0.494864769566995  0.8253274933183192  1.0000
  C   C38       1.0  0.5836586604432696  0.5051596061757521  0.1746610900933021  1.0000
  C   C39       1.0  0.4220526171218992  0.4965908908868641  0.7529988324690394  1.0000
  C   C40       1.0  0.5779484116509721  0.5034182262966523  0.24699573759955482  1.0000
  C   C41       1.0  0.4969843128423505  0.5033407065035576  0.7128939904915228  1.0000
  C   C42       1.0  0.5030202044219508  0.49666028832954373  0.2871006373139764  1.0000
  C   C43       1.0  0.5057085361133034  0.49913429798499465  0.06654155321108851  1.0000
  C   C44       1.0  0.4942683984249783  0.5009253865557852  0.933451254866938  1.0000
  C   C45       1.0  0.33288747141511976  0.48877530946428743  0.8654599803888277  1.0000
  C   C46       1.0  0.2578152100555755  0.5025602547171175  0.8225825606139594  1.0000
  C   C47       1.0  0.6671037261410575  0.5112710144909657  0.13452982552925621  1.0000
  C   C48       1.0  0.7421811796101069  0.49751829746335846  0.17740585818064147  1.0000
  C   C49       1.0  0.4436405452097745  0.037395130577223816  0.4166122320535449  1.0000
  C   C50       1.0  0.41424580466739513  0.9956880728928964  0.35720740344001467  1.0000
  C   C51       1.0  0.5563643056874669  0.9625861299715058  0.5833861255798993  1.0000
  C   C52       1.0  0.5857521846652958  0.004294374996533201  0.6427928792781543  1.0000
  N   N1        1.0  0.44120397378755183  0.45864541471915043  0.9757180182651269  1.0000
  N   N2        1.0  0.5587644921417976  0.5414229770786605  0.02427656271678559  1.0000
  N   N3        1.0  0.4470014088822296  0.45778062382419193  0.04309620621982901  1.0000
  N   N4        1.0  0.5529637828881561  0.542291929748373  0.9568963728444188  1.0000
  N   N5        1.0  0.2882624437697459  0.493760001336014  0.5110374651302507  1.0000
  N   N6        1.0  0.711737629734557  0.5062305726153512  0.48896035789785236  1.0000
  O   O1        1.0  0.583686030799896  0.3814954134742123  0.5061500356027581  1.0000
  O   O2        1.0  0.41630299059492165  0.6184927251129653  0.4938557605417202  1.0000
  O   O3        1.0  0.443577031599439  0.38281874810401467  0.5188585488424451  1.0000
  O   O4        1.0  0.55641159640453  0.6171669704508461  0.4811354906554257  1.0000
  O   O5        1.0  0.5683964022177648  0.503800094528039  0.6012355750403345  1.0000
  O   O6        1.0  0.43161132140956937  0.4961978331954882  0.3987625695116179  1.0000
  O   O7        1.0  0.4282706009682613  0.5044381525831768  0.6098273610073051  1.0000
  O   O8        1.0  0.5717404794022231  0.4955425857457812  0.3901670251041481  1.0000
