data_image0
_chemical_formula_structural       Ag4H32C16S4N4O8
_chemical_formula_sum              "Ag4 H32 C16 S4 N4 O8"
_cell_length_a       4.9910454790746455
_cell_length_b       5.686081666323133
_cell_length_c       23.333763449388183
_cell_angle_alpha    89.99065984507668
_cell_angle_beta     89.99755769674594
_cell_angle_gamma    90.00301053032793

_space_group_name_H-M_alt    "P 1"
_space_group_IT_number       1

loop_
  _space_group_symop_operation_xyz
  'x, y, z'

loop_
  _atom_site_type_symbol
  _atom_site_label
  _atom_site_symmetry_multiplicity
  _atom_site_fract_x
  _atom_site_fract_y
  _atom_site_fract_z
  _atom_site_occupancy
  Ag  Ag1       1.0  0.4213946846574784  0.6493620794225023  0.8332678720772079  1.0000
  Ag  Ag2       1.0  0.0786087539436977  0.3506013197970362  0.3332702064637303  1.0000
  Ag  Ag3       1.0  0.5786582934163107  0.14936143293163442  0.6667334125858133  1.0000
  Ag  Ag4       1.0  0.9213832959782806  0.8506670877539122  0.1667452346714029  1.0000
  H   H1        1.0  0.020824307798534402  0.3734292459877154  0.8544810274733977  1.0000
  H   H2        1.0  0.47918108594886627  0.6265260896520671  0.35448612666305485  1.0000
  H   H3        1.0  0.9792460093206331  0.8734306475126842  0.6455050744808588  1.0000
  H   H4        1.0  0.5208316958732196  0.12658836365515921  0.1455222118849164  1.0000
  H   H5        1.0  0.8373012423963075  0.0990620697093263  0.9307057949777332  1.0000
  H   H6        1.0  0.6626260047960316  0.9008751606830501  0.4306782711183459  1.0000
  H   H7        1.0  0.1626932553153537  0.59909832881187  0.5693179122454666  1.0000
  H   H8        1.0  0.3373784459076107  0.4009634042863724  0.0693023191240059  1.0000
  H   H9        1.0  0.5239067839122385  0.0950769779507965  0.8931003400933051  1.0000
  H   H10       1.0  0.9760307551538858  0.9049369822755011  0.3930648257362819  1.0000
  H   H11       1.0  0.4760990723075267  0.5951271521693258  0.6069208066012592  1.0000
  H   H12       1.0  0.023970358727161998  0.4049194122363957  0.10690675373187729  1.0000
  H   H13       1.0  0.8494719700362124  0.7146916772664937  0.9956438963774586  1.0000
  H   H14       1.0  0.6503925239083727  0.28525132278345217  0.4956544909585432  1.0000
  H   H15       1.0  0.15042561386869122  0.2147404891769042  0.504340067440765  1.0000
  H   H16       1.0  0.3494503748686952  0.7852978874403435  0.0043731284022996  1.0000
  H   H17       1.0  0.014405663260866699  0.6507669734849912  0.9295379834319776  1.0000
  H   H18       1.0  0.4855672097838594  0.34929715924885574  0.4295369769632416  1.0000
  H   H19       1.0  0.9855954473494465  0.1506596328757652  0.570461154746603  1.0000
  H   H20       1.0  0.5143605014557622  0.8492839867403532  0.070477182175658  1.0000
  H   H21       1.0  0.012693972446058398  0.437191097530537  0.9867215079895003  1.0000
  H   H22       1.0  0.4872471489377689  0.5628062007016794  0.48670363185676985  1.0000
  H   H23       1.0  0.9872567385183261  0.937162552957034  0.5132918480995343  1.0000
  H   H24       1.0  0.5127329649814102  0.06281976832967473  0.013286881011453  1.0000
  H   H25       1.0  0.5657843348903455  0.23693870931865751  0.78373885753048  1.0000
  H   H26       1.0  0.9342328269524459  0.7630705546881487  0.2837320509775907  1.0000
  H   H27       1.0  0.4342311531236405  0.73691242826618  0.7162699023072605  1.0000
  H   H28       1.0  0.06579070441541998  0.2630843005059732  0.2162707722037425  1.0000
  H   H29       1.0  0.801817381892903  0.42967249067179847  0.7716641455735171  1.0000
  H   H30       1.0  0.6981803249768248  0.5703541256945215  0.2716683504137478  1.0000
  H   H31       1.0  0.19819619162369406  0.9296180748563572  0.7283286599948227  1.0000
  H   H32       1.0  0.3018050509812582  0.07037185768706421  0.2283452842771467  1.0000
  C   C1        1.0  0.9739757949235044  0.020582597941910304  0.8236035313538536  1.0000
  C   C2        1.0  0.5260242156064194  0.9794068300938646  0.3235776231853436  1.0000
  C   C3        1.0  0.026041674133971102  0.5205469990745256  0.6764083903699216  1.0000
  C   C4        1.0  0.4740173720654042  0.47942561573843534  0.1763950386587965  1.0000
  C   C5        1.0  0.8522408626971654  0.2527530890602208  0.8459768539376142  1.0000
  C   C6        1.0  0.647744630466825  0.7472127018462514  0.345962190470658  1.0000
  C   C7        1.0  0.14779930574141534  0.7527525393849859  0.6540258628034721  1.0000
  C   C8        1.0  0.35226624366703874  0.24726656973314218  0.1540286761625893  1.0000
  C   C9        1.0  0.7048257385821516  0.19908501523801192  0.9021265267227392  1.0000
  C   C10       1.0  0.7951504380095288  0.8008785799197683  0.4021090205825644  1.0000
  C   C11       1.0  0.29521149355124976  0.6991375943553065  0.5978776221120299  1.0000
  C   C12       1.0  0.204879404508425  0.3009153689585915  0.0978765568352031  1.0000
  C   C13       1.0  0.8977085833371774  0.5752578711517842  0.9648894898832339  1.0000
  C   C14       1.0  0.6022597681335141  0.4247248669634518  0.4648916019519334  1.0000
  C   C15       1.0  0.102267922339756  0.0752563820839853  0.5350999972842914  1.0000
  C   C16       1.0  0.3977125856484136  0.9247580885646085  0.0351184941708098  1.0000
  S   S1        1.0  0.5845842132107748  0.45312646168296317  0.9407822331867096  1.0000
  S   S2        1.0  0.9154093295496183  0.5468628028982324  0.4407811753858866  1.0000
  S   S3        1.0  0.41543528548945824  0.9531701171139987  0.5592023655260547  1.0000
  S   S4        1.0  0.0846021857895209  0.046902903672858494  0.0592230949796786  1.0000
  N   N1        1.0  0.6781245080073788  0.3652708018352513  0.8032481326135469  1.0000
  N   N2        1.0  0.8219012656283695  0.6347132536718333  0.3032451999765513  1.0000
  N   N3        1.0  0.3219183978015606  0.8652544608627009  0.696750848549108  1.0000
  N   N4        1.0  0.17812690577957113  0.13475692817548432  0.1967605448641478  1.0000
  O   O1        1.0  0.8678763172073262  0.9171339135384854  0.781937834571238  1.0000
  O   O2        1.0  0.6320954515845542  0.08290055103068991  0.2819155691287136  1.0000
  O   O3        1.0  0.1320590231936336  0.41706378820378387  0.7180768620129925  1.0000
  O   O4        1.0  0.36792007027928975  0.5828866460227289  0.2180680319026749  1.0000
  O   O5        1.0  0.1801782946965957  0.9522235468951339  0.8522803535436977  1.0000
  O   O6        1.0  0.31980790433395617  0.0477293734708226  0.3522588821678879  1.0000
  O   O7        1.0  0.8198530675112748  0.4522211291077411  0.6477231044867224  1.0000
  O   O8        1.0  0.6802378218786629  0.5477827164533766  0.1477231004962363  1.0000
