data_image0
_chemical_formula_structural       Zn6H14C86N26O24
_chemical_formula_sum              "Zn6 H14 C86 N26 O24"
_cell_length_a       21.836721279462623
_cell_length_b       21.694771435570125
_cell_length_c       22.06267820097157
_cell_angle_alpha    61.00144152300006
_cell_angle_beta     60.32091716870877
_cell_angle_gamma    89.96704247989908

_space_group_name_H-M_alt    "P 1"
_space_group_IT_number       1

loop_
  _space_group_symop_operation_xyz
  'x, y, z'

loop_
  _atom_site_type_symbol
  _atom_site_label
  _atom_site_symmetry_multiplicity
  _atom_site_fract_x
  _atom_site_fract_y
  _atom_site_fract_z
  _atom_site_occupancy
  Zn  Zn1       1.0  0.060063834345378105  5.091608338859997e-05  1.555378177900113e-05  1.0000
  Zn  Zn2       1.0  0.9628374302199204  0.4585231637632106  0.08287682195920355  1.0000
  Zn  Zn3       1.0  0.045683632268214765  0.5414798483374738  0.9171044458300914  1.0000
  Zn  Zn4       1.0  0.9318862849129342  9.983537505319894e-05  0.9999099186162757  1.0000
  Zn  Zn5       1.0  0.5038246907730084  0.4390795442944793  0.0008399019942402984  1.0000
  Zn  Zn6       1.0  0.5046330414777882  0.5609029064468556  0.9991676558611932  1.0000
  H   H1        1.0  0.6370368712651027  0.7746479682928605  0.5665333912324687  1.0000
  H   H2        1.0  0.21689533142608716  0.1183608947234305  0.571314250111641  1.0000
  H   H3        1.0  0.7877953207979401  0.8816479075552335  0.42859172135550966  1.0000
  H   H4        1.0  0.7966773374649917  0.7479861975903928  0.5788442336903332  1.0000
  H   H5        1.0  0.3755711230052298  0.25249435107421897  0.4210355891331903  1.0000
  H   H6        1.0  0.9238527985826716  0.8329538107344019  0.9383840581136345  1.0000
  H   H7        1.0  0.861949772657063  0.1671469552216323  0.06142544453098272  1.0000
  H   H8        1.0  0.20368913348882228  0.22503348802138123  0.4335368501126667  1.0000
  H   H9        1.0  0.8782321712169361  0.7391619949770741  0.43073048149961585  1.0000
  H   H10       1.0  0.30866456133676917  0.26127851383529327  0.5691797615454135  1.0000
  H   H11       1.0  0.2634326403996566  0.5808884516371791  0.8658995947052546  1.0000
  H   H12       1.0  0.12961695729808295  0.41936112865154473  0.13330862432650295  1.0000
  H   H13       1.0  0.6696236792646745  0.5640403353398964  0.05397738199789618  1.0000
  H   H14       1.0  0.7237913643010923  0.4354842309829222  0.9459278796070694  1.0000
  C   C1        1.0  0.9695775571314793  0.882570099042759  0.004671311637991929  1.0000
  C   C2        1.0  0.196317993860127  0.16609146601651759  0.5523299227097881  1.0000
  C   C3        1.0  0.19126932751261422  0.28359469779046975  0.5581395994572632  1.0000
  C   C4        1.0  0.6876651469428621  0.6691051512151629  0.5428145243716006  1.0000
  C   C5        1.0  0.22992120012463588  0.3306784073373166  0.45736958574421044  1.0000
  C   C6        1.0  0.6235764357500526  0.622656809100519  0.7479411678190502  1.0000
  C   C7        1.0  0.3711407253596802  0.37779407603773757  0.25201990658457885  1.0000
  C   C8        1.0  0.7982275647872114  0.7911966114797477  0.41420786312571084  1.0000
  C   C9        1.0  0.7484085900781068  0.8337568844993867  0.4476703945286078  1.0000
  C   C10       1.0  0.2123779623625735  0.2087591261324917  0.5857975844317311  1.0000
  C   C11       1.0  0.789948163202787  0.7184339272824757  0.5525410747199901  1.0000
  C   C12       1.0  0.3423417030672623  0.28196672155127794  0.44736574590047723  1.0000
  C   C13       1.0  0.7071039722448869  0.7058433762402457  0.5811398710239647  1.0000
  C   C14       1.0  0.28805579341388904  0.29425408727931307  0.41884840090877884  1.0000
  C   C15       1.0  0.8078420403715466  0.6502780731021857  0.5871492111185509  1.0000
  C   C16       1.0  0.3946307513524229  0.3502330709462952  0.4127678170682005  1.0000
  C   C17       1.0  0.8931091292205549  0.8360797301586372  0.42676183911299875  1.0000
  C   C18       1.0  0.3201991278151081  0.1644811365726824  0.573008704462943  1.0000
  C   C19       1.0  0.939486231682174  0.7246964375651925  0.9130122912859524  1.0000
  C   C20       1.0  0.6595169996563893  0.6597887491699763  0.6719044972561794  1.0000
  C   C21       1.0  0.851848496003676  0.27510039732166547  0.08749465141045946  1.0000
  C   C22       1.0  0.049057279400834354  0.6567511040200599  0.07669156483721205  1.0000
  C   C23       1.0  0.125068862045097  0.3430510543021937  0.9242390480023633  1.0000
  C   C24       1.0  0.027343139452952213  0.7770919779347379  0.09087352490683301  1.0000
  C   C25       1.0  0.11793744573361649  0.22297369774790346  0.9095267180283317  1.0000
  C   C26       1.0  0.3311568761319134  0.3403771905407139  0.3280797344689291  1.0000
  C   C27       1.0  0.7848854659826117  0.5698837139080198  0.0661549920230655  1.0000
  C   C28       1.0  0.851573096601022  0.4301472989291496  0.9332256111790048  1.0000
  C   C29       1.0  0.39501341626759473  0.5938128310795748  0.8478016943067745  1.0000
  C   C30       1.0  0.2429009019352719  0.4061316368318869  0.15169448457442064  1.0000
  C   C31       1.0  0.715083460334263  0.7310227494567697  0.3959553468991289  1.0000
  C   C32       1.0  0.11045769817987136  0.2682736432963678  0.6042964462058295  1.0000
  C   C33       1.0  0.7996749167180397  0.6741676489399991  0.4197140622981054  1.0000
  C   C34       1.0  0.21850599930104384  0.32567096072339297  0.580531365754901  1.0000
  C   C35       1.0  0.6840733236457764  0.5907581080448164  0.5825963574839081  1.0000
  C   C36       1.0  0.26571382175199426  0.40907461854708754  0.41771980180613627  1.0000
  C   C37       1.0  0.6135746241002946  0.6712108157255725  0.5606862817866162  1.0000
  C   C38       1.0  0.17375658049973444  0.3282653738675874  0.43952350401046675  1.0000
  C   C39       1.0  0.7079085309945936  0.8641779831872822  0.40956012345621695  1.0000
  C   C40       1.0  0.11776793448380113  0.13539677956602955  0.5904435781668129  1.0000
  C   C41       1.0  0.7076796641599757  0.8200216378455207  0.5822071322492878  1.0000
  C   C42       1.0  0.8487758278694597  0.8378311353819539  0.3235746561873611  1.0000
  C   C43       1.0  0.29040101630202725  0.18017616561483854  0.41765269320962534  1.0000
  C   C44       1.0  0.1724225818559188  0.16217242154033323  0.6764132798956269  1.0000
  C   C45       1.0  0.9741627658275077  0.11757686922476296  0.9952788769849835  1.0000
  C   C46       1.0  0.8931859374443717  0.8772992150423701  0.2480660018565716  1.0000
  C   C47       1.0  0.1414405619437246  0.12277014785247077  0.751904387475186  1.0000
  C   C48       1.0  0.9493424176874113  0.7966579211491194  0.9666824858179345  1.0000
  C   C49       1.0  0.9156316783835835  0.20332075293536175  0.033477629016395935  1.0000
  C   C50       1.0  0.9606805555022075  0.7361988556077461  0.9594206733839815  1.0000
  C   C51       1.0  0.919475799124413  0.2635373654894977  0.041165958133199045  1.0000
  C   C52       1.0  0.992172685165229  0.688389978925599  0.9975820459566127  1.0000
  C   C53       1.0  0.989015287384973  0.3111773377567886  0.0034399432288553314  1.0000
  C   C54       1.0  0.013732729046537814  0.7026728227286723  0.041133090379332944  1.0000
  C   C55       1.0  0.05426551291445454  0.29710882106667924  0.9596830477953947  1.0000
  C   C56       1.0  0.0048283790514033  0.7652766060132234  0.045629298319632146  1.0000
  C   C57       1.0  0.0500832164328383  0.23469678181718473  0.9548272287668741  1.0000
  C   C58       1.0  0.9395976330701784  0.923819072472028  0.157221131551836  1.0000
  C   C59       1.0  0.09703595966222865  0.07627294213866516  0.8427591275573507  1.0000
  C   C60       1.0  0.9724620794837618  0.8122955668309826  0.007647489652086549  1.0000
  C   C61       1.0  0.6953246194460897  0.7839139383969138  0.5463871640329433  1.0000
  C   C62       1.0  0.9798297647925479  0.18776010969379087  0.9925127751768061  1.0000
  C   C63       1.0  0.31829892449406527  0.4998864172352668  0.9997010251005565  1.0000
  C   C64       1.0  0.6217210158415437  0.4997014556527474  0.9999981565344814  1.0000
  C   C65       1.0  0.5816336076541401  0.5781392975862117  0.8386698496372776  1.0000
  C   C66       1.0  0.42004259343497796  0.42251187495246967  0.1612830320740884  1.0000
  C   C67       1.0  0.24187700139263754  0.21602376633671838  0.45361449703177953  1.0000
  C   C68       1.0  0.3869174643465525  0.499744907501011  0.9997864143586885  1.0000
  C   C69       1.0  0.12174556554704422  0.5001627829882123  0.9994611272136145  1.0000
  C   C70       1.0  0.0019215505829134937  0.6215941715885618  0.9937004413714308  1.0000
  C   C71       1.0  0.9947380643037392  0.3777346439519249  0.0077361738290096325  1.0000
  C   C72       1.0  0.8874456746086707  0.5004201577443934  0.9991805958685024  1.0000
  C   C73       1.0  0.7065391585422559  0.5357432408870365  0.03071415754993016  1.0000
  C   C74       1.0  0.7375270440504444  0.4639971703678539  0.9689230044832089  1.0000
  C   C75       1.0  0.7697731313836157  0.5344479352708688  0.0325607710587477  1.0000
  C   C76       1.0  0.8027808489139686  0.465628405950639  0.9667015838492364  1.0000
  C   C77       1.0  0.8437524375672113  0.769443925054581  0.4542644578877671  1.0000
  C   C78       1.0  0.29794744341086926  0.23091340381065345  0.545627890931691  1.0000
  C   C79       1.0  0.8188079144350905  0.5002015007286217  0.9994455438199028  1.0000
  C   C80       1.0  0.6902567291491122  0.49982779615752543  0.9998563314710015  1.0000
  C   C81       1.0  0.32369351287645254  0.5465692990080058  0.924254876538534  1.0000
  C   C82       1.0  0.2481979274365712  0.45336629158378383  0.0751054439607017  1.0000
  C   C83       1.0  0.2595392376105249  0.5458664028081514  0.9242486571534773  1.0000
  C   C84       1.0  0.1841036616308358  0.45425958590323745  0.07495894535327356  1.0000
  C   C85       1.0  0.1901155879079465  0.5000906275585277  0.9995608377234793  1.0000
  C   C86       1.0  0.7497719328631475  0.7161291101712307  0.44200477832331614  1.0000
  N   N1        1.0  0.8253599084183706  0.5978406236863589  0.6134464194794238  1.0000
  N   N2        1.0  0.7952658485108872  0.28245541193942353  0.125779902881007  1.0000
  N   N3        1.0  0.9213740498816348  0.7175477771392378  0.8745069194341045  1.0000
  N   N4        1.0  0.08088036797249024  0.6212692449034235  0.10236616886250262  1.0000
  N   N5        1.0  0.18258531488199714  0.3785197003806075  0.8984691276110015  1.0000
  N   N6        1.0  0.044733778720207305  0.781782382306673  0.13111815704093752  1.0000
  N   N7        1.0  0.1755938865622325  0.21829535824359425  0.8692533000193735  1.0000
  N   N8        1.0  0.4382828707460717  0.4027365250231796  0.3865270192187112  1.0000
  N   N9        1.0  0.7971394129113064  0.5999740143529875  0.09260998997557846  1.0000
  N   N10       1.0  0.8902383218292792  0.3998599860248575  0.9070497218054642  1.0000
  N   N11       1.0  0.45369473864868554  0.6320814201668128  0.7860276780476172  1.0000
  N   N12       1.0  0.2397198674707893  0.3679723078082801  0.21355182989410804  1.0000
  N   N13       1.0  0.6891093539624717  0.7408896722819943  0.35820017292887496  1.0000
  N   N14       1.0  0.046670003746264205  0.2581072894833197  0.6421600367622704  1.0000
  N   N15       1.0  0.8412315741901178  0.643194666593665  0.39990348306783835  1.0000
  N   N16       1.0  0.24001539021485008  0.35671766403891064  0.6004072776851789  1.0000
  N   N17       1.0  0.6787113369242018  0.5279219560991846  0.6142950400591901  1.0000
  N   N18       1.0  0.2918982726498454  0.47192035356640355  0.3860757249637175  1.0000
  N   N19       1.0  0.5547296282926835  0.6736754694667294  0.5758687137489604  1.0000
  N   N20       1.0  0.13012486318602598  0.32559353120960566  0.4243717781599018  1.0000
  N   N21       1.0  0.6748848585485304  0.8905642977903978  0.3806149531744796  1.0000
  N   N22       1.0  0.0558931559118248  0.1087673570049859  0.6193281908143718  1.0000
  N   N23       1.0  0.7202428740830481  0.8498057703550471  0.6086564920179716  1.0000
  N   N24       1.0  0.9305339089036763  0.8899181781771544  0.40619077455466646  1.0000
  N   N25       1.0  0.32965726148456287  0.15056164567449312  0.3911019081993887  1.0000
  N   N26       1.0  0.33733037281583456  0.11078850410944338  0.593571094232104  1.0000
  O   O1        1.0  0.02120532096015647  0.9113283661484246  0.0030507305404297693  1.0000
  O   O2        1.0  0.03927427464039807  0.43878115974536047  0.9378701635165075  1.0000
  O   O3        1.0  0.9765503233535782  0.5606048035109551  0.06365185032451147  1.0000
  O   O4        1.0  0.9486261490514847  0.5290182732360549  0.927939300867941  1.0000
  O   O5        1.0  0.8775830929861994  0.47190402363337797  0.07031485587862839  1.0000
  O   O6        1.0  0.9179210233459757  0.9093093394849204  0.0018729303195359384  1.0000
  O   O7        1.0  0.9198763272754957  0.0909683099639693  0.9977875262554367  1.0000
  O   O8        1.0  0.024105906244663605  0.08873189922086769  0.9970906726783328  1.0000
  O   O9        1.0  0.010083800698666308  0.9428344637990094  0.1214337969389091  1.0000
  O   O10       1.0  0.1316747336345328  0.0572381209863906  0.878620608329456  1.0000
  O   O11       1.0  0.9049168034748188  0.9407744704516356  0.12228700061433538  1.0000
  O   O12       1.0  0.02742985645415521  0.0593462382740597  0.87763388602297  1.0000
  O   O13       1.0  0.6014791730603828  0.45398910398454007  0.9877406032522703  1.0000
  O   O14       1.0  0.5890788512626058  0.5453230084061147  0.012383950688189455  1.0000
  O   O15       1.0  0.5562914363988508  0.5085194386326675  0.8746516244192226  1.0000
  O   O16       1.0  0.43065548375228957  0.49214546671731074  0.1253817506748122  1.0000
  O   O17       1.0  0.5751635404721468  0.6132422715355829  0.8729654702970395  1.0000
  O   O18       1.0  0.4479980911283761  0.3874690027338089  0.12693469792362339  1.0000
  O   O19       1.0  0.40620424032294267  0.4417455155572013  0.012222615562464558  1.0000
  O   O20       1.0  0.41864708622971836  0.5576618013238315  0.9874230717770094  1.0000
  O   O21       1.0  0.13062757121114987  0.5430669772188137  0.9287051955857638  1.0000
  O   O22       1.0  0.059861718932751266  0.45729357546753846  0.07016813858835755  1.0000
  O   O23       1.0  0.034172185353483014  0.6325191878851654  0.9214926769830571  1.0000
  O   O24       1.0  0.9548426197675469  0.36670422308875317  0.08001261215826372  1.0000
