data_image0
_chemical_formula_structural       Al2H6C48O12F24
_chemical_formula_sum              "Al2 H6 C48 O12 F24"
_cell_length_a       3.956984562005934
_cell_length_b       28.793266454700625
_cell_length_c       28.79328937095936
_cell_angle_alpha    119.99980461803634
_cell_angle_beta     89.9998391105749
_cell_angle_gamma    90.00000232308419

_space_group_name_H-M_alt    "P 1"
_space_group_IT_number       1

loop_
  _space_group_symop_operation_xyz
  'x, y, z'

loop_
  _atom_site_type_symbol
  _atom_site_label
  _atom_site_symmetry_multiplicity
  _atom_site_fract_x
  _atom_site_fract_y
  _atom_site_fract_z
  _atom_site_occupancy
  Al  Al1       1.0  0.9996479420265204  0.5000010987530672  0.49999908674702453  1.0000
  Al  Al2       1.0  0.9996473331357549  0.16666760109476536  0.8333334432368105  1.0000
  H   H1        1.0  0.5000204463869196  0.38360191780580527  0.7228519004027875  1.0000
  H   H2        1.0  0.5000164447003996  0.28305520282256685  0.6104599690623473  1.0000
  H   H3        1.0  0.5000113469766844  0.8392535341069448  0.616398566200566  1.0000
  H   H4        1.0  0.5000078758169976  0.8274069355946736  0.7169446830823747  1.0000
  H   H5        1.0  0.5000206655348975  0.2771477882858022  0.16074815430376088  1.0000
  H   H6        1.0  0.5000129753158974  0.38954070075131136  0.17259436979792755  1.0000
  C   C1        1.0  0.49988431436915454  0.4631356675089933  0.41804015150955115  1.0000
  C   C2        1.0  0.4998781445750353  0.4549062303919413  0.5368623351488964  1.0000
  C   C3        1.0  0.49987807014201746  0.5819596595699749  0.5450936495174831  1.0000
  C   C4        1.0  0.4998731754459414  0.21175458873813816  0.7964576442040537  1.0000
  C   C5        1.0  0.49987324968967783  0.08470529450232789  0.788246506038618  1.0000
  C   C6        1.0  0.4998720598551927  0.2035424236812844  0.9152958967989733  1.0000
  C   C7        1.0  0.5003232696329293  0.24435144087903646  0.7691856777471741  1.0000
  C   C8        1.0  0.4935939221244113  0.2197060285337924  0.7132361554717261  1.0000
  C   C9        1.0  0.497465798921219  0.2497385522945521  0.6875477311226206  1.0000
  C   C10       1.0  0.49988404036960077  0.30628780002792416  0.7161125639286894  1.0000
  C   C11       1.0  0.5025269380796473  0.33020599794653543  0.7725656386597706  1.0000
  C   C12       1.0  0.5068127863072575  0.30039467978052414  0.7984704549445709  1.0000
  C   C13       1.0  0.49972757164022846  0.34113688793762265  0.6931565406335451  1.0000
  C   C14       1.0  0.4997154328821978  0.325518990346211  0.6401544876039438  1.0000
  C   C15       1.0  0.5025263991336858  0.3364540472237181  0.5607495556622908  1.0000
  C   C16       1.0  0.4998900243114904  0.3603677702368344  0.6172001614005894  1.0000
  C   C17       1.0  0.49746114042231687  0.4169197433002553  0.6457685222892594  1.0000
  C   C18       1.0  0.49358974716393783  0.44695530074930184  0.620081929635724  1.0000
  C   C19       1.0  0.5003353069398742  0.422305611534874  0.5641297326991364  1.0000
  C   C20       1.0  0.5068102078052237  0.3662639750472322  0.5348433478143306  1.0000
  C   C21       1.0  0.5003259189832576  0.024837116786059852  0.7556489083927929  1.0000
  C   C22       1.0  0.493595837104408  0.9935329074049193  0.7802945957684531  1.0000
  C   C23       1.0  0.4974652255904958  0.9378122953038073  0.7502620904412398  1.0000
  C   C24       1.0  0.49988426403838554  0.9098272580031549  0.6937123903906157  1.0000
  C   C25       1.0  0.5025228619427508  0.9423638243646478  0.6697945207321325  1.0000
  C   C26       1.0  0.5068162569371639  0.9980805890976612  0.6996058184144262  1.0000
  C   C27       1.0  0.49972032334557775  0.8520230614299533  0.6588632720659788  1.0000
  C   C28       1.0  0.4997075400359848  0.8146391448616158  0.6744817138902806  1.0000
  C   C29       1.0  0.5025304972704489  0.7242985030450271  0.6635461741930159  1.0000
  C   C30       1.0  0.4998923497612608  0.7568348014559517  0.6396320476519718  1.0000
  C   C31       1.0  0.4974642629169921  0.7288524645609157  0.5830810383805841  1.0000
  C   C32       1.0  0.49359543576694886  0.6731307329218126  0.5530434043031036  1.0000
  C   C33       1.0  0.5003377116915714  0.6418271281583043  0.5776933451267681  1.0000
  C   C34       1.0  0.5068244494102672  0.6685806952695258  0.6337338322448646  1.0000
  C   C35       1.0  0.5003314447387835  0.23081365601984763  0.9751641643760464  1.0000
  C   C36       1.0  0.4936030844700241  0.28676390577436445  0.006468275989846081  1.0000
  C   C37       1.0  0.4974792514244016  0.3124516452762975  0.06218885517213123  1.0000
  C   C38       1.0  0.49989749642294606  0.2838866855498878  0.09017377415244712  1.0000
  C   C39       1.0  0.5025387004098221  0.22743361740695178  0.05763825892901763  1.0000
  C   C40       1.0  0.5068202604714358  0.20152807608278067  0.0019208452770698478  1.0000
  C   C41       1.0  0.4997301607085731  0.3068431441602399  0.1479782606299906  1.0000
  C   C42       1.0  0.49971212076555105  0.35984530562802053  0.18536221914926196  1.0000
  C   C43       1.0  0.5025290768501378  0.439249392781015  0.27570279592471547  1.0000
  C   C44       1.0  0.4998910082954069  0.3827984772824776  0.24316582481277746  1.0000
  C   C45       1.0  0.4974596008380274  0.35422999144412876  0.27114802043738717  1.0000
  C   C46       1.0  0.4935950249118477  0.37991497847517763  0.32687066063245146  1.0000
  C   C47       1.0  0.5003372403396897  0.435866973625572  0.3581728181299227  1.0000
  C   C48       1.0  0.5068171736998437  0.46515345070599057  0.33141752186212164  1.0000
  O   O1        1.0  0.7359213654214686  0.5573890485301618  0.5537757542876705  1.0000
  O   O2        1.0  0.7359198802789138  0.4963890876158743  0.44261038459043084  1.0000
  O   O3        1.0  0.7359243609805048  0.44622332769583284  0.5036098027421545  1.0000
  O   O4        1.0  0.2633321031243553  0.5603044482881925  0.5111083665378047  1.0000
  O   O5        1.0  0.263329216905312  0.4888911509222638  0.5491923681888197  1.0000
  O   O6        1.0  0.26333024378330083  0.45080694721170284  0.43969609051231373  1.0000
  O   O7        1.0  0.7359257757400998  0.1702880853606031  0.8907270844089509  1.0000
  O   O8        1.0  0.7359263495421048  0.22044066219323358  0.8297116759550534  1.0000
  O   O9        1.0  0.7359268177832163  0.10927311843183671  0.7795607448100768  1.0000
  O   O10       1.0  0.2633259779059571  0.21586813454087653  0.8936362137263103  1.0000
  O   O11       1.0  0.26333422720050953  0.10636505834204246  0.8222315966220747  1.0000
  O   O12       1.0  0.2633295320277043  0.17776955516904996  0.7841327789642278  1.0000
  F   F1        1.0  0.5061804855058938  0.3263520938687138  0.8525036751103984  1.0000
  F   F2        1.0  0.49998683891315915  0.38430902268816414  0.8032050794615416  1.0000
  F   F3        1.0  0.4944736617608925  0.16578037073220026  0.6830556059204653  1.0000
  F   F4        1.0  0.5000465555788267  0.2224372508715576  0.6332489979717054  1.0000
  F   F5        1.0  0.5000358246554555  0.4442214450735947  0.7000668529923645  1.0000
  F   F6        1.0  0.49450430317255484  0.5008764433830775  0.6502579637658314  1.0000
  F   F7        1.0  0.4999666553176141  0.28234888561263466  0.5301087807822213  1.0000
  F   F8        1.0  0.5061865016673152  0.3403068009681575  0.48081197196282227  1.0000
  F   F9        1.0  0.5061872119043896  0.026154868125651487  0.6736487385195815  1.0000
  F   F10       1.0  0.4999810292611572  0.9188996463681107  0.6156915429699624  1.0000
  F   F11       1.0  0.4944798211716659  0.017277656085347863  0.8342198066745254  1.0000
  F   F12       1.0  0.5000426891914883  0.9108144536795493  0.7775627353885569  1.0000
  F   F13       1.0  0.5000346586690086  0.7558506528068634  0.5557807393210724  1.0000
  F   F14       1.0  0.49449814347401855  0.6493873780655051  0.4991244408113645  1.0000
  F   F15       1.0  0.49997754130085076  0.7477609308008367  0.7176502096625796  1.0000
  F   F16       1.0  0.5061949380912837  0.6405070372095168  0.6596923768165582  1.0000
  F   F17       1.0  0.5061919785009082  0.1474961982166151  0.9738460778113519  1.0000
  F   F18       1.0  0.4999936123550698  0.19679382281995567  0.08110205222980944  1.0000
  F   F19       1.0  0.49447085246074357  0.31694418918871037  0.9827233427445776  1.0000
  F   F20       1.0  0.5000491381456981  0.3667504399993717  0.08918659395028072  1.0000
  F   F21       1.0  0.5000299919390159  0.29993154334375294  0.24415062754912506  1.0000
  F   F22       1.0  0.49450458506971984  0.34973918109457  0.35061437690650626  1.0000
  F   F23       1.0  0.49996926755245147  0.46989157983239943  0.2522393906567403  1.0000
  F   F24       1.0  0.5061851171555319  0.5191866604811609  0.3594935331086192  1.0000
