data_image0
_chemical_formula_structural       Cd2H16C16O16
_chemical_formula_sum              "Cd2 H16 C16 O16"
_cell_length_a       5.437049839348602
_cell_length_b       8.381079799906233
_cell_length_c       12.144987311164039
_cell_angle_alpha    109.24029883889953
_cell_angle_beta     89.98066274462828
_cell_angle_gamma    108.9537281581071

_space_group_name_H-M_alt    "P 1"
_space_group_IT_number       1

loop_
  _space_group_symop_operation_xyz
  'x, y, z'

loop_
  _atom_site_type_symbol
  _atom_site_label
  _atom_site_symmetry_multiplicity
  _atom_site_fract_x
  _atom_site_fract_y
  _atom_site_fract_z
  _atom_site_occupancy
  Cd  Cd1       1.0  0.529538929824504  0.9999472864152777  0.2498996967627889  1.0000
  Cd  Cd2       1.0  0.4704688776468586  6.226794499749922e-05  0.7500975238837526  1.0000
  H   H1        1.0  0.9703516053098654  0.5383224008444358  0.6759502695076947  1.0000
  H   H2        1.0  0.4315076010899689  0.46150089564339675  0.82374439960779  1.0000
  H   H3        1.0  0.029630346998146654  0.4616722429690227  0.3240641202027135  1.0000
  H   H4        1.0  0.5684709200765995  0.538497909006331  0.1762462427451297  1.0000
  H   H5        1.0  0.40920629863929764  0.22960701473129316  0.1514722268719169  1.0000
  H   H6        1.0  0.17959457973432066  0.7707665617117596  0.34881991493680437  1.0000
  H   H7        1.0  0.5907924584935316  0.7704065132977788  0.8485382566165357  1.0000
  H   H8        1.0  0.8204147021516449  0.22923491023498593  0.6511770993102814  1.0000
  H   H9        1.0  0.1374358563839522  0.056707108876963695  0.1255062250736003  1.0000
  H   H10       1.0  0.08073116442813712  0.9436278407569675  0.37442874321240543  1.0000
  H   H11       1.0  0.8625792816446137  0.943302396955417  0.8745008643160901  1.0000
  H   H12       1.0  0.9192784644529653  0.0563816807710182  0.6255750568196206  1.0000
  H   H13       1.0  0.33311859684751255  0.21743135593399635  0.5455781277573664  1.0000
  H   H14       1.0  0.11498144074306525  0.7822133024735363  0.954097007842492  1.0000
  H   H15       1.0  0.6668642088999164  0.7825686709232825  0.4544374960052338  1.0000
  H   H16       1.0  0.88502125789433  0.2177786903930539  0.04590936134099619  1.0000
  C   C1        1.0  0.9913070487539388  0.23823241804827688  0.3938315987410519  1.0000
  C   C2        1.0  0.7528765387482534  0.761506060857826  0.10604597178526377  1.0000
  C   C3        1.0  0.008685292990122617  0.7617462152732981  0.6061519473565298  1.0000
  C   C4        1.0  0.2471303922516128  0.23848335298908543  0.8939375741586701  1.0000
  C   C5        1.0  0.25118535530273783  0.37355323172959487  0.449546751592699  1.0000
  C   C6        1.0  0.8774927378432978  0.6262867901729479  0.050388125421648076  1.0000
  C   C7        1.0  0.7488283840886895  0.6264387711464038  0.5504579719067308  1.0000
  C   C8        1.0  0.12249534176848438  0.3736796522785681  0.9496082705849035  1.0000
  C   C9        1.0  0.6537865822696602  0.465345044577134  0.5762946365216095  1.0000
  C   C10       1.0  0.18823344286595045  0.5345947285243112  0.923557630429258  1.0000
  C   C11       1.0  0.34621400974837974  0.5346684754600305  0.4237174917126936  1.0000
  C   C12       1.0  0.8117294873858185  0.4653986493752455  0.07644000334311579  1.0000
  C   C13       1.0  0.40635921986807927  0.341198295553326  0.5258317165273851  1.0000
  C   C14       1.0  0.06478530590710119  0.6585949480097996  0.9739474356657709  1.0000
  C   C15       1.0  0.5936556744667172  0.6587923410775642  0.4741768105581698  1.0000
  C   C16       1.0  0.9352148156012349  0.3414213048057916  0.026057085262237868  1.0000
  O   O1        1.0  0.9032302485250697  0.08905020688356301  0.4107425096961208  1.0000
  O   O2        1.0  0.8138090849635163  0.9106387235181826  0.08903525797797583  1.0000
  O   O3        1.0  0.09678065881396952  0.9109471660396408  0.5892659154433844  1.0000
  O   O4        1.0  0.1862138474047583  0.0893789986508153  0.9109457190629442  1.0000
  O   O5        1.0  0.8546883940212311  0.2762029922255991  0.3250478485352275  1.0000
  O   O6        1.0  0.5785291773658371  0.7236651134438573  0.1750184264711052  1.0000
  O   O7        1.0  0.14533342549248113  0.7237904487176576  0.6749390892289283  1.0000
  O   O8        1.0  0.4214509849751807  0.27632962116277326  0.8249778696946494  1.0000
  O   O9        1.0  0.8003677091243161  0.42979808117973295  0.649967271699083  1.0000
  O   O10       1.0  0.3700664083439448  0.5700326454584894  0.8496291228639805  1.0000
  O   O11       1.0  0.1996250503840642  0.5702181622028774  0.35003889464493204  1.0000
  O   O12       1.0  0.6299506364389772  0.42997698486399116  0.1503532931934757  1.0000
  O   O13       1.0  0.3037363670410401  0.1309969093656775  0.17789793090685183  1.0000
  O   O14       1.0  0.17301029566532117  0.8692573761338876  0.3222711882337351  1.0000
  O   O15       1.0  0.6962749097522475  0.8690085545394052  0.8221090556181921  1.0000
  O   O16       1.0  0.8269909577543046  0.13074275296704488  0.6777246956299905  1.0000
