data_image0
_chemical_formula_structural       Zr6H20C36O32
_chemical_formula_sum              "Zr6 H20 C36 O32"
_cell_length_a       12.921864173425043
_cell_length_b       15.147533205089648
_cell_length_c       15.112068664144104
_cell_angle_alpha    89.95625015057693
_cell_angle_beta     89.9475776942404
_cell_angle_gamma    90.0879037894958

_space_group_name_H-M_alt    "P 1"
_space_group_IT_number       1

loop_
  _space_group_symop_operation_xyz
  'x, y, z'

loop_
  _atom_site_type_symbol
  _atom_site_label
  _atom_site_symmetry_multiplicity
  _atom_site_fract_x
  _atom_site_fract_y
  _atom_site_fract_z
  _atom_site_occupancy
  Zr  Zr1       1.0  0.006968638307533601  0.16461920092168472  0.9881960898058539  1.0000
  Zr  Zr2       1.0  0.007551226428702802  0.9923344834085198  0.8308899114968044  1.0000
  Zr  Zr3       1.0  0.0097411629823156  0.011326403425194101  0.1663554648801124  1.0000
  Zr  Zr4       1.0  0.0035864198686184  0.8376347466051755  0.006891082967229101  1.0000
  Zr  Zr5       1.0  0.81182717928656  0.002798137453119401  0.998681564969985  1.0000
  Zr  Zr6       1.0  0.20178907771928323  0.0014482515491281  0.9969902272259291  1.0000
  H   H1        1.0  0.15626053242226587  0.1325450683816172  0.8596595503934595  1.0000
  H   H2        1.0  0.8551520843193288  0.8654459865360027  0.8699665966278332  1.0000
  H   H3        1.0  0.1565691204121364  0.8710589633878598  0.133254731362328  1.0000
  H   H4        1.0  0.8688083872146707  0.14365152830056624  0.13440235467754755  1.0000
  H   H5        1.0  0.9524772790007248  0.8660496788403336  0.7106331062988858  1.0000
  H   H6        1.0  0.006715760087431  0.7989939260135799  0.8232182372644488  1.0000
  H   H7        1.0  0.9509258399689388  0.7224537038117236  0.1302185237009965  1.0000
  H   H8        1.0  0.0035992933204056  0.8295730793897889  0.20231926731447203  1.0000
  H   H9        1.0  0.054241357171129316  0.12741377554318942  0.2882892040427265  1.0000
  H   H10       1.0  0.9525043339974745  0.3259967123671856  0.0719691489654934  1.0000
  H   H11       1.0  0.9531548928868078  0.2811683949734843  0.8651682203605874  1.0000
  H   H12       1.0  0.0022070686763128997  0.1748470289931632  0.7950759828135219  1.0000
  H   H13       1.0  0.9373864045980371  0.8850841451378599  0.275099081953698  1.0000
  H   H14       1.0  0.0744782443442347  0.3088336505303885  0.0773993122744372  1.0000
  H   H15       1.0  0.9334923935355022  0.1208974521765853  0.7216680831038431  1.0000
  H   H16       1.0  0.0752457042109782  0.727664538644639  0.8784311662732309  1.0000
  H   H17       1.0  0.6985996295253686  0.5045433331373488  0.9982293478193968  1.0000
  H   H18       1.0  0.31456424565549673  0.5009596576201718  0.9980735935647331  1.0000
  H   H19       1.0  0.6983289357696947  0.0010292996020808997  0.49732781329959863  1.0000
  H   H20       1.0  0.31385230353929217  0.0026771592029604004  0.4972735415795101  1.0000
  C   C1        1.0  0.7574757093886859  0.21232485090450837  0.986922904676213  1.0000
  C   C2        1.0  0.2553730351115178  0.9924456032639455  0.7887655920189262  1.0000
  C   C3        1.0  0.7557825457406083  0.002873434876292401  0.7890885246125237  1.0000
  C   C4        1.0  0.2596499884609003  0.20922944356873072  0.0014671298267785004  1.0000
  C   C5        1.0  0.2600778306984211  0.0123835456255321  0.20356997103716878  1.0000
  C   C6        1.0  0.7553874590927876  0.7944851335961476  0.010084147541896  1.0000
  C   C7        1.0  0.25494480484923804  0.7929724473817572  0.9936784299656836  1.0000
  C   C8        1.0  0.7534473622567078  0.9972541900914892  0.20369479315918676  1.0000
  C   C9        1.0  0.5626546679207963  0.42216254889714844  0.9970075624999098  1.0000
  C   C10       1.0  0.4522561169703181  0.421144710076952  0.9984388551530614  1.0000
  C   C11       1.0  0.3988018664917875  0.5016707183532603  0.9982092610483448  1.0000
  C   C12       1.0  0.45045931606480843  0.5832105687826185  0.9982102195936164  1.0000
  C   C13       1.0  0.560871022788973  0.5841515607534901  0.9998514198671486  1.0000
  C   C14       1.0  0.6143476072041025  0.5036217272270349  0.9983473309638671  1.0000
  C   C15       1.0  0.5611654645124701  0.0012469860099030999  0.5783997759435096  1.0000
  C   C16       1.0  0.4507144540433927  0.0004972332469109004  0.5783854907415036  1.0000
  C   C17       1.0  0.3981159474307604  0.0023702313388725004  0.497225741916111  1.0000
  C   C18       1.0  0.4510759421398944  0.0037020572353583005  0.41618442249330206  1.0000
  C   C19       1.0  0.5614511853696555  0.0018089397637482006  0.4161584834139731  1.0000
  C   C20       1.0  0.6140625439122189  0.0012959188618566  0.4972810264805361  1.0000
  C   C21       1.0  0.3934144686464763  0.006965967465014001  0.3369639013324601  1.0000
  C   C22       1.0  0.3373026094612968  0.010649032508993603  0.2723765780760772  1.0000
  C   C23       1.0  0.675787427904524  0.9977896819905253  0.2724072493338597  1.0000
  C   C24       1.0  0.6194004920752862  0.00023584300728880046  0.3369738209570841  1.0000
  C   C25       1.0  0.3918313586282522  0.9975713635342348  0.6571421977287671  1.0000
  C   C26       1.0  0.3327996800120872  0.9940412196478121  0.7199194379874783  1.0000
  C   C27       1.0  0.6783531841505095  0.0034086390070200002  0.7204331466524536  1.0000
  C   C28       1.0  0.6198242575204631  0.002094896581788  0.6572671865902606  1.0000
  C   C29       1.0  0.39088179707036375  0.6613172615649674  0.9964325507173514  1.0000
  C   C30       1.0  0.3319192434759799  0.7239381446340616  0.9939660353112885  1.0000
  C   C31       1.0  0.6191129466515477  0.6630375986568069  0.0034180757027258003  1.0000
  C   C32       1.0  0.6778418322916125  0.7258525855818975  0.0078231959771315  1.0000
  C   C33       1.0  0.33675332034032124  0.27827105120460516  0.002149436792763  1.0000
  C   C34       1.0  0.3944005324198017  0.341947454706201  3.607488160599861e-06  1.0000
  C   C35       1.0  0.6803289672635487  0.28102309195077885  0.9897408929459532  1.0000
  C   C36       1.0  0.6219725152448349  0.34398297772929715  0.9938967703915582  1.0000
  O   O1        1.0  0.8513012583323843  0.24021427763506156  0.983494548247478  1.0000
  O   O2        1.0  0.7277012012403644  0.13258015375595283  0.9889350035240342  1.0000
  O   O3        1.0  0.1619782597495529  0.991128326468001  0.7617657871706527  1.0000
  O   O4        1.0  0.28630429814379005  0.9936576604299888  0.8689660059112683  1.0000
  O   O5        1.0  0.8496569349118845  0.0038348921079745003  0.7611649127790585  1.0000
  O   O6        1.0  0.7259414982510605  0.0003124707456053004  0.869235102152807  1.0000
  O   O7        1.0  0.16586165220622456  0.23614982297645074  0.0070575107284725005  1.0000
  O   O8        1.0  0.289595913496612  0.1298238574417923  0.9937082768446146  1.0000
  O   O9        1.0  0.010396574206311  0.23974197536892214  0.8693291232083455  1.0000
  O   O10       1.0  0.0056249187284578  0.2834238603396528  0.08835994837452428  1.0000
  O   O11       1.0  0.0006158757162068998  0.1206831212456407  0.7511210656870092  1.0000
  O   O12       1.0  0.0029072781105484  0.8738981500602993  0.7575231650953924  1.0000
  O   O13       1.0  0.9241330091740992  0.06788445937539221  0.9258494905951339  1.0000
  O   O14       1.0  0.1156211970120822  0.09474631307222132  0.8983488225317019  1.0000
  O   O15       1.0  0.16714285625653247  0.017340791913930807  0.2315069876189142  1.0000
  O   O16       1.0  0.2899476309023754  0.007779639874193802  0.12322814246816452  1.0000
  O   O17       1.0  0.8488104631476009  0.7669380511840275  0.014423107105308502  1.0000
  O   O18       1.0  0.7252924800333461  0.8743857316078375  0.006260322579891  1.0000
  O   O19       1.0  0.161104552539804  0.7664985440756524  0.9896065442498028  1.0000
  O   O20       1.0  0.2863127589377399  0.872461871094231  0.9988665128590881  1.0000
  O   O21       1.0  0.8458251407441538  0.9868904950442927  0.2304313114834358  1.0000
  O   O22       1.0  0.7239556344752461  0.008607594116171  0.12377526281515831  1.0000
  O   O23       1.0  0.005132562510290501  0.8828086942795963  0.24642135934605852  1.0000
  O   O24       1.0  0.9946242809450611  0.11067409804677912  0.2530273327914472  1.0000
  O   O25       1.0  0.007867640223267401  0.7642994297390756  0.1257699518750428  1.0000
  O   O26       1.0  0.007510375974348398  0.7561178639216167  0.8779421056275681  1.0000
  O   O27       1.0  0.1151359719910587  0.9095888575929648  0.0960896432073284  1.0000
  O   O28       1.0  0.9241420205925835  0.9387161796344474  0.06787458548271992  1.0000
  O   O29       1.0  0.09150306409381412  0.07377851296676849  0.0637095084808905  1.0000
  O   O30       1.0  0.8962259741831887  0.9037412060949992  0.9075716664486395  1.0000
  O   O31       1.0  0.9026812104056462  0.10497433241787493  0.0920152663068023  1.0000
  O   O32       1.0  0.08795619928685738  0.9315427785252981  0.9307961790637194  1.0000
