data_image0
_chemical_formula_structural       Zn2H9C20N6ClO16
_chemical_formula_sum              "Zn2 H9 C20 N6 Cl1 O16"
_cell_length_a       10.004291839151515
_cell_length_b       10.910857575092248
_cell_length_c       11.084893089888059
_cell_angle_alpha    90.40881500490913
_cell_angle_beta     87.70111443202545
_cell_angle_gamma    89.35154632126111

_space_group_name_H-M_alt    "P 1"
_space_group_IT_number       1

loop_
  _space_group_symop_operation_xyz
  'x, y, z'

loop_
  _atom_site_type_symbol
  _atom_site_label
  _atom_site_symmetry_multiplicity
  _atom_site_fract_x
  _atom_site_fract_y
  _atom_site_fract_z
  _atom_site_occupancy
  Zn  Zn1       1.0  0.6417543033279146  0.49414343954618534  0.48924310658018305  1.0000
  Zn  Zn2       1.0  0.36133764182642386  0.48349227112341703  0.4965012866514727  1.0000
  H   H1        1.0  0.3673641411541552  0.10365809658415505  0.6573221308167518  1.0000
  H   H2        1.0  0.8022472948309769  0.083070461775641  0.16915161912489657  1.0000
  H   H3        1.0  0.5439489494826547  0.782165882306664  0.254015455644506  1.0000
  H   H4        1.0  0.32191108138448504  0.47658271401672186  0.8812901771003752  1.0000
  H   H5        1.0  0.6108238674055215  0.5707225819672742  0.8918528088753422  1.0000
  H   H6        1.0  0.31493053374363467  0.5104858479658531  0.1048273000445334  1.0000
  H   H7        1.0  0.8731390523554554  0.6115558825836799  0.6122370614565683  1.0000
  H   H8        1.0  0.890449507992834  0.4364491339792664  0.4072097378907529  1.0000
  H   H9        1.0  0.1163848295681262  0.6455160021307479  0.536750370134506  1.0000
  C   C1        1.0  0.5020789773403465  0.4640012863712002  0.26159716117860654  1.0000
  C   C2        1.0  0.5083915108824045  0.2524190775120303  0.518536237281758  1.0000
  C   C3        1.0  0.5166192468883538  0.5302425469254644  0.7217074578511886  1.0000
  C   C4        1.0  0.45494462416144194  0.7242440708541337  0.46882637193563437  1.0000
  C   C5        1.0  0.6913256833383059  0.09552244704283909  0.3391398861336441  1.0000
  C   C6        1.0  0.7253094739246322  0.0435419274648581  0.2286448569396811  1.0000
  C   C7        1.0  0.6620697014492407  0.933880170138117  0.19717443488151082  1.0000
  C   C8        1.0  0.5815193701206952  0.8716531859090679  0.27880022003753174  1.0000
  C   C9        1.0  0.5452822649071933  0.9261326125437109  0.3922983206272832  1.0000
  C   C10       1.0  0.5869308519272352  0.048758008953974814  0.41787978127595693  1.0000
  C   C11       1.0  0.5139189965060708  0.11427024075013038  0.5117868509405881  1.0000
  C   C12       1.0  0.4254749778537104  0.052698530581501805  0.588050554380537  1.0000
  C   C13       1.0  0.40849168237773636  0.9250100916167341  0.5779994217817404  1.0000
  C   C14       1.0  0.4636387292196602  0.8613558848839773  0.47908256754353584  1.0000
  C   C15       1.0  0.4136726832438526  0.5013532345139  0.9255454333227178  1.0000
  C   C16       1.0  0.5184999285671168  0.5376933555206165  0.8548935999986328  1.0000
  C   C17       1.0  0.4106883245175297  0.49447321123654575  0.0558268742253247  1.0000
  C   C18       1.0  0.5119522353606385  0.4649996421225779  0.12706246656724574  1.0000
  C   C19       1.0  0.9211725761341611  0.5521471390181745  0.542428072533994  1.0000
  C   C20       1.0  0.0689603728826071  0.5550776314293843  0.5324529177395121  1.0000
  N   N1        1.0  0.8460547374946827  0.4923646082313341  0.4731865428845198  1.0000
  N   N2        1.0  0.15223010094648967  0.46559998077918874  0.5200657846489349  1.0000
  N   N3        1.0  0.6461235992197558  0.428804708980678  0.07703400333110721  1.0000
  N   N4        1.0  0.09941675550296482  0.3359451528507051  0.5183281290022421  1.0000
  N   N5        1.0  0.7875157415941061  0.1863744678113903  0.38195936105049816  1.0000
  N   N6        1.0  0.6898584945833406  0.880568981326185  0.0759516895073062  1.0000
  Cl  Cl1       1.0  0.31687530352159843  0.854008059780334  0.6920609995747213  1.0000
  O   O1        1.0  0.6125071266788211  0.45306007009857296  0.3132803376111113  1.0000
  O   O2        1.0  0.3862342221839228  0.4753012838721631  0.312037757477512  1.0000
  O   O3        1.0  0.6152609105501482  0.311658177743908  0.5275535892133405  1.0000
  O   O4        1.0  0.39106310494997143  0.2976616092347513  0.511597263083928  1.0000
  O   O5        1.0  0.6301879854188072  0.5421726849547497  0.6659401778662897  1.0000
  O   O6        1.0  0.4059841046367723  0.5093983497284285  0.6723424392064957  1.0000
  O   O7        1.0  0.5675257553450805  0.6699073792904855  0.45334471025211803  1.0000
  O   O8        1.0  0.34149349913138133  0.6735722494296611  0.4794578579496546  1.0000
  O   O9        1.0  0.7316976100792516  0.5094046922046332  0.0678889375267744  1.0000
  O   O10       1.0  0.6625829323077214  0.31935611791845286  0.0504147158434023  1.0000
  O   O11       1.0  0.10128143378118891  0.2903671146124225  0.4178632649725529  1.0000
  O   O12       1.0  0.0733469637161051  0.29275931259790866  0.6170770532242429  1.0000
  O   O13       1.0  0.8334729142607672  0.1660284017088927  0.4816914215585086  1.0000
  O   O14       1.0  0.822800184408159  0.2700912668532354  0.31278875278776047  1.0000
  O   O15       1.0  0.7803586764371886  0.9273146528316474  0.012617082264448198  1.0000
  O   O16       1.0  0.6201203114565601  0.7934032880618672  0.045073955541070604  1.0000
