data_image0
_chemical_formula_structural       Cd2H38C40N6O10
_chemical_formula_sum              "Cd2 H38 C40 N6 O10"
_cell_length_a       10.275384236366948
_cell_length_b       11.019309026117087
_cell_length_c       11.019440752708869
_cell_angle_alpha    97.9335275947226
_cell_angle_beta     108.29368710922736
_cell_angle_gamma    108.29342217366532

_space_group_name_H-M_alt    "P 1"
_space_group_IT_number       1

loop_
  _space_group_symop_operation_xyz
  'x, y, z'

loop_
  _atom_site_type_symbol
  _atom_site_label
  _atom_site_symmetry_multiplicity
  _atom_site_fract_x
  _atom_site_fract_y
  _atom_site_fract_z
  _atom_site_occupancy
  Cd  Cd1       1.0  0.24038561635975952  0.06906787344917116  0.9662574507082837  1.0000
  Cd  Cd2       1.0  0.7403941209005749  0.9662572000488435  0.06907191531077927  1.0000
  H   H1        1.0  0.10969816777884489  0.060699491438349185  0.2115882786461896  1.0000
  H   H2        1.0  0.6096913203189657  0.21159015354349006  0.06069445143273101  1.0000
  H   H3        1.0  0.1541602003262171  0.9894402625725222  0.4216116507451844  1.0000
  H   H4        1.0  0.6541337862447918  0.42159848958085866  0.9894099383942675  1.0000
  H   H5        1.0  0.3643200667719313  0.9120937011831953  0.5011594273100783  1.0000
  H   H6        1.0  0.86429688084403  0.5011507085709892  0.9120697888301662  1.0000
  H   H7        1.0  0.4488608918648183  0.03495943866550987  0.811422986222624  1.0000
  H   H8        1.0  0.9488632777492969  0.8114008793803507  0.03494821563428732  1.0000
  H   H9        1.0  0.5585982277321833  0.13328895512425729  0.6570261977980891  1.0000
  H   H10       1.0  0.05860086703071231  0.6570048293175289  0.1332826049396871  1.0000
  H   H11       1.0  0.2692344503119343  0.349365969005177  0.6078587207311728  1.0000
  H   H12       1.0  0.7692392830998499  0.6078540593734515  0.3493581745972776  1.0000
  H   H13       1.0  0.1795845580646613  0.2517527367640469  0.7701021458656214  1.0000
  H   H14       1.0  0.6795837702162469  0.770087568731341  0.2517284320283649  1.0000
  H   H15       1.0  0.40572183463592637  0.3395972976008749  0.45649682758701005  1.0000
  H   H16       1.0  0.905734302144964  0.4564935823196235  0.33960422562525133  1.0000
  H   H17       1.0  0.524300463851354  0.2494947077640361  0.4762645360200111  1.0000
  H   H18       1.0  0.024310331428665663  0.47625693663155727  0.2495004892111012  1.0000
  H   H19       1.0  0.7016778747639093  0.4181969914227322  0.6899490150830943  1.0000
  H   H20       1.0  0.20168117277614064  0.6899406833857638  0.4181925475904364  1.0000
  H   H21       1.0  0.5866093962776873  0.5101636952031683  0.668754966369498  1.0000
  H   H22       1.0  0.08661874629143537  0.6687628374222853  0.5101589765130754  1.0000
  H   H23       1.0  0.7395549641297163  0.4508717320331143  0.48261143283710334  1.0000
  H   H24       1.0  0.23955657719199755  0.48260606857679267  0.45088143267447117  1.0000
  H   H25       1.0  0.6243035515779736  0.5446233535392933  0.45912072616358296  1.0000
  H   H26       1.0  0.12430474847380421  0.45912788382223363  0.544630531577603  1.0000
  H   H27       1.0  0.9625458164285448  0.5368312591364344  0.7279831501221493  1.0000
  H   H28       1.0  0.4625490383229617  0.7279764647832251  0.5368281166908702  1.0000
  H   H29       1.0  0.16155026849483523  0.743689541249118  0.8857654007112147  1.0000
  H   H30       1.0  0.661559192238279  0.8857604674337763  0.7436847788788796  1.0000
  H   H31       1.0  0.9553010154284111  0.9776192931806802  0.7076579210749332  1.0000
  H   H32       1.0  0.4553167860637545  0.7076699347661801  0.9776255501317195  1.0000
  H   H33       1.0  0.7445006644491059  0.7809472024964705  0.5418705254937208  1.0000
  H   H34       1.0  0.24451114713622954  0.5418820172025461  0.7809565486693657  1.0000
  H   H35       1.0  0.30658755369476137  0.36474758909189103  0.04605178335603447  1.0000
  H   H36       1.0  0.806593631315927  0.04604925684063228  0.36475090480732325  1.0000
  H   H37       1.0  0.42472937523553606  0.3539703908987092  0.17046360149225848  1.0000
  H   H38       1.0  0.924732969467769  0.1704597426041587  0.3539695467660948  1.0000
  C   C1        1.0  0.19890974333252132  0.026025811996127884  0.2493656418999279  1.0000
  C   C2        1.0  0.6988964671197024  0.24936056019382843  0.026010597443111263  1.0000
  C   C3        1.0  0.22490883760726635  0.98606455032413  0.3664498563454188  1.0000
  C   C4        1.0  0.7248966463133399  0.36644343385320605  0.9860535338448527  1.0000
  C   C5        1.0  0.34087007138548125  0.9430656521287019  0.40953538695559644  1.0000
  C   C6        1.0  0.840848734063016  0.4095213108994711  0.9430419409910087  1.0000
  C   C7        1.0  0.43057110744268096  0.9411463242228347  0.33663763849652634  1.0000
  C   C8        1.0  0.9305588367041507  0.33663135502268904  0.9411289549333901  1.0000
  C   C9        1.0  0.5667447514957898  0.9073270158122495  0.3932568399289024  1.0000
  C   C10       1.0  0.06674022644432395  0.39325824923922426  0.9073284895581254  1.0000
  C   C11       1.0  0.3899954110824808  0.9750929772168816  0.2155788783267596  1.0000
  C   C12       1.0  0.8899904548309436  0.21557914321484611  0.9750967366162373  1.0000
  C   C13       1.0  0.46996186043089244  0.963873134261682  0.12416017193232423  1.0000
  C   C14       1.0  0.9699596741256259  0.1241685756095805  0.9638739931146106  1.0000
  C   C15       1.0  0.41346579104858716  0.10610795854130828  0.7643334188099686  1.0000
  C   C16       1.0  0.9134673695145212  0.7643147564949756  0.10609719031802456  1.0000
  C   C17       1.0  0.47304004178920417  0.16042837775798086  0.6780434656975274  1.0000
  C   C18       1.0  0.9730518942558105  0.6780329939183216  0.16043128419030228  1.0000
  C   C19       1.0  0.4222126107474509  0.24987671937697795  0.6185678461452397  1.0000
  C   C20       1.0  0.9222203942494718  0.618558023493037  0.24987612337863405  1.0000
  C   C21       1.0  0.3132602014978829  0.2807278656326416  0.651032377818261  1.0000
  C   C22       1.0  0.8132579932043029  0.6510176302097361  0.2807117971024553  1.0000
  C   C23       1.0  0.2617527159467272  0.22563720888666686  0.7412795983223504  1.0000
  C   C24       1.0  0.7617632420025373  0.7412756498043649  0.2256237556111742  1.0000
  C   C25       1.0  0.48881034491255804  0.3163106917195008  0.530240435040298  1.0000
  C   C26       1.0  0.9888167511415134  0.5302323912580318  0.31631099184001943  1.0000
  C   C27       1.0  0.6227629943516533  0.4438833262166282  0.6148584898501355  1.0000
  C   C28       1.0  0.12276393221668504  0.61485338581258  0.44388010840891917  1.0000
  C   C29       1.0  0.7020512974857168  0.5177807503326547  0.5343526733673727  1.0000
  C   C30       1.0  0.20205474024788117  0.534352319285574  0.5177846388449368  1.0000
  C   C31       1.0  0.8325531409127508  0.6409796352683371  0.6236072600067858  1.0000
  C   C32       1.0  0.3325644637940783  0.6236076950896601  0.6409825565801768  1.0000
  C   C33       1.0  0.9540683248242132  0.6322066617042379  0.7200762316801813  1.0000
  C   C34       1.0  0.45407567279748656  0.720078427343864  0.6322051323006904  1.0000
  C   C35       1.0  0.06648380810248249  0.7477802969975398  0.8088338868901701  1.0000
  C   C36       1.0  0.5664875865329079  0.8088337538649024  0.747782397064796  1.0000
  C   C37       1.0  0.9519676061487701  0.87788611263862  0.7092233171838132  1.0000
  C   C38       1.0  0.4519760243950797  0.7092357983472082  0.8778851973308974  1.0000
  C   C39       1.0  0.8343004265342985  0.7674609632766404  0.6171137567687168  1.0000
  C   C40       1.0  0.3343063738721597  0.6171217682705573  0.7674636248577045  1.0000
  N   N1        1.0  0.2780850733490539  0.018002417262280794  0.17449989539659333  1.0000
  N   N2        1.0  0.7780783245437988  0.17450358274777494  0.017995979778156344  1.0000
  N   N3        1.0  0.31128170854282194  0.13939751454218194  0.7972358850865363  1.0000
  N   N4        1.0  0.8112830488852437  0.7972198645348315  0.13937476437080676  1.0000
  N   N5        1.0  0.065204118617423  0.8690927729756692  0.8056308195628789  1.0000
  N   N6        1.0  0.5652178422872466  0.80563301666978  0.8690934728906186  1.0000
  O   O1        1.0  0.44110864944598666  0.006696072834707  0.021338959197663605  1.0000
  O   O2        1.0  0.9411178225668595  0.02134918831640679  0.0067056047729182125  1.0000
  O   O3        1.0  0.5646557140292356  0.9112959444172472  0.1568628506236179  1.0000
  O   O4        1.0  0.06464763010428949  0.1568559468748276  0.9112888936508341  1.0000
  O   O5        1.0  0.6898600102304755  0.005857474477409097  0.4435102541772977  1.0000
  O   O6        1.0  0.1898478511605859  0.4435029246773325  0.0058674366772351015  1.0000
  O   O7        1.0  0.5428451838541903  0.787855046250051  0.39280058295881287  1.0000
  O   O8        1.0  0.0428497288646383  0.39280892184523697  0.7878640583964727  1.0000
  O   O9        1.0  0.3764619000119538  0.3176976326313081  0.07504628327485818  1.0000
  O   O10       1.0  0.8764656627616035  0.07504184796184177  0.31769718874063807  1.0000
