data_image0
_chemical_formula_structural       NiAg2H6C14N2O10
_chemical_formula_sum              "Ni1 Ag2 H6 C14 N2 O10"
_cell_length_a       5.041799083180768
_cell_length_b       8.920760422373851
_cell_length_c       9.023092681320147
_cell_angle_alpha    96.0554924263639
_cell_angle_beta     95.78281399176473
_cell_angle_gamma    102.70501563957068

_space_group_name_H-M_alt    "P 1"
_space_group_IT_number       1

loop_
  _space_group_symop_operation_xyz
  'x, y, z'

loop_
  _atom_site_type_symbol
  _atom_site_label
  _atom_site_symmetry_multiplicity
  _atom_site_fract_x
  _atom_site_fract_y
  _atom_site_fract_z
  _atom_site_occupancy
  Ni  Ni1       1.0  0.4999961160891075  0.500000063838016  0.4999980445867893  1.0000
  Ag  Ag1       1.0  0.09879207522680386  0.46922462606068643  0.8550562865763072  1.0000
  Ag  Ag2       1.0  0.90120082567222  0.5307721302302114  0.14494398706144557  1.0000
  H   H1        1.0  0.7837018800617912  0.05373908905455951  0.9533554222709957  1.0000
  H   H2        1.0  0.21630595851613785  0.9462600039870711  0.046646926087909435  1.0000
  H   H3        1.0  0.4907023188143712  0.17810728235175333  0.7878833442645218  1.0000
  H   H4        1.0  0.5093073513927352  0.8218963664565211  0.21211615685299998  1.0000
  H   H5        1.0  0.19842571818131918  0.019008897072289702  0.5619074797113086  1.0000
  H   H6        1.0  0.8015814799049892  0.9809935939402765  0.4380917964798457  1.0000
  C   C1        1.0  0.6420058566273995  0.8302336389625399  0.8225701100830495  1.0000
  C   C2        1.0  0.3579895446216099  0.16976430170986848  0.17743150077748035  1.0000
  C   C3        1.0  0.6532597963162416  0.9872034280746012  0.8543232273013504  1.0000
  C   C4        1.0  0.3467385843619226  0.012796855860344205  0.14567984319391775  1.0000
  C   C5        1.0  0.4916614194579766  0.05636000465489841  0.7612974492063814  1.0000
  C   C6        1.0  0.5083398841909885  0.9436425693709728  0.2387048563308057  1.0000
  C   C7        1.0  0.3259601064024267  0.9670545455543975  0.6356690199383976  1.0000
  C   C8        1.0  0.6740446477922504  0.03294681424825541  0.36433114362280616  1.0000
  C   C9        1.0  0.3211385974507123  0.8107414656782055  0.6028324445374054  1.0000
  C   C10       1.0  0.6788641637023431  0.18925989520974443  0.3971676165093997  1.0000
  C   C11       1.0  0.7965688431790952  0.7343436709626732  0.9110176218491478  1.0000
  C   C12       1.0  0.2034255716823807  0.2656519253619082  0.08898263189104233  1.0000
  C   C13       1.0  0.1618940754088598  0.7146113948810964  0.4619946028768852  1.0000
  C   C14       1.0  0.8381066644733933  0.28538994050634875  0.5380042433590974  1.0000
  N   N1        1.0  0.4765300723585073  0.7471936908106473  0.6995204065817975  1.0000
  N   N2        1.0  0.5234682236321219  0.25280651336689175  0.3004793270242346  1.0000
  O   O1        1.0  0.45555584787713604  0.5926529915471407  0.6873755715878647  1.0000
  O   O2        1.0  0.5444384338010693  0.4073471882151908  0.3126228446929461  1.0000
  O   O3        1.0  0.005105788219353291  0.7067353933044274  0.85684790374566  1.0000
  O   O4        1.0  0.9948905914545634  0.2932601753490546  0.14315134021251916  1.0000
  O   O5        1.0  0.7000084364928514  0.6922373543211295  0.027905462683968117  1.0000
  O   O6        1.0  0.2999825480894671  0.3077547664457115  0.9720943213059243  1.0000
  O   O7        1.0  0.24511118606625365  0.5957626507977454  0.4037653594341962  1.0000
  O   O8        1.0  0.754887053466021  0.40423750020818267  0.5962321495790166  1.0000
  O   O9        1.0  0.9647795494845042  0.75741148475494  0.3995099274408959  1.0000
  O   O10       1.0  0.03522360606019254  0.24259095525661692  0.6004869191286348  1.0000
