data_image0
_chemical_formula_structural       Zn4H20C24S4N4O14
_chemical_formula_sum              "Zn4 H20 C24 S4 N4 O14"
_cell_length_a       7.969051449975792
_cell_length_b       9.35096689262636
_cell_length_c       10.196418442370634
_cell_angle_alpha    81.60055268211781
_cell_angle_beta     80.86462427817699
_cell_angle_gamma    76.2023186079927

_space_group_name_H-M_alt    "P 1"
_space_group_IT_number       1

loop_
  _space_group_symop_operation_xyz
  'x, y, z'

loop_
  _atom_site_type_symbol
  _atom_site_label
  _atom_site_symmetry_multiplicity
  _atom_site_fract_x
  _atom_site_fract_y
  _atom_site_fract_z
  _atom_site_occupancy
  Zn  Zn1       1.0  0.7388465822452589  0.503849162874765  0.441869010066398  1.0000
  Zn  Zn2       1.0  0.2611550861750302  0.49615142274711144  0.5581300887740283  1.0000
  Zn  Zn3       1.0  0.8252748754817888  0.1772961707095249  0.6650098651402273  1.0000
  Zn  Zn4       1.0  0.17472454692668293  0.8227032962835921  0.3349896739374216  1.0000
  H   H1        1.0  0.08493365117709577  0.8590325137425837  0.6726427865462767  1.0000
  H   H2        1.0  0.9150667510122903  0.1409680717064887  0.3273574537880036  1.0000
  H   H3        1.0  0.15727127489036968  0.6475760466937714  0.8442004978432891  1.0000
  H   H4        1.0  0.8427259015062988  0.3524223016705861  0.1557994814715968  1.0000
  H   H5        1.0  0.9930078413246196  0.6583065704603683  0.07871931209034246  1.0000
  H   H6        1.0  0.006996073107480107  0.3416951337902603  0.9212793465128472  1.0000
  H   H7        1.0  0.7608574906509562  0.8011195967926383  0.23708553072217609  1.0000
  H   H8        1.0  0.2391403824524829  0.19888099333209652  0.7629179722280669  1.0000
  H   H9        1.0  0.526331796439273  0.0235812495441152  0.27525244752192174  1.0000
  H   H10       1.0  0.47366860237424674  0.9764193308836794  0.7247468131840903  1.0000
  H   H11       1.0  0.35827917309605084  0.2734574841825221  0.1858763523359741  1.0000
  H   H12       1.0  0.6417231852792825  0.7265453331571835  0.8141243108832795  1.0000
  H   H13       1.0  0.3117160075452006  0.4697397150210207  0.991313087673376  1.0000
  H   H14       1.0  0.6882849742959041  0.5302586439042968  0.008685426416484175  1.0000
  H   H15       1.0  0.5059123141785592  0.43596563690375234  0.7737089675443939  1.0000
  H   H16       1.0  0.49408671485245753  0.5640304951521955  0.22629010328875415  1.0000
  H   H17       1.0  0.16031904603561034  0.0462537848822819  0.5344874731701453  1.0000
  H   H18       1.0  0.8396829122105417  0.9537456874777134  0.465510762548071  1.0000
  H   H19       1.0  0.10762659155404461  0.2215276933980519  0.4937032657186791  1.0000
  H   H20       1.0  0.8923738038836149  0.7784728820084723  0.506295015359065  1.0000
  C   C1        1.0  0.017017566226073224  0.8631709077411569  0.7738223348043363  1.0000
  C   C2        1.0  0.982983422366758  0.1368274612267015  0.22617813854205338  1.0000
  C   C3        1.0  0.05723737035270907  0.7432255923325926  0.8725573773143083  1.0000
  C   C4        1.0  0.9427642980675801  0.2567749932892838  0.12744172152611102  1.0000
  C   C5        1.0  0.9677757989933371  0.7497728410138933  0.9998304324484906  1.0000
  C   C6        1.0  0.03222274718582699  0.25022995572231116  0.0001697367392595078  1.0000
  C   C7        1.0  0.8375981937190817  0.8770467682455562  0.028940478070261063  1.0000
  C   C8        1.0  0.16240348482879344  0.12295383244013888  0.9710615596549559  1.0000
  C   C9        1.0  0.8067761560245258  0.9928602780711346  0.9235104816324479  1.0000
  C   C10       1.0  0.1932239529631374  0.007141415618534101  0.07648964219576729  1.0000
  C   C11       1.0  0.6740682424677902  0.12380222631285417  0.9466186090871601  1.0000
  C   C12       1.0  0.3259306002889701  0.8761994672040173  0.05338265623490916  1.0000
  C   C13       1.0  0.7350995336125337  0.891118776353153  0.15708646336660342  1.0000
  C   C14       1.0  0.2649018551094784  0.1088829375944158  0.8429164374808309  1.0000
  C   C15       1.0  0.6063322275218683  0.014413427960235502  0.1782640488346345  1.0000
  C   C16       1.0  0.3936681712916582  0.9855871524675593  0.8217352118713777  1.0000
  C   C17       1.0  0.5727048327196231  0.13372856073296902  0.0739278877594458  1.0000
  C   C18       1.0  0.4272961592490674  0.8662698132561674  0.926073565215205  1.0000
  C   C19       1.0  0.4399206644888027  0.2623115194884562  0.0895925143836749  1.0000
  C   C20       1.0  0.5600787579196761  0.7376879475046608  0.9104070246939814  1.0000
  C   C21       1.0  0.41454846284160135  0.37025842032331013  0.9820178762620059  1.0000
  C   C22       1.0  0.5854502797394191  0.6297388300157891  0.017983037321613455  1.0000
  C   C23       1.0  0.5227489712899924  0.3522038381166297  0.85984108953339  1.0000
  C   C24       1.0  0.4772513273477871  0.6477922991333996  0.1401578194341724  1.0000
  S   S1        1.0  0.5579236166975362  0.2355275383376281  0.4566311296140385  1.0000
  S   S2        1.0  0.4420755057574938  0.7644730268535439  0.5433663337010302  1.0000
  S   S3        1.0  0.8772734739388075  0.5020327449583775  0.7070992360484495  1.0000
  S   S4        1.0  0.12272594846967173  0.4979667220347396  0.29290030302919934  1.0000
  N   N1        1.0  0.8960647734766026  0.9847977517255515  0.7986830478960628  1.0000
  N   N2        1.0  0.10393309625097662  0.0152028333779128  0.20131947542591178  1.0000
  N   N3        1.0  0.6498109301472896  0.2321195128496285  0.8431570601484639  1.0000
  N   N4        1.0  0.35018498001847587  0.7678788353419322  0.15684406066027634  1.0000
  O   O1        1.0  0.6468690400916446  0.35309887374226895  0.36918817915541524  1.0000
  O   O2        1.0  0.35312979591338944  0.6469028097320546  0.6308111269101246  1.0000
  O   O3        1.0  0.7054042808754701  0.1232731470362225  0.526937078687169  1.0000
  O   O4        1.0  0.2945958179846002  0.8767285315896347  0.4730601062562556  1.0000
  O   O5        1.0  0.4474325174792144  0.3153259768778582  0.5745789700303804  1.0000
  O   O6        1.0  0.5525669049292647  0.6846734901152587  0.4254205690472759  1.0000
  O   O7        1.0  0.8262211738598924  0.4005998184489457  0.6103376836437137  1.0000
  O   O8        1.0  0.1737782451727199  0.5993996435229008  0.3896608758056744  1.0000
  O   O9        1.0  0.07636106410645031  0.45068723153037377  0.7008907605459029  1.0000
  O   O10       1.0  0.9236396279087984  0.5493122406568176  0.2991086166661675  1.0000
  O   O11       1.0  0.8314215065540085  0.6544345262669964  0.633386743677221  1.0000
  O   O12       1.0  0.1685791854612333  0.34556494592019504  0.36661263353484935  1.0000
  O   O13       1.0  0.0816524930458158  0.13921644823529536  0.561672082397564  1.0000
  O   O14       1.0  0.9183481922176999  0.860783013909355  0.4383253355579696  1.0000
