data_image0
_chemical_formula_structural       Fe3H34C56N6O10
_chemical_formula_sum              "Fe3 H34 C56 N6 O10"
_cell_length_a       6.991313643
_cell_length_b       16.561867566663732
_cell_length_c       17.093963776758827
_cell_angle_alpha    90.045384931312
_cell_angle_beta     90.09138509689413
_cell_angle_gamma    102.50267467843561

_space_group_name_H-M_alt    "P 1"
_space_group_IT_number       1

loop_
  _space_group_symop_operation_xyz
  'x, y, z'

loop_
  _atom_site_type_symbol
  _atom_site_label
  _atom_site_symmetry_multiplicity
  _atom_site_fract_x
  _atom_site_fract_y
  _atom_site_fract_z
  _atom_site_occupancy
  Fe  Fe1       1.0  0.501117124756604  0.0020725636491647  0.49317212521967957  1.0000
  Fe  Fe2       1.0  0.500793780256032  0.5014140010207697  0.9953328210084466  1.0000
  Fe  Fe3       1.0  0.0006083451027194918  0.5013515636448744  0.9953550511211446  1.0000
  H   H1        1.0  0.45764623508772206  0.9180478974267814  0.198072644162842  1.0000
  H   H2        1.0  0.45803055394350867  0.9172053579015795  0.7914382273302394  1.0000
  H   H3        1.0  0.543496465306653  0.08574084001087813  0.1980287689404108  1.0000
  H   H4        1.0  0.5431997232251291  0.08499289505186172  0.7913697819832493  1.0000
  H   H5        1.0  0.02910145798212938  0.6717871293676867  0.1765123598593306  1.0000
  H   H6        1.0  0.6435908634535465  0.6732165640185883  0.8133536084339781  1.0000
  H   H7        1.0  0.9711677631235318  0.330994916823002  0.1760385074570507  1.0000
  H   H8        1.0  0.35796882030969357  0.3281200581792874  0.8135513394364156  1.0000
  H   H9        1.0  0.9715034215156495  0.3290048809368216  0.8153993638052839  1.0000
  H   H10       1.0  0.35777943989327815  0.3305036912622016  0.17791227195641576  1.0000
  H   H11       1.0  0.0302378136589851  0.6725725005445755  0.8146622600684097  1.0000
  H   H12       1.0  0.6426935755443068  0.6727038446329062  0.1786452806725336  1.0000
  H   H13       1.0  0.08052431149955197  0.7789262965808702  0.2827547484731241  1.0000
  H   H14       1.0  0.6960844304629604  0.7772272961640497  0.7054843265723747  1.0000
  H   H15       1.0  0.920556251431016  0.2247774013559507  0.2828161737845321  1.0000
  H   H16       1.0  0.3051496095411252  0.22271456795773048  0.7059043587017939  1.0000
  H   H17       1.0  0.9206251195287721  0.2234535429841173  0.7078413035214697  1.0000
  H   H18       1.0  0.3051779736338176  0.22429416825826112  0.2846513280881595  1.0000
  H   H19       1.0  0.07997450985020282  0.7766574388748779  0.7067853731682519  1.0000
  H   H20       1.0  0.6959479275806829  0.7797490688872275  0.2849391495473128  1.0000
  H   H21       1.0  0.8576219177311091  0.06989142346323261  0.5976729600043742  1.0000
  H   H22       1.0  0.2490550959260815  0.12312512888151163  0.4265484774598036  1.0000
  H   H23       1.0  0.1500826086971259  0.9020543375236585  0.6554285478061175  1.0000
  H   H24       1.0  0.7533299444730231  0.8800256758251592  0.4373002469677232  1.0000
  H   H25       1.0  0.12423192971634477  0.8801784657108769  0.437324232089324  1.0000
  H   H26       1.0  0.7507026525284032  0.9022326292161225  0.6555701185238334  1.0000
  H   H27       1.0  0.8762406440016477  0.12298039918874791  0.42654087242124933  1.0000
  H   H28       1.0  0.21461809530855191  0.06985941542268391  0.5977963956301551  1.0000
  H   H29       1.0  0.3428538415292762  0.6883878324601085  0.4149619087197324  1.0000
  H   H30       1.0  0.3432421911850483  0.6882581333771043  0.5737808538792919  1.0000
  H   H31       1.0  0.6587286911537903  0.3155647137522167  0.4164214911193299  1.0000
  H   H32       1.0  0.6584686354426593  0.3146142884205787  0.5752193761721289  1.0000
  H   H33       1.0  0.7854100432953572  0.6143793848939154  0.9973715563441559  1.0000
  H   H34       1.0  0.21618895666410512  0.3885354894024218  0.9965402671297952  1.0000
  C   C1        1.0  0.4116711712749678  0.8262707698608835  0.43030010147929704  1.0000
  C   C2        1.0  0.4120791594715242  0.8261004494001298  0.5591510997112792  1.0000
  C   C3        1.0  0.590086201540764  0.17763954267823584  0.4305645228198288  1.0000
  C   C4        1.0  0.5898679426702814  0.1768081689256533  0.559483381395836  1.0000
  C   C5        1.0  0.42400942394934305  0.8514308009545247  0.3522437407593486  1.0000
  C   C6        1.0  0.42421599375069974  0.8501783504575542  0.6374046064306925  1.0000
  C   C7        1.0  0.5774094623489461  0.15272614143272992  0.3523461162783619  1.0000
  C   C8        1.0  0.577341662182171  0.1515436248019668  0.6375455921454432  1.0000
  C   C9        1.0  0.46582619564673416  0.9339930788146732  0.3286031859095502  1.0000
  C   C10       1.0  0.466144370431408  0.9329311304946657  0.6609773009364659  1.0000
  C   C11       1.0  0.53548017976577  0.07013763259873682  0.3285786157849843  1.0000
  C   C12       1.0  0.5353791501739877  0.0689167039994558  0.6609240656665776  1.0000
  C   C13       1.0  0.4790393811384633  0.9598510394848818  0.24778034616446123  1.0000
  C   C14       1.0  0.4792342614450433  0.9588402550985579  0.7417047851981309  1.0000
  C   C15       1.0  0.5221211320739485  0.0440892435942288  0.2477616260695612  1.0000
  C   C16       1.0  0.5220256736805952  0.04317616842518391  0.7416796300705999  1.0000
  C   C17       1.0  0.39166991802301965  0.7863899517883228  0.2903229318413096  1.0000
  C   C18       1.0  0.3920358349466681  0.7851604031362314  0.6995260713659874  1.0000
  C   C19       1.0  0.609503337192244  0.21764664829454014  0.2904492924819166  1.0000
  C   C20       1.0  0.6094949168222215  0.21613615870705874  0.7000256638987568  1.0000
  C   C21       1.0  0.20363047914566582  0.7554299806250812  0.259922667722023  1.0000
  C   C22       1.0  0.5498227152758587  0.7548568046566757  0.729530873480421  1.0000
  C   C23       1.0  0.797280497083392  0.24820439277551293  0.2599080426478793  1.0000
  C   C24       1.0  0.45139380075818286  0.24612201065218642  0.7298912353073348  1.0000
  C   C25       1.0  0.7972494021585206  0.24655010899457616  0.7309945509007818  1.0000
  C   C26       1.0  0.4513818924019547  0.2479799651706145  0.2609727480455817  1.0000
  C   C27       1.0  0.20436312462573622  0.7545200713935076  0.7303001523804086  1.0000
  C   C28       1.0  0.5496871721599419  0.7559033831164896  0.2611529289590422  1.0000
  C   C29       1.0  0.17439046190504104  0.6960880216209304  0.2008151380663818  1.0000
  C   C30       1.0  0.5216342363155988  0.6967513226776632  0.7895668028427352  1.0000
  C   C31       1.0  0.8261134030833901  0.3070181212010539  0.20046062626911987  1.0000
  C   C32       1.0  0.47979939904245583  0.3045842093674834  0.7897545887947501  1.0000
  C   C33       1.0  0.8262853612079512  0.3050896105325479  0.7908538093674338  1.0000
  C   C34       1.0  0.4796161423002303  0.3067751836605694  0.2015610168477409  1.0000
  C   C35       1.0  0.1755163548748229  0.6963719421318687  0.7903577268524629  1.0000
  C   C36       1.0  0.5210121878751366  0.6966059793824612  0.20206645941016896  1.0000
  C   C37       1.0  0.333317524351166  0.6668080052047644  0.1710870423547632  1.0000
  C   C38       1.0  0.33438309296178664  0.6674901140271814  0.8208030362001182  1.0000
  C   C39       1.0  0.6670953601784078  0.33622839322381287  0.1705500096321799  1.0000
  C   C40       1.0  0.6674435891617776  0.33424936460581023  0.8208562714700065  1.0000
  C   C41       1.0  0.30383383210880766  0.6054905534508137  0.10535259910285792  1.0000
  C   C42       1.0  0.3049616959705261  0.6064089769433992  0.8866778801638022  1.0000
  C   C43       1.0  0.6964368710825398  0.39719571367395906  0.104659370588422  1.0000
  C   C44       1.0  0.6972580820524499  0.3960834219341508  0.8862420529543087  1.0000
  C   C45       1.0  0.36912340413613975  0.7408359526405947  0.4546221847842277  1.0000
  C   C46       1.0  0.36937838131022  0.7407801131988592  0.5343171388113035  1.0000
  C   C47       1.0  0.6325378985083463  0.262826584862708  0.4556371649298399  1.0000
  C   C48       1.0  0.632423679202887  0.2623069724372726  0.5353923742623934  1.0000
  C   C49       1.0  0.89631311461617  0.0144312161181475  0.5734386271443199  1.0000
  C   C50       1.0  0.1338151535126002  0.0752643336411651  0.4508097204562915  1.0000
  C   C51       1.0  0.06487130346570778  0.9394342606063051  0.6253196151637823  1.0000
  C   C52       1.0  0.8691088662084994  0.9300383084954478  0.4578952763777195  1.0000
  C   C53       1.0  0.05952905509623445  0.9301063278893835  0.4578859163302624  1.0000
  C   C54       1.0  0.8739496988684863  0.9395122424164415  0.6253646603921439  1.0000
  C   C55       1.0  0.9428972606557124  0.07520494750970391  0.4507986053999389  1.0000
  C   C56       1.0  0.1190701327489947  0.0144145334706707  0.5734514972095682  1.0000
  N   N1        1.0  0.4382048816541441  0.878626452141333  0.49483411864543575  1.0000
  N   N2        1.0  0.5637817584317943  0.12491113179291351  0.4947428581827751  1.0000
  N   N3        1.0  0.500745627762072  0.0021105335512672  0.3778791557224324  1.0000
  N   N4        1.0  0.5007229750964087  0.0007394660335009  0.6114240397178037  1.0000
  N   N5        1.0  0.8136124885520603  0.004082512741455  0.4901143147175944  1.0000
  N   N6        1.0  0.19080804891842013  0.0042130451669564  0.4901441498688471  1.0000
  O   O1        1.0  0.456711360974019  0.5840646724958775  0.079864604887149  1.0000
  O   O2        1.0  0.13101724212137364  0.583270377261016  0.9127514623482469  1.0000
  O   O3        1.0  0.5438238237819347  0.4196086257449778  0.0799049700917891  1.0000
  O   O4        1.0  0.8720638969138363  0.42058146934773794  0.9114398856989894  1.0000
  O   O5        1.0  0.5447319529519135  0.4180240790137759  0.9114024455091823  1.0000
  O   O6        1.0  0.8702848529517623  0.42014735093383854  0.0784342726358389  1.0000
  O   O7        1.0  0.4574908205506675  0.5838889497362345  0.911334000162185  1.0000
  O   O8        1.0  0.12915430220806468  0.5812681041705832  0.0799628853853989  1.0000
  O   O9        1.0  0.7663174225363106  0.5544240128031248  0.9955902223133819  1.0000
  O   O10       1.0  0.2352439936565034  0.448495484284642  0.9950449995492862  1.0000
