data_image0
_chemical_formula_structural       Ca6H36C30O24
_chemical_formula_sum              "Ca6 H36 C30 O24"
_cell_length_a       8.671832836173742
_cell_length_b       12.28302923179869
_cell_length_c       12.283187016095546
_cell_angle_alpha    114.63637116313419
_cell_angle_beta     103.61341084010111
_cell_angle_gamma    103.61261629941264

_space_group_name_H-M_alt    "P 1"
_space_group_IT_number       1

loop_
  _space_group_symop_operation_xyz
  'x, y, z'

loop_
  _atom_site_type_symbol
  _atom_site_label
  _atom_site_symmetry_multiplicity
  _atom_site_fract_x
  _atom_site_fract_y
  _atom_site_fract_z
  _atom_site_occupancy
  Ca  Ca1       1.0  0.5904673257477384  0.19626637011091225  0.5767975666043699  1.0000
  Ca  Ca2       1.0  0.39420711758160815  0.3805222132962243  0.8037289658972215  1.0000
  Ca  Ca3       1.0  0.013657533614548422  0.4231977334842086  0.6194620038181429  1.0000
  Ca  Ca4       1.0  0.4095326852609277  0.803733105673274  0.4232019902232624  1.0000
  Ca  Ca5       1.0  0.6057933770506165  0.6194782297035742  0.19627107451215417  1.0000
  Ca  Ca6       1.0  0.9863424773941177  0.5768017422999775  0.3805375530094964  1.0000
  H   H1        1.0  0.7910760905866496  0.7311176644780701  0.822073461488053  1.0000
  H   H2        1.0  0.059947757895486106  0.0909738928638433  0.26883889301497294  1.0000
  H   H3        1.0  0.9689790815369507  0.17790283290614178  0.9090280097670064  1.0000
  H   H4        1.0  0.208924623299886  0.2688808441096882  0.17792580832688296  1.0000
  H   H5        1.0  0.9400527375902998  0.909026550097721  0.73116196164105  1.0000
  H   H6        1.0  0.03102211597313699  0.8220966428972218  0.09097174362967315  1.0000
  H   H7        1.0  0.6476130030328235  0.6592456968573188  0.8778018840477062  1.0000
  H   H8        1.0  0.9883598771682713  0.2185844671068438  0.3407023596656417  1.0000
  H   H9        1.0  0.7697684715791481  0.12216471309314868  0.7814274548218451  1.0000
  H   H10       1.0  0.3523877100001513  0.34075281176866673  0.12219657152058978  1.0000
  H   H11       1.0  0.011640617463946392  0.7814159758929476  0.6592976807437412  1.0000
  H   H12       1.0  0.23023202305306964  0.8778357299066499  0.21857258558753762  1.0000
  H   H13       1.0  0.5665332210292604  0.6085267712808431  0.5990939306146789  1.0000
  H   H14       1.0  0.9579910108743589  0.9905859554491837  0.3914304284794455  1.0000
  H   H15       1.0  0.9674395940060664  0.4008801771407845  0.009426157950592538  1.0000
  H   H16       1.0  0.43346560433155895  0.3914727044459381  0.4009062438905532  1.0000
  H   H17       1.0  0.0420082981100123  0.0094144874932098  0.6085702296075299  1.0000
  H   H18       1.0  0.03256138510327119  0.5991212330363991  0.9905751802871808  1.0000
  H   H19       1.0  0.42743801453977437  0.525623037733574  0.6480589395580411  1.0000
  H   H20       1.0  0.9018121347788934  0.12244345198952541  0.47432320043687803  1.0000
  H   H21       1.0  0.7793870186252576  0.3519377140821262  0.8775686552630336  1.0000
  H   H22       1.0  0.5725619973224667  0.474376438012392  0.351941431516238  1.0000
  H   H23       1.0  0.09818717420547773  0.8775569909528682  0.5256774576500975  1.0000
  H   H24       1.0  0.22061466336194965  0.6480627288986227  0.12243239596203641  1.0000
  H   H25       1.0  0.433198327336207  0.7444111006937391  0.8070710125005721  1.0000
  H   H26       1.0  0.6887014708719762  0.06264886405862309  0.25554925538394724  1.0000
  H   H27       1.0  0.6260891898939603  0.1929423717178125  0.937350262361797  1.0000
  H   H28       1.0  0.5668004980246194  0.25558837503304227  0.19292916200465982  1.0000
  H   H29       1.0  0.3112978372588274  0.937351578921991  0.7444505884563883  1.0000
  H   H30       1.0  0.37391082111471263  0.8070571040663738  0.06264929446583531  1.0000
  H   H31       1.0  0.5455323493511557  0.8140973040537318  0.731891322331535  1.0000
  H   H32       1.0  0.7313801746755926  0.9177947650538909  0.1858694172181785  1.0000
  H   H33       1.0  0.813608746555758  0.2680931546795904  0.08220204722111644  1.0000
  H   H34       1.0  0.45446647600967083  0.18590217167304957  0.2681088521736967  1.0000
  H   H35       1.0  0.26861961793233036  0.08220664510410809  0.8141317244505405  1.0000
  H   H36       1.0  0.18639174807645983  0.7319072883202081  0.9177979931882663  1.0000
  C   C1        1.0  0.7353329881410033  0.5282080740481021  0.7509432121828186  1.0000
  C   C2        1.0  0.2071489630705088  0.22276413571724868  0.47178322703010894  1.0000
  C   C3        1.0  0.9843714515985837  0.2490382797622316  0.7772311068857365  1.0000
  C   C4        1.0  0.26466653839055  0.47179043455870573  0.24905504681643015  1.0000
  C   C5        1.0  0.7928515324152843  0.7772363072443228  0.5282176276259138  1.0000
  C   C6        1.0  0.01562904303363401  0.7509621632375597  0.2227689335236462  1.0000
  C   C7        1.0  0.6826260262908262  0.6442642846114024  0.7934887257489154  1.0000
  C   C8        1.0  0.03834725316994538  0.14924277302758066  0.35568385528641505  1.0000
  C   C9        1.0  0.8890976703762092  0.2064910106175617  0.8507564787205271  1.0000
  C   C10       1.0  0.3173746875957164  0.3557342239763556  0.20651054406602753  1.0000
  C   C11       1.0  0.9616525394379781  0.8507586371304187  0.6443172863823039  1.0000
  C   C12       1.0  0.11090330787956049  0.7935103995978423  0.14924404527060636  1.0000
  C   C13       1.0  0.5285311394442259  0.6183577391089087  0.6810744557388733  1.0000
  C   C14       1.0  0.9101564801445292  0.06273239624609057  0.3815820327985407  1.0000
  C   C15       1.0  0.8474505147811299  0.318904778903068  0.9372785680495002  1.0000
  C   C16       1.0  0.4714676842094576  0.38164173669432694  0.31892409027307184  1.0000
  C   C17       1.0  0.08984282883984197  0.9372680466962957  0.6184186252884345  1.0000
  C   C18       1.0  0.15255046432820754  0.6810966312741087  0.06272277018826597  1.0000
  C   C19       1.0  0.45563777716590437  0.7252009130957191  0.7176253797886221  1.0000
  C   C20       1.0  0.7304162921033566  0.9924304869925749  0.27476135298208976  1.0000
  C   C21       1.0  0.7380140499820201  0.2823749854183148  0.0075732207374556845  1.0000
  C   C22       1.0  0.544361530964899  0.27479952988489487  0.2823744640517135  1.0000
  C   C23       1.0  0.2695834996509916  0.007570923203644499  0.7252389744399894  1.0000
  C   C24       1.0  0.26198666305094775  0.7176235232076705  0.9924252348308402  1.0000
  C   C25       1.0  0.2867580047001752  0.6812568879809432  0.6111985052467761  1.0000
  C   C26       1.0  0.605530628934872  0.9299561239963765  0.31873991037042526  1.0000
  C   C27       1.0  0.6755603550026379  0.38877613509122  0.07007415142135197  1.0000
  C   C28       1.0  0.713241522684946  0.3187416205876303  0.3888005679991125  1.0000
  C   C29       1.0  0.3944698665509208  0.07004431896519489  0.6812609442855975  1.0000
  C   C30       1.0  0.3244384703581814  0.6112233406355612  0.9299260230838728  1.0000
  O   O1        1.0  0.6343655598802442  0.4237612949830449  0.7370730267677035  1.0000
  O   O2        1.0  0.21059234485677075  0.3133081787568272  0.57621421993386  1.0000
  O   O3        1.0  0.897273003440084  0.2629046764864853  0.6866571129736273  1.0000
  O   O4        1.0  0.365636340507713  0.576237213623898  0.26292643961627965  1.0000
  O   O5        1.0  0.7894081506290149  0.686692264204744  0.4237866347221626  1.0000
  O   O6        1.0  0.10272964408708413  0.7370977010019358  0.3133432769216498  1.0000
  O   O7        1.0  0.8696637805539139  0.5380907306355879  0.7264002662608678  1.0000
  O   O8        1.0  0.3316152213385237  0.1883720299227534  0.4619133863736878  1.0000
  O   O9        1.0  0.14324507537609318  0.27359181625016754  0.8116521937460421  1.0000
  O   O10       1.0  0.1303345586226499  0.4619077779902554  0.27359698192269394  1.0000
  O   O11       1.0  0.668385273293694  0.8116284130770451  0.5380866540356949  1.0000
  O   O12       1.0  0.8567561212804264  0.7264076595914303  0.18834674540399735  1.0000
  O   O13       1.0  0.15063308732461417  0.6017994214665592  0.599091573178143  1.0000
  O   O14       1.0  0.548899153274931  0.9973251481696082  0.3982075618923704  1.0000
  O   O15       1.0  0.5515169859046551  0.40087439971043887  0.0027328769269274467  1.0000
  O   O16       1.0  0.8493652535590924  0.39819908708283686  0.40090730349869835  1.0000
  O   O17       1.0  0.45110015570944034  0.0026752947727785997  0.6017930961946052  1.0000
  O   O18       1.0  0.4484830268111537  0.5991250759972928  0.9972683083939916  1.0000
  O   O19       1.0  0.28143215491573403  0.7219295197099028  0.5308016213610716  1.0000
  O   O20       1.0  0.5594876610546677  0.8088862578295776  0.2780877360545589  1.0000
  O   O21       1.0  0.7506705542211449  0.46920488869641724  0.19113725389721745  1.0000
  O   O22       1.0  0.718567856092939  0.27806995607428314  0.4691979354665606  1.0000
  O   O23       1.0  0.4405145045560914  0.19111515236678395  0.7219137987522546  1.0000
  O   O24       1.0  0.2493311277660552  0.5307955542843316  0.8088637973278525  1.0000
