data_image0
_chemical_formula_structural       Zn4H52C72N20O2F4
_chemical_formula_sum              "Zn4 H52 C72 N20 O2 F4"
_cell_length_a       20.090512424935486
_cell_length_b       20.239675757801244
_cell_length_c       20.22525284705627
_cell_angle_alpha    105.32344579111862
_cell_angle_beta     108.74580419695646
_cell_angle_gamma    113.04613662087306

_space_group_name_H-M_alt    "P 1"
_space_group_IT_number       1

loop_
  _space_group_symop_operation_xyz
  'x, y, z'

loop_
  _atom_site_type_symbol
  _atom_site_label
  _atom_site_symmetry_multiplicity
  _atom_site_fract_x
  _atom_site_fract_y
  _atom_site_fract_z
  _atom_site_occupancy
  Zn  Zn1       1.0  0.40382884492522203  0.4002652202131358  0.49408069529356163  1.0000
  Zn  Zn2       1.0  0.6106319663960846  0.6091122626515216  0.4944799385359957  1.0000
  Zn  Zn3       1.0  0.410426043441781  0.5023206478979816  0.3904546324873194  1.0000
  Zn  Zn4       1.0  0.6045548082641828  0.5147959363282552  0.603934913883343  1.0000
  H   H1        1.0  0.6464799186591961  0.7792317139487609  0.48265804140619645  1.0000
  H   H2        1.0  0.4287251328473615  0.008102123759179796  0.3155182979752738  1.0000
  H   H3        1.0  0.7963744347384533  0.658099169468862  0.5141457695645142  1.0000
  H   H4        1.0  0.5317487528879141  0.042041528301751896  0.3346270181872768  1.0000
  H   H5        1.0  0.49870386502612973  0.9125598337088476  0.320878121836749  1.0000
  H   H6        1.0  0.480916396362602  0.08904758329470748  0.5278658420842034  1.0000
  H   H7        1.0  0.39977884757249166  0.021067189746112505  0.4315675296614642  1.0000
  H   H8        1.0  0.508117489932033  0.9899689496021223  0.5449986879725869  1.0000
  H   H9        1.0  0.6272889837553491  0.13781017047017494  0.552159179617341  1.0000
  H   H10       1.0  0.6407095179748907  0.024921073710039803  0.5367944532447737  1.0000
  H   H11       1.0  0.4113989294722413  0.9201816191311422  0.4608431515705575  1.0000
  H   H12       1.0  0.35623144182957833  0.6171829077994387  0.47073180476168347  1.0000
  H   H13       1.0  0.07096739002656703  0.4960799742065163  0.46464379660618244  1.0000
  H   H14       1.0  0.3918287978683139  0.3702308910559963  0.24248818675646078  1.0000
  H   H15       1.0  0.9575904722300093  0.4815169280546313  0.48359707298224913  1.0000
  H   H16       1.0  0.08433004927724148  0.5988020530919727  0.7024880112271815  1.0000
  H   H17       1.0  0.09761721826455266  0.4818289510884525  0.5888320838260482  1.0000
  H   H18       1.0  0.1766659938665356  0.5640307830340419  0.6795547817542626  1.0000
  H   H19       1.0  0.07757345293614293  0.7061786918907131  0.5825841148775908  1.0000
  H   H20       1.0  0.10886362645206302  0.7177749250271717  0.6791942653065988  1.0000
  H   H21       1.0  0.2028955875956271  0.7175026106866511  0.5989010489292568  1.0000
  H   H22       1.0  0.9742326185730547  0.565851044253229  0.46621765400276144  1.0000
  H   H23       1.0  0.6037058854945202  0.6358952380163743  0.7438955845354656  1.0000
  H   H24       1.0  0.22320136203731517  0.7069345591846171  0.6860868907118485  1.0000
  H   H25       1.0  0.4050381568328022  0.2890871983659481  0.14541472900170047  1.0000
  H   H26       1.0  0.41062504750041023  0.24913713759729456  0.021236417509676597  1.0000
  H   H27       1.0  0.3565664399566942  0.2279609294353619  0.8096927693757222  1.0000
  H   H28       1.0  0.3569868628619304  0.2618955057273736  0.7002699997585607  1.0000
  H   H29       1.0  0.6660106601193334  0.46432909640781617  0.26807973497305676  1.0000
  H   H30       1.0  0.6211116975271479  0.3632974089069521  0.9322175115876374  1.0000
  H   H31       1.0  0.6706785675995877  0.4211979184393116  0.14350023678799317  1.0000
  H   H32       1.0  0.6229379728142918  0.3955104304408721  0.8226648803994862  1.0000
  H   H33       1.0  0.6416617996146029  0.7538150471428647  0.8472744614229056  1.0000
  H   H34       1.0  0.612182729002612  0.7600906760502184  0.5989766202543407  1.0000
  H   H35       1.0  0.6577099251189438  0.5043188663864625  0.3850444920288324  1.0000
  H   H36       1.0  0.7382007332768126  0.8823429791021125  0.9678473809119194  1.0000
  H   H37       1.0  0.9298102348030711  0.0383550556330903  0.17384782873538274  1.0000
  H   H38       1.0  0.06983036166292318  0.14699217621843266  0.28173020590404  1.0000
  H   H39       1.0  0.6803978606700769  0.8804231156083945  0.708784688118854  1.0000
  H   H40       1.0  0.7747585896187632  0.008519502997423004  0.8296278620129982  1.0000
  H   H41       1.0  0.09702053688421587  0.2657693753198486  0.13404861405776805  1.0000
  H   H42       1.0  0.38481232113792163  0.2474115771361339  0.37820466246322576  1.0000
  H   H43       1.0  0.7917012166464658  0.5418716782681372  0.6653658875043431  1.0000
  H   H44       1.0  0.2188401170232126  0.3717853182932913  0.2348011901245498  1.0000
  H   H45       1.0  0.34685545087264563  0.48283013773802713  0.6060784451716756  1.0000
  H   H46       1.0  0.3623255339138113  0.3018816322360395  0.5996917301254002  1.0000
  H   H47       1.0  0.9685359227455449  0.4433672755358344  0.577895673719496  1.0000
  H   H48       1.0  0.896693191166996  0.10906420234143609  0.981765331907276  1.0000
  H   H49       1.0  0.6254520543713228  0.4629376820213267  0.7493259142435207  1.0000
  H   H50       1.0  0.3800750019634051  0.6445720879018136  0.35701623845687164  1.0000
  H   H51       1.0  0.6362616102593321  0.009999637520920103  0.44521210278887935  1.0000
  H   H52       1.0  0.6513487439703026  0.1373382876517653  0.4754374002109927  1.0000
  C   C1        1.0  0.2283732900499942  0.2831131762632069  0.3468985794835787  1.0000
  C   C2        1.0  0.35648618398392523  0.5105752918296246  0.5681676251060636  1.0000
  C   C3        1.0  0.5615647883335981  0.42867545719527556  0.7040918889874063  1.0000
  C   C4        1.0  0.7824236461289757  0.6290637724717314  0.5500704134049386  1.0000
  C   C5        1.0  0.44503858558454107  0.6651262978933089  0.38761331973658025  1.0000
  C   C6        1.0  0.49245032534851424  0.36597840610233584  0.6979610508668372  1.0000
  C   C7        1.0  0.5135240619168188  0.7436559568447267  0.42320707870280216  1.0000
  C   C8        1.0  0.3304547021734977  0.561558305401178  0.5493794815900443  1.0000
  C   C9        1.0  0.61882630730166  0.7305112822813626  0.7004634378047001  1.0000
  C   C10       1.0  0.6077255400289302  0.10096853579639738  0.49106609624657677  1.0000
  C   C11       1.0  0.48784010495216995  0.018746557687954604  0.3558155001462424  1.0000
  C   C12       1.0  0.826235497490039  0.6010844048961131  0.5921313992780526  1.0000
  C   C13       1.0  0.47526584041221304  0.9390274034659924  0.3554768586841774  1.0000
  C   C14       1.0  0.5145126365108865  0.8152370679351719  0.43030873187272073  1.0000
  C   C15       1.0  0.5200699128904063  0.08131282529378579  0.43912069989277563  1.0000
  C   C16       1.0  0.45588641171283933  0.40978289869178036  0.2872542786013809  1.0000
  C   C17       1.0  0.6066723630602906  0.022011402867548196  0.4803428774184511  1.0000
  C   C18       1.0  0.5167390654413282  0.9501111295862471  0.43973785651982655  1.0000
  C   C19       1.0  0.471986961232247  0.9729229259756238  0.4830002324735004  1.0000
  C   C20       1.0  0.4636781267480714  0.04261308089095909  0.4721716587508169  1.0000
  C   C21       1.0  0.5155672242884393  0.8773341549721466  0.4376200135373409  1.0000
  C   C22       1.0  0.520465721829609  0.1528785941368227  0.43793306903528156  1.0000
  C   C23       1.0  0.527869784264425  0.4180324353074952  0.28458909558536766  1.0000
  C   C24       1.0  0.5183487210718667  0.21229149054985186  0.43850619013807796  1.0000
  C   C25       1.0  0.0033461286659389453  0.5451044475609593  0.5050179773563102  1.0000
  C   C26       1.0  0.057654802723099835  0.5568780178459959  0.6410744671685646  1.0000
  C   C27       1.0  0.12385637878279003  0.546009734931843  0.6251347541530308  1.0000
  C   C28       1.0  0.5811772834973468  0.36219837652492975  0.5007584615137476  1.0000
  C   C29       1.0  0.2765281225725147  0.5810584830217137  0.5679323050003119  1.0000
  C   C30       1.0  0.02556410854687395  0.5943854362946936  0.5899026194290116  1.0000
  C   C31       1.0  0.08059495643289703  0.5540288796938386  0.4997006718204489  1.0000
  C   C32       1.0  0.15439561668740953  0.5945076856779891  0.5822847757929137  1.0000
  C   C33       1.0  0.17584570874900862  0.6813943978942021  0.6254413245198478  1.0000
  C   C34       1.0  0.5162852760858314  0.2828350627356571  0.4486498992879008  1.0000
  C   C35       1.0  0.09769264665128216  0.6811121890183499  0.6214863051114321  1.0000
  C   C36       1.0  0.22353169016545146  0.5909663477623966  0.577033709129438  1.0000
  C   C37       1.0  0.9551269134592033  0.5962168099893785  0.5929955091405645  1.0000
  C   C38       1.0  0.8965123176922135  0.6000234314717402  0.5940611649872948  1.0000
  C   C39       1.0  0.49007038061701286  0.3345349288818226  0.754753762194305  1.0000
  C   C40       1.0  0.5915964744307303  0.47874776867804053  0.35967340040067336  1.0000
  C   C41       1.0  0.5641010419659053  0.35920233817524405  0.8195958839857908  1.0000
  C   C42       1.0  0.5638275126367275  0.3409037415064091  0.8807443595861385  1.0000
  C   C43       1.0  0.4884479338762304  0.2958546122530592  0.8787731699356485  1.0000
  C   C44       1.0  0.41444481067028965  0.2642727494316546  0.8112137839484531  1.0000
  C   C45       1.0  0.42742686607326874  0.34702827981592327  0.6282050148062409  1.0000
  C   C46       1.0  0.41527515141237364  0.2836491054387764  0.7503593807314815  1.0000
  C   C47       1.0  0.466168171704787  0.2953909161893478  0.07594141782864483  1.0000
  C   C48       1.0  0.46361796341027883  0.31873875383602973  0.1454840771189154  1.0000
  C   C49       1.0  0.5408263498541217  0.33464391362159057  0.07451782307371238  1.0000
  C   C50       1.0  0.5344353738617612  0.38232021536563815  0.21586340022135886  1.0000
  C   C51       1.0  0.6099372189582297  0.415862683503839  0.21474363453894094  1.0000
  C   C52       1.0  0.44880322520572236  0.29284383094889677  0.42016574835430015  1.0000
  C   C53       1.0  0.6131646238469983  0.39222254792975514  0.14538390764123926  1.0000
  C   C54       1.0  0.09417713387441039  0.21462991594300715  0.215909616339566  1.0000
  C   C55       1.0  0.06121316098987252  0.2175112263739933  0.1450046348997063  1.0000
  C   C56       1.0  0.5811857867074224  0.7339930933297012  0.4515578024003729  1.0000
  C   C57       1.0  0.9819914146056449  0.15762950643934903  0.08469424531307367  1.0000
  C   C58       1.0  0.9338204497153412  0.0908056249188931  0.09492695002168718  1.0000
  C   C59       1.0  0.9673802017586226  0.08969170889390198  0.167310294106727  1.0000
  C   C60       1.0  0.04537185673802211  0.1499255839764118  0.2268634625072039  1.0000
  C   C61       1.0  0.7243695054665055  0.8810345285514105  0.9106817679982981  1.0000
  C   C62       1.0  0.6708745248821304  0.8094543478366064  0.8428633213270375  1.0000
  C   C63       1.0  0.7653398068557138  0.9531007539759813  0.9063764607750643  1.0000
  C   C64       1.0  0.7804102874369434  0.5703004104183265  0.6279412999984401  1.0000
  C   C65       1.0  0.656993121577557  0.8064165483277679  0.7687121725912789  1.0000
  C   C66       1.0  0.6915371000409039  0.8800450748852314  0.765086702285039  1.0000
  C   C67       1.0  0.36120207618494504  0.5791325912129395  0.49871563710681943  1.0000
  C   C68       1.0  0.7446102883063188  0.9521711449189636  0.8326288146266164  1.0000
  C   C69       1.0  0.23091868289425582  0.3491068591870672  0.27755038072201893  1.0000
  C   C70       1.0  0.17793595607071913  0.27728241261085157  0.2761483015553806  1.0000
  C   C71       1.0  0.6022246022188256  0.6553824199763909  0.6985839911587917  1.0000
  C   C72       1.0  0.6072521153762339  0.7189262806807335  0.6248784399603196  1.0000
  N   N1        1.0  0.30265396374682046  0.3498050332279448  0.3864029745286146  1.0000
  N   N2        1.0  0.5485124613218204  0.32875329759558264  0.006879857608659226  1.0000
  N   N3        1.0  0.8596651542411992  0.023211975400897696  0.036258009418375495  1.0000
  N   N4        1.0  0.7159157191411863  0.6153949426374153  0.559766905702318  1.0000
  N   N5        1.0  0.8318915741785347  0.025338908627766398  0.970381715503379  1.0000
  N   N6        1.0  0.47615833190641865  0.46250419682286986  0.35745035039945344  1.0000
  N   N7        1.0  0.5561227792303143  0.41456050249232135  0.504665043191892  1.0000
  N   N8        1.0  0.5594717523716997  0.5047862852459916  0.40205109594355554  1.0000
  N   N9        1.0  0.47300741787194767  0.3710690121644545  0.4542940028509861  1.0000
  N   N10       1.0  0.7146333898304178  0.5786416859074847  0.6081842714542062  1.0000
  N   N11       1.0  0.3041502364835367  0.3918173917542731  0.34252873089945984  1.0000
  N   N12       1.0  0.5550040835548841  0.6565088043864903  0.434784835279437  1.0000
  N   N13       1.0  0.4557593775334469  0.3944407283722313  0.5959574531656315  1.0000
  N   N14       1.0  0.40049162982828784  0.5400356269623003  0.4873968188099552  1.0000
  N   N15       1.0  0.5845014766349124  0.6049231990585611  0.6283148405894536  1.0000
  N   N16       1.0  0.5876532933727674  0.6440341720481796  0.5830191221032806  1.0000
  N   N17       1.0  0.3977216058148372  0.49810984275203635  0.5301463602228651  1.0000
  N   N18       1.0  0.5394498014823768  0.44543450708830784  0.6434843576592186  1.0000
  N   N19       1.0  0.47016423434180876  0.6136078956407687  0.3949522549827407  1.0000
  N   N20       1.0  0.48072597451843546  0.28745140614672954  0.9432982095106154  1.0000
  O   O1        1.0  0.9945150116840651  0.48418903719329615  0.6312755510020337  1.0000
  O   O2        1.0  0.9532279310032905  0.1620420013606604  0.01732764934957483  1.0000
  F   F1        1.0  0.21135260067713085  0.23091236630570214  0.377689743452457  1.0000
  F   F2        1.0  0.3894883358536347  0.8820773303158018  0.31932350581610774  1.0000
  F   F3        1.0  0.09988427620952928  0.6018943637302315  0.46068555471126865  1.0000
  F   F4        1.0  0.6601816112281824  0.38708246982389477  0.5453817524080548  1.0000
