data_image0
_chemical_formula_structural       Zn4H48C56N8O20
_chemical_formula_sum              "Zn4 H48 C56 N8 O20"
_cell_length_a       7.110389810757997
_cell_length_b       11.229191817306798
_cell_length_c       19.036022340255705
_cell_angle_alpha    90.0005549058676
_cell_angle_beta     89.9997861080569
_cell_angle_gamma    90.00165849323848

_space_group_name_H-M_alt    "P 1"
_space_group_IT_number       1

loop_
  _space_group_symop_operation_xyz
  'x, y, z'

loop_
  _atom_site_type_symbol
  _atom_site_label
  _atom_site_symmetry_multiplicity
  _atom_site_fract_x
  _atom_site_fract_y
  _atom_site_fract_z
  _atom_site_occupancy
  Zn  Zn1       1.0  0.11503824168538304  0.3255449664031431  0.16427204869324905  1.0000
  Zn  Zn2       1.0  0.3849528490727892  0.674448394976487  0.6642675590591269  1.0000
  Zn  Zn3       1.0  0.8849868572802323  0.8255502301235892  0.33573001346680104  1.0000
  Zn  Zn4       1.0  0.6150362241369082  0.1744551000943915  0.8357329845640964  1.0000
  H   H1        1.0  0.0472648250471721  0.054595507225947394  0.20293012504058797  1.0000
  H   H2        1.0  0.4527511771651973  0.9453949217489068  0.7029302576738207  1.0000
  H   H3        1.0  0.9527338403690139  0.5545996039645972  0.2970651232592588  1.0000
  H   H4        1.0  0.5472699550825696  0.4454024248634241  0.7970655427516677  1.0000
  H   H5        1.0  0.0058569715448229  0.8653430561869865  0.13739463636758842  1.0000
  H   H6        1.0  0.49416955953218894  0.13464986793371742  0.6373979236980676  1.0000
  H   H7        1.0  0.9941544739507081  0.36534379860851374  0.3625971486300231  1.0000
  H   H8        1.0  0.5058528566632816  0.6346592973169296  0.8625976627917429  1.0000
  H   H9        1.0  0.015228618717522102  0.872122594492012  0.0036245818000964014  1.0000
  H   H10       1.0  0.4847768064335157  0.1278717133884086  0.5036278425852815  1.0000
  H   H11       1.0  0.9847465699290655  0.3721173279601118  0.49636881821417245  1.0000
  H   H12       1.0  0.5152396748527224  0.6278861649204474  0.9963698061599121  1.0000
  H   H13       1.0  0.052429758021340006  0.06807272663535001  0.9439872861120481  1.0000
  H   H14       1.0  0.44756685141820185  0.9319242989225176  0.443986945634933  1.0000
  H   H15       1.0  0.947537581834169  0.5680656788436307  0.5560073915610461  1.0000
  H   H16       1.0  0.5524321636402051  0.4319368771864235  0.05600784951393933  1.0000
  H   H17       1.0  0.04949030080926061  0.23915234831510188  0.9023188866278817  1.0000
  H   H18       1.0  0.45051518195768375  0.7608448893360061  0.4023144048866812  1.0000
  H   H19       1.0  0.9505129770378248  0.7391397995693725  0.5976794030277832  1.0000
  H   H20       1.0  0.54950977626239  0.2608580922893324  0.09768098078419744  1.0000
  H   H21       1.0  0.02759351242610821  0.4475987055972154  0.8627844565352877  1.0000
  H   H22       1.0  0.4723983191195202  0.5523996692435132  0.362778219654267  1.0000
  H   H23       1.0  0.9724305325021663  0.9475782974010656  0.6372260654569362  1.0000
  H   H24       1.0  0.5275721184633753  0.05241578546135629  0.13721859201040595  1.0000
  H   H25       1.0  0.041131945825078696  0.6131751461414651  0.952652438160506  1.0000
  H   H26       1.0  0.4588462901690491  0.38682469188295704  0.4526436896474168  1.0000
  H   H27       1.0  0.9589176172962655  0.11316565565515899  0.5473645626747372  1.0000
  H   H28       1.0  0.5410522184038697  0.8868340879201925  0.047350845784301016  1.0000
  H   H29       1.0  0.0868570391336476  0.5568848045533485  0.08028039691465953  1.0000
  H   H30       1.0  0.4131307091589989  0.4431071891232887  0.5802724359265954  1.0000
  H   H31       1.0  0.913190954416976  0.05688766247538978  0.41973272540935386  1.0000
  H   H32       1.0  0.5867974968596599  0.9431199256716597  0.9197217754389871  1.0000
  H   H33       1.0  0.3388949348086571  0.3495588704814451  0.3137706375663926  1.0000
  H   H34       1.0  0.16109600219919432  0.6504485021021935  0.8137584281259652  1.0000
  H   H35       1.0  0.6611354795571032  0.8495611536230001  0.18623418950140558  1.0000
  H   H36       1.0  0.8388891623552084  0.1504461950739682  0.686241977233877  1.0000
  H   H37       1.0  0.6429543860101605  0.23211414316587306  0.3060820410593338  1.0000
  H   H38       1.0  0.8570352516820208  0.7678978281568192  0.8060707723622829  1.0000
  H   H39       1.0  0.3570678538735876  0.7321154236009305  0.19391895760726646  1.0000
  H   H40       1.0  0.14295949381237702  0.2678891074034695  0.6939287335244944  1.0000
  H   H41       1.0  0.6675119475918692  0.38407561996066164  0.32840697912183725  1.0000
  H   H42       1.0  0.8324816762573023  0.6159384960470788  0.8284027476445746  1.0000
  H   H43       1.0  0.3325228553342329  0.8840760862712216  0.17159279355691845  1.0000
  H   H44       1.0  0.16750613187248578  0.1159307527713977  0.6715969335994603  1.0000
  H   H45       1.0  0.4036319060232999  0.17762568362270056  0.23276630696004477  1.0000
  H   H46       1.0  0.09636972114006429  0.8223768079523524  0.7327588513339268  1.0000
  H   H47       1.0  0.5963850335821165  0.6776307691218547  0.2672391057445226  1.0000
  H   H48       1.0  0.9036275116749126  0.3223770078991492  0.7672420190169265  1.0000
  C   C1        1.0  0.04621593701866541  0.0537917672981081  0.14559514133084417  1.0000
  C   C2        1.0  0.4537978509192514  0.9462003996821268  0.6455963278422134  1.0000
  C   C3        1.0  0.9537855044099004  0.5537923642234829  0.3544001023275103  1.0000
  C   C4        1.0  0.5462134733677075  0.44620881707922405  0.8544005278716685  1.0000
  C   C5        1.0  0.0235711206785325  0.9480087688357844  0.10806468063347553  1.0000
  C   C6        1.0  0.4764444653327971  0.05198100600305369  0.6080690913676465  1.0000
  C   C7        1.0  0.9764230029251452  0.44801233517230804  0.3919265299008786  1.0000
  C   C8        1.0  0.5235769895456386  0.5519894571913113  0.8919275949046086  1.0000
  C   C9        1.0  0.02878792945134021  0.9531118829559729  0.034885538399578316  1.0000
  C   C10       1.0  0.47121998214600325  0.0468811529009514  0.5348888760655088  1.0000
  C   C11       1.0  0.9711909566970791  0.45311120179140835  0.465107802806081  1.0000
  C   C12       1.0  0.5287970207147269  0.5468891104711772  0.9651088314726555  1.0000
  C   C13       1.0  0.048713239682953706  0.0626336370791662  0.0011505983578957003  1.0000
  C   C14       1.0  0.45128939845874083  0.9373579588619091  0.5011512119532713  1.0000
  C   C15       1.0  0.9512590710994718  0.5626320872409424  0.49884627220257755  1.0000
  C   C16       1.0  0.5487173030775879  0.4373714458846437  0.9988466434852517  1.0000
  C   C17       1.0  0.06345717473086411  0.16529955697293272  0.04258601104473312  1.0000
  C   C18       1.0  0.43654362458175916  0.8346953852557703  0.5425865782574777  1.0000
  C   C19       1.0  0.9365310742124818  0.6652988430536269  0.45741040022632984  1.0000
  C   C20       1.0  0.5634555772363825  0.3347049059973557  0.9574106858354415  1.0000
  C   C21       1.0  0.0682671637365928  0.2872618320783786  0.012897908958777305  1.0000
  C   C22       1.0  0.4317283199792642  0.7127361888130108  0.512896204127394  1.0000
  C   C23       1.0  0.9317364977525388  0.7872561702552688  0.48710288203255214  1.0000
  C   C24       1.0  0.5682582820509765  0.21274450020161584  0.9871019334416791  1.0000
  C   C25       1.0  0.05209215281195871  0.3107393174684248  0.941040415659636  1.0000
  C   C26       1.0  0.44790730016715946  0.6892567695711165  0.4410371010025146  1.0000
  C   C27       1.0  0.9479186123760073  0.8107278716294816  0.5589609129362361  1.0000
  C   C28       1.0  0.5520890748233498  0.18927206121317405  0.05895892298358523  1.0000
  C   C29       1.0  0.042202397471299904  0.42878583145759563  0.9188129043004456  1.0000
  C   C30       1.0  0.45779306830078775  0.5712081125349471  0.41880889651140785  1.0000
  C   C31       1.0  0.9578207887350771  0.9287704765296072  0.5811927814657809  1.0000
  C   C32       1.0  0.5421740087721504  0.0712244749553506  0.08118749817352013  1.0000
  C   C33       1.0  0.050147526621351815  0.5200137107116731  0.9684327715104365  1.0000
  C   C34       1.0  0.4498432020686992  0.4799810411683012  0.4684245715992932  1.0000
  C   C35       1.0  0.9498907515560122  0.0200073597882522  0.5315768635712248  1.0000
  C   C36       1.0  0.5500919064488488  0.9799921268620935  0.031566823157177716  1.0000
  C   C37       1.0  0.07298026390542839  0.4902464192882475  0.038928613262697816  1.0000
  C   C38       1.0  0.4270093224609468  0.5097475726855905  0.5389215429481741  1.0000
  C   C39       1.0  0.9270523539556451  0.9902447001322018  0.46108227735445706  1.0000
  C   C40       1.0  0.5729342591741825  0.009757327560656401  0.9610733241545193  1.0000
  C   C41       1.0  0.39772751513464755  0.4696368307803595  0.23049409298966594  1.0000
  C   C42       1.0  0.10224460148853613  0.5303647329754143  0.7304849475213475  1.0000
  C   C43       1.0  0.6023041620402196  0.9696429523235609  0.2695124763802853  1.0000
  C   C44       1.0  0.8977210169704293  0.0303630807751176  0.7695173927668153  1.0000
  C   C45       1.0  0.4252574856182463  0.3470871395221522  0.2652010774846545  1.0000
  C   C46       1.0  0.07472551993499368  0.6529167705188713  0.7651889973480694  1.0000
  C   C47       1.0  0.5747671904605555  0.8470957527597348  0.23480741260677018  1.0000
  C   C48       1.0  0.9252611636603235  0.1529132774118267  0.7348129981841256  1.0000
  C   C49       1.0  0.6279869312525008  0.3233341178657056  0.2856899233046094  1.0000
  C   C50       1.0  0.8719972936190319  0.6766739592461449  0.7856823117861258  1.0000
  C   C51       1.0  0.37204087951829484  0.8233368956316623  0.21431055015244038  1.0000
  C   C52       1.0  0.1279932872969169  0.17666796745661628  0.7143182446188379  1.0000
  C   C53       1.0  0.7693919516621365  0.339461650258869  0.22644377991504436  1.0000
  C   C54       1.0  0.7305844530683531  0.6605374472556065  0.7264373145315945  1.0000
  C   C55       1.0  0.23062253141048217  0.8394627973785306  0.2735573117610387  1.0000
  C   C56       1.0  0.26940679773277754  0.16053857767786892  0.7735615729872055  1.0000
  N   N1        1.0  0.0671428155840204  0.1589827054753883  0.11349891410994674  1.0000
  N   N2        1.0  0.4328656818922241  0.8410125009569853  0.6134979466548958  1.0000
  N   N3        1.0  0.9328592088672708  0.6589807693700463  0.38649903672266833  1.0000
  N   N4        1.0  0.5671352147289425  0.3410227156320715  0.8864993538256488  1.0000
  N   N5        1.0  0.0814623272001072  0.37666770386179854  0.06019480313999992  1.0000
  N   N6        1.0  0.4185270372010735  0.6233275249436757  0.560189974306802  1.0000
  N   N7        1.0  0.9185552608002608  0.8766690447325797  0.4398128066803866  1.0000
  N   N8        1.0  0.5814414190351228  0.12333174623180548  0.9398097495455889  1.0000
  O   O1        1.0  0.2734141046773786  0.4783019947644503  0.18234968907852794  1.0000
  O   O2        1.0  0.22655570160830515  0.5216952228800196  0.6823398027299988  1.0000
  O   O3        1.0  0.7266193744943266  0.978308510201117  0.3176558795632759  1.0000
  O   O4        1.0  0.7734024892034983  0.021697416242830097  0.8176593357185954  1.0000
  O   O5        1.0  0.49302929290787034  0.5541203901297465  0.2553539830789476  1.0000
  O   O6        1.0  0.0069355323750173005  0.44588692159403825  0.7553476299055506  1.0000
  O   O7        1.0  0.507014355378729  0.054127191230804804  0.2446538701379312  1.0000
  O   O8        1.0  0.9930223343491137  0.9458828898735018  0.7446581544395418  1.0000
  O   O9        1.0  0.3515438309671239  0.25764421292065975  0.21944130933434286  1.0000
  O   O10       1.0  0.14843683938219956  0.7423553898004583  0.7194238676448139  1.0000
  O   O11       1.0  0.6484669170253808  0.7576522524085616  0.28056614025121024  1.0000
  O   O12       1.0  0.8515581465853757  0.24235396071302517  0.7805754911376683  1.0000
  O   O13       1.0  0.7208063037357989  0.3693942995659825  0.16592495291259016  1.0000
  O   O14       1.0  0.7791707329277884  0.6306144989510045  0.665918250407245  1.0000
  O   O15       1.0  0.2792067327088645  0.8693804036437953  0.3340784124133054  1.0000
  O   O16       1.0  0.22082337112143346  0.1306219568811287  0.834081515410546  1.0000
  O   O17       1.0  0.9424170679108459  0.31926158113079595  0.2452521576240018  1.0000
  O   O18       1.0  0.5575647656838713  0.6807217930761595  0.7452497163257309  1.0000
  O   O19       1.0  0.0575894613440369  0.81927616648494  0.2547430392250193  1.0000
  O   O20       1.0  0.44243162576118084  0.18072223053646752  0.754747711490538  1.0000
