data_image0
_chemical_formula_structural       K2H52PdC44S4N4O12
_chemical_formula_sum              "K2 H52 Pd1 C44 S4 N4 O12"
_cell_length_a       8.963956228511945
_cell_length_b       12.539526410801077
_cell_length_c       12.883115494858481
_cell_angle_alpha    115.2784780803943
_cell_angle_beta     103.47962417873956
_cell_angle_gamma    96.3919095895652

_space_group_name_H-M_alt    "P 1"
_space_group_IT_number       1

loop_
  _space_group_symop_operation_xyz
  'x, y, z'

loop_
  _atom_site_type_symbol
  _atom_site_label
  _atom_site_symmetry_multiplicity
  _atom_site_fract_x
  _atom_site_fract_y
  _atom_site_fract_z
  _atom_site_occupancy
  K   K1        1.0  0.9920256053309231  0.17861111741326144  0.11798084561388579  1.0000
  K   K2        1.0  0.007977291661624931  0.8213863820635295  0.8820125553519841  1.0000
  H   H1        1.0  0.5876544364776352  0.44449581452764875  0.33896859240361715  1.0000
  H   H2        1.0  0.4123496036040564  0.5555062132050141  0.661040849922273  1.0000
  H   H3        1.0  0.8576324051410325  0.47302399712857834  0.46413061247911697  1.0000
  H   H4        1.0  0.1423609378767026  0.5269726162297346  0.5358654393750582  1.0000
  H   H5        1.0  0.0406015106961988  0.42621533005210926  0.6080580919098252  1.0000
  H   H6        1.0  0.959403152263782  0.5737803481461227  0.3919325305419932  1.0000
  H   H7        1.0  0.9367802869306132  0.289462726912852  0.6806997755386701  1.0000
  H   H8        1.0  0.06323342181575956  0.7105401923399911  0.31930160381707395  1.0000
  H   H9        1.0  0.6446862323639593  0.21218042661917744  0.6247326059879084  1.0000
  H   H10       1.0  0.355329588172495  0.7878224774100816  0.3752776688487173  1.0000
  H   H11       1.0  0.373217108017819  0.2076826353093608  0.5227836867031426  1.0000
  H   H12       1.0  0.6267801499222115  0.7923157801745261  0.47721844008084696  1.0000
  H   H13       1.0  0.11001937334560102  0.2273301042087042  0.5070052034870328  1.0000
  H   H14       1.0  0.889976816111016  0.7726646814167637  0.4929913578617046  1.0000
  H   H15       1.0  0.143119087671316  0.0946345781064082  0.3972770514214402  1.0000
  H   H16       1.0  0.8568800181574687  0.9053620199572808  0.6027184310757432  1.0000
  H   H17       1.0  0.8583171017265697  0.0805466483663579  0.3870576928859747  1.0000
  H   H18       1.0  0.1416803036718477  0.9194517740625799  0.612937475507067  1.0000
  H   H19       1.0  0.8589737355667139  0.20201573975353432  0.34855502206951167  1.0000
  H   H20       1.0  0.14102599461723747  0.7979826774835533  0.6514389907952775  1.0000
  H   H21       1.0  0.6800951491513274  0.07608700119356371  0.14589815400857015  1.0000
  H   H22       1.0  0.3199048686338131  0.923912324472724  0.854096283771838  1.0000
  H   H23       1.0  0.6578021657231546  0.9626776322432138  0.19437393080990276  1.0000
  H   H24       1.0  0.34219497285457834  0.03732351961257051  0.8056215437850509  1.0000
  H   H25       1.0  0.771728651730477  0.8320709500550906  0.034403611046286614  1.0000
  H   H26       1.0  0.22826733644252067  0.1679265680839208  0.9655901638861618  1.0000
  H   H27       1.0  0.5814142240438899  0.8511383116201829  0.9783793357158215  1.0000
  H   H28       1.0  0.41858320213503214  0.14886374866479465  0.021616563794758337  1.0000
  H   H29       1.0  0.6004305699411105  0.04084581598660011  0.9398471806191535  1.0000
  H   H30       1.0  0.3995665030995638  0.9591553327825012  0.060151386593993675  1.0000
  H   H31       1.0  0.5575115693081045  0.8898877556150283  0.8167661373637712  1.0000
  H   H32       1.0  0.4424843249555294  0.11011339497832039  0.18323378076804883  1.0000
  H   H33       1.0  0.7894963028965025  0.9611671708948394  0.7618628077917221  1.0000
  H   H34       1.0  0.21049706090174422  0.03883308031951321  0.23813397517998414  1.0000
  H   H35       1.0  0.628989153193281  0.03215847345943961  0.7473116337262764  1.0000
  H   H36       1.0  0.37100792424362794  0.9678463123940306  0.25268843775894834  1.0000
  H   H37       1.0  0.8007225500377116  0.2034465991045522  0.7710398967240335  1.0000
  H   H38       1.0  0.19927335621395778  0.7965509151760986  0.22895774398116234  1.0000
  H   H39       1.0  0.9769802771261381  0.1502090556166493  0.796401640418807  1.0000
  H   H40       1.0  0.023017350336402728  0.8497902721547914  0.2035970455080615  1.0000
  H   H41       1.0  0.02784168050172304  0.37819885550743493  0.893998744613718  1.0000
  H   H42       1.0  0.9721554372955054  0.6217986584923096  0.10599599886369757  1.0000
  H   H43       1.0  0.8975268622064121  0.3732114714446623  0.9796384502135705  1.0000
  H   H44       1.0  0.10246911397855032  0.6267896830070471  0.020357602145502134  1.0000
  H   H45       1.0  0.10444842193000882  0.4801499773956337  0.1716612047264263  1.0000
  H   H46       1.0  0.8955480431397618  0.5198493529717255  0.8283380589645687  1.0000
  H   H47       1.0  0.23235590622518743  0.5010268632079544  0.0900616887207093  1.0000
  H   H48       1.0  0.7676382832118377  0.4989724746662675  0.9099364110348984  1.0000
  H   H49       1.0  0.4004352222922236  0.37994218112464034  0.1550484359909703  1.0000
  H   H50       1.0  0.5995632843581333  0.6200598727060581  0.8449507515282233  1.0000
  H   H51       1.0  0.3963403148353208  0.5203457313517889  0.27479253849865154  1.0000
  H   H52       1.0  0.6036573661762574  0.47965723581904024  0.7252053322366476  1.0000
  Pd  Pd1       1.0  0.5000044880173959  0.5000007565351654  4.850276937549997e-06  1.0000
  C   C1        1.0  0.3790982269621352  0.3480827174983787  0.3451080587183951  1.0000
  C   C2        1.0  0.6209050857863686  0.6519202282044533  0.6548954278963065  1.0000
  C   C3        1.0  0.5398256853119108  0.3915742761088909  0.3773450492655783  1.0000
  C   C4        1.0  0.4601746782958785  0.6084268556123719  0.6226610625097776  1.0000
  C   C5        1.0  0.64653192516527  0.3688829595941243  0.46168121379432137  1.0000
  C   C6        1.0  0.3534661747978091  0.6311145433213028  0.5383214566190161  1.0000
  C   C7        1.0  0.8119898906192802  0.41572251649773057  0.4992631185265707  1.0000
  C   C8        1.0  0.18800595009532378  0.5842749946962301  0.5007376147968259  1.0000
  C   C9        1.0  0.9134279192989966  0.3893776324095839  0.5787211825347498  1.0000
  C   C10       1.0  0.0865760253964609  0.6106198590695797  0.4212770527488416  1.0000
  C   C11       1.0  0.8538802133833556  0.31310909425960193  0.6221304356741583  1.0000
  C   C12       1.0  0.14612825420529432  0.686892017746864  0.3778731780613925  1.0000
  C   C13       1.0  0.692751969266588  0.26911923811459104  0.5898872321052478  1.0000
  C   C14       1.0  0.3072579111512469  0.7308791410974323  0.4101162708188184  1.0000
  C   C15       1.0  0.5853275745828482  0.297408360018487  0.511166004320401  1.0000
  C   C16       1.0  0.41467506026145173  0.7025891271115512  0.48883976711826443  1.0000
  C   C17       1.0  0.418967604011698  0.25692290666042794  0.4801981751010941  1.0000
  C   C18       1.0  0.5810333795550306  0.7430764071498716  0.5198049627697755  1.0000
  C   C19       1.0  0.3174208588905715  0.2809003040365213  0.39893464439046505  1.0000
  C   C20       1.0  0.6825824166931582  0.7190990030385863  0.6010688842612524  1.0000
  C   C21       1.0  0.08789808570072215  0.17157015689413416  0.4096066569125653  1.0000
  C   C22       1.0  0.9120998741195621  0.8284264445371435  0.590388630194191  1.0000
  C   C23       1.0  0.9133194543343635  0.1259353273126393  0.34360540629337777  1.0000
  C   C24       1.0  0.08667911345682464  0.8740630925203805  0.6563891843355308  1.0000
  C   C25       1.0  0.7254614603918556  0.9991745369335806  0.15034458862601252  1.0000
  C   C26       1.0  0.27453592862229204  0.0008238847236868003  0.849651352921583  1.0000
  C   C27       1.0  0.7069904144423447  0.8987481687264136  0.025943544683777194  1.0000
  C   C28       1.0  0.2930084245657624  0.1012511587641214  0.9740522440153111  1.0000
  C   C29       1.0  0.6519685228889925  0.972283583210668  0.8813489910535777  1.0000
  C   C30       1.0  0.34802914173831573  0.027719383188490095  0.11864965283627528  1.0000
  C   C31       1.0  0.7247307354189942  0.0231124352475831  0.812724249839057  1.0000
  C   C32       1.0  0.2752652079974355  0.9768887176607849  0.18727334882912322  1.0000
  C   C33       1.0  0.8956787723352093  0.19918004534239497  0.840158067464969  1.0000
  C   C34       1.0  0.10431740513337934  0.8008183765957713  0.15984077131039967  1.0000
  C   C35       1.0  0.9806577110162635  0.32709643727087473  0.9358016659779762  1.0000
  C   C36       1.0  0.019337353212350267  0.672901989578236  0.06419543109787183  1.0000
  C   C37       1.0  0.1865719002422779  0.43991674482494864  0.12283237421819851  1.0000
  C   C38       1.0  0.8134225767959364  0.5600835014784736  0.8771661504530286  1.0000
  C   C39       1.0  0.32557266959079817  0.42894140476593645  0.2060695909722909  1.0000
  C   C40       1.0  0.6744246910510582  0.5710606524323579  0.7939294011564824  1.0000
  C   C41       1.0  0.7230521926259003  0.3874180238949095  0.1512139319715686  1.0000
  C   C42       1.0  0.27695811553591915  0.6125821652304495  0.8487973791746979  1.0000
  C   C43       1.0  0.3571552607197646  0.22978425543338685  0.765099828626674  1.0000
  C   C44       1.0  0.6428450865037615  0.7702168755162048  0.2349070563032284  1.0000
  S   S1        1.0  0.7075743540299442  0.5228633360907509  0.16427898279317793  1.0000
  S   S2        1.0  0.2924351121088193  0.4771377656030752  0.8357317847237482  1.0000
  S   S3        1.0  0.5127015682278895  0.29779787377926686  0.8891702754706113  1.0000
  S   S4        1.0  0.4873059546358789  0.7022005090812585  0.11083592929080777  1.0000
  N   N1        1.0  0.7407066155769539  0.2951831118475  0.15045588977135083  1.0000
  N   N2        1.0  0.25929778963101313  0.704816191088348  0.8495486074253334  1.0000
  N   N3        1.0  0.24809354866233949  0.1754214256843269  0.6761233351055791  1.0000
  N   N4        1.0  0.751905534667273  0.8245906137125943  0.3238940524865442  1.0000
  O   O1        1.0  0.26798218438492677  0.36364349296935217  0.26332156433335285  1.0000
  O   O2        1.0  0.7320176739537986  0.6363594620645827  0.7366821092646346  1.0000
  O   O3        1.0  0.15608401650167278  0.2426616248090171  0.36098763659379773  1.0000
  O   O4        1.0  0.8439184662118037  0.7573385971495769  0.639013028964925  1.0000
  O   O5        1.0  0.8896409860974186  0.041005254663893716  0.21984492980863723  1.0000
  O   O6        1.0  0.11035844010108786  0.9589922533723368  0.7801494312950723  1.0000
  O   O7        1.0  0.7701206994672489  0.9420922598921422  0.9536611824902292  1.0000
  O   O8        1.0  0.22987611874076916  0.05790798199110009  0.046335413498198384  1.0000
  O   O9        1.0  0.8285458854175971  0.13852067624497272  0.8963724259968726  1.0000
  O   O10       1.0  0.1714528880534445  0.8614786481588794  0.1036264553204092  1.0000
  O   O11       1.0  0.10726305662679891  0.3224023364940436  0.023681840558893448  1.0000
  O   O12       1.0  0.8927317243968672  0.6775988190102424  0.9763163358734129  1.0000
