data_image0
_chemical_formula_structural       Ag4H24C32N20O4
_chemical_formula_sum              "Ag4 H24 C32 N20 O4"
_cell_length_a       7.188134624271635
_cell_length_b       9.895259260178847
_cell_length_c       12.760664316579996
_cell_angle_alpha    90.00050162795179
_cell_angle_beta     106.98155550650769
_cell_angle_gamma    90.00030343072231

_space_group_name_H-M_alt    "P 1"
_space_group_IT_number       1

loop_
  _space_group_symop_operation_xyz
  'x, y, z'

loop_
  _atom_site_type_symbol
  _atom_site_label
  _atom_site_symmetry_multiplicity
  _atom_site_fract_x
  _atom_site_fract_y
  _atom_site_fract_z
  _atom_site_occupancy
  Ag  Ag1       1.0  0.041545379766581896  0.15644933749114645  0.1068235812153873  1.0000
  Ag  Ag2       1.0  0.9584530445585313  0.6564487015344728  0.393178815445104  1.0000
  Ag  Ag3       1.0  0.9584541093432576  0.8435481898166941  0.8931778443626542  1.0000
  Ag  Ag4       1.0  0.04154498997349519  0.34355286810899344  0.6068223694909847  1.0000
  H   H1        1.0  0.10349894093099009  0.48425306596533374  0.8531103795109516  1.0000
  H   H2        1.0  0.8964989219469215  0.9842524430019566  0.64688979933846  1.0000
  H   H3        1.0  0.896504906988156  0.515745471948698  0.14689333454161613  1.0000
  H   H4        1.0  0.10349911758720509  0.015749126632677204  0.35310981910637196  1.0000
  H   H5        1.0  0.3379610356925227  0.5503229587573203  0.2140856449876196  1.0000
  H   H6        1.0  0.6620404875986523  0.050318893272219604  0.2859181127168071  1.0000
  H   H7        1.0  0.6620428097675628  0.44968265325572804  0.7859188523414815  1.0000
  H   H8        1.0  0.33795609981072516  0.9496786340140917  0.7140804818051123  1.0000
  H   H9        1.0  0.46985891558833254  0.7836342347437296  0.2690307030677204  1.0000
  H   H10       1.0  0.5301512107152745  0.2836270234829286  0.23097135663502394  1.0000
  H   H11       1.0  0.5301507607842096  0.21637137726377637  0.7309708406717093  1.0000
  H   H12       1.0  0.4698512076065597  0.7163705037978405  0.7690242842972309  1.0000
  H   H13       1.0  0.4963784997321453  0.9456625865303826  0.12672955130567232  1.0000
  H   H14       1.0  0.5036277391126092  0.44565890251639234  0.3732706119613169  1.0000
  H   H15       1.0  0.5036311866145979  0.0543379725347322  0.8732688594291744  1.0000
  H   H16       1.0  0.49637322210037366  0.5543376141797155  0.6267255715525337  1.0000
  H   H17       1.0  0.41132533048725145  0.8736092284310646  0.930996991659974  1.0000
  H   H18       1.0  0.5886726710295206  0.37360546415046514  0.5690032441928494  1.0000
  H   H19       1.0  0.5886828987446362  0.1263893094644573  0.06900196165204159  1.0000
  H   H20       1.0  0.41132392639004683  0.6263930737031062  0.4309922173509761  1.0000
  H   H21       1.0  0.29292751352326707  0.642597071786888  0.8783199683421117  1.0000
  H   H22       1.0  0.7070648289620322  0.1425933443215257  0.6216801171725734  1.0000
  H   H23       1.0  0.7070734327014205  0.35740247669055253  0.1216809146587465  1.0000
  H   H24       1.0  0.2929259475432743  0.8574041829349781  0.3783151649739906  1.0000
  C   C1        1.0  0.35471467656913086  0.6230342341541473  0.1533295977656266  1.0000
  C   C2        1.0  0.6452877223441289  0.1230247274249976  0.3466708790920591  1.0000
  C   C3        1.0  0.645289176412092  0.37697440960046447  0.8466725498398374  1.0000
  C   C4        1.0  0.35470887506343723  0.8769717892586901  0.6533245824429343  1.0000
  C   C5        1.0  0.42441329866708327  0.7528118339196654  0.18335818397278558  1.0000
  C   C6        1.0  0.5755935500426331  0.25280475345677905  0.31664390830787426  1.0000
  C   C7        1.0  0.5755963752044053  0.24719377809225315  0.816644143012276  1.0000
  C   C8        1.0  0.42440450197273794  0.7471927738159894  0.6833517938911483  1.0000
  C   C9        1.0  0.4422319584440828  0.8439681977586273  0.1031359801635432  1.0000
  C   C10       1.0  0.5577672547851407  0.3439639765309367  0.39686233178146313  1.0000
  C   C11       1.0  0.5577762683107534  0.1560343824810673  0.8968637564117685  1.0000
  C   C12       1.0  0.4422264334248211  0.6560335507294184  0.6031326484387165  1.0000
  C   C13       1.0  0.3917967641342556  0.8046249945094888  0.9934372567065495  1.0000
  C   C14       1.0  0.6082004184610241  0.3046185783492846  0.5065623762991791  1.0000
  C   C15       1.0  0.608212914709341  0.19537556456889155  0.006563503765178769  1.0000
  C   C16       1.0  0.39179326974893763  0.6953789489110705  0.4934326039209934  1.0000
  C   C17       1.0  0.32311280427812505  0.6739115945406626  0.9633226345804856  1.0000
  C   C18       1.0  0.6768842787342351  0.17390578098081028  0.5366768800622594  1.0000
  C   C19       1.0  0.6768881394635075  0.3260909856960268  0.036679031679248957  1.0000
  C   C20       1.0  0.3231064977770755  0.8260927568606321  0.46331840208872416  1.0000
  C   C21       1.0  0.30333533195183543  0.5822361992496357  0.043084043829232095  1.0000
  C   C22       1.0  0.6966636659953449  0.0822352082526479  0.4569179449597555  1.0000
  C   C23       1.0  0.6966685184923519  0.4177663809997443  0.9569188869953676  1.0000
  C   C24       1.0  0.3033314668362195  0.9177663613692886  0.5430804089202113  1.0000
  C   C25       1.0  0.24062607351090287  0.43932407248379246  0.018744469000466776  1.0000
  C   C26       1.0  0.7593640994337745  0.9393135648990596  0.48124985860775377  1.0000
  C   C27       1.0  0.7593719460148379  0.5606774971861912  0.981261415409385  1.0000
  C   C28       1.0  0.24061940405052698  0.060681941166862416  0.5187442202318948  1.0000
  C   C29       1.0  0.0877768501181819  0.27874060057364153  0.8740629605363494  1.0000
  C   C30       1.0  0.9122316595584435  0.7787408116191943  0.6259391548238254  1.0000
  C   C31       1.0  0.9122284649080044  0.7212579373224346  0.1259370779476896  1.0000
  C   C32       1.0  0.0877678245672868  0.221259747452308  0.37406383725871717  1.0000
  N   N1        1.0  0.14421885649964844  0.4078471871696793  0.9112724101087081  1.0000
  N   N2        1.0  0.8557780994019736  0.9078518151336895  0.5887271010722728  1.0000
  N   N3        1.0  0.8557835368116924  0.5921503401552786  0.0887310632798162  1.0000
  N   N4        1.0  0.1442141242499773  0.09215379681973701  0.4112707715061177  1.0000
  N   N5        1.0  0.04529621918823779  0.2436928306146839  0.7672927257268825  1.0000
  N   N6        1.0  0.9547031443236589  0.7436923888456665  0.7327084226448901  1.0000
  N   N7        1.0  0.95470471703225  0.7563067178804348  0.23271129025648918  1.0000
  N   N8        1.0  0.04529344560475579  0.25630817019104774  0.2672893886446488  1.0000
  N   N9        1.0  0.9966716727708514  0.11205583184496255  0.7634307821663525  1.0000
  N   N10       1.0  0.0033304919039238994  0.6120568515938347  0.7365699378487207  1.0000
  N   N11       1.0  0.0033292709587868998  0.8879447272218433  0.23657088408454996  1.0000
  N   N12       1.0  0.9966704568398013  0.38794572863401566  0.26343016191976426  1.0000
  N   N13       1.0  0.008749348175513198  0.06992726051742443  0.8625601884137026  1.0000
  N   N14       1.0  0.9912537709882727  0.5699268928432917  0.6374404041041472  1.0000
  N   N15       1.0  0.9912530476488753  0.9300722879729905  0.13744250173802902  1.0000
  N   N16       1.0  0.008747177749455697  0.43007467679962025  0.3625596956599182  1.0000
  N   N17       1.0  0.0659887650691076  0.17184931187238567  0.9348550361977033  1.0000
  N   N18       1.0  0.9340126497965143  0.6718489194532113  0.5651475321627116  1.0000
  N   N19       1.0  0.934016537445842  0.8281482154608427  0.06514891851006145  1.0000
  N   N20       1.0  0.0659810259202018  0.3281506289991185  0.4348513642944383  1.0000
  O   O1        1.0  0.27727892571726187  0.3537441871621142  0.0930791276412108  1.0000
  O   O2        1.0  0.7227174718716894  0.8537438163618489  0.40692583764189283  1.0000
  O   O3        1.0  0.7227118183104079  0.6462594036614818  0.9069263367250073  1.0000
  O   O4        1.0  0.27726454952326657  0.14625573208831366  0.5930766162577044  1.0000
