data_image0
_chemical_formula_structural       K4H20C32O16
_chemical_formula_sum              "K4 H20 C32 O16"
_cell_length_a       6.4258849960029965
_cell_length_b       9.571415945003416
_cell_length_c       13.282438601001994
_cell_angle_alpha    89.99997910316843
_cell_angle_beta     90.00005893494516
_cell_angle_gamma    90.00009418157643

_space_group_name_H-M_alt    "P 1"
_space_group_IT_number       1

loop_
  _space_group_symop_operation_xyz
  'x, y, z'

loop_
  _atom_site_type_symbol
  _atom_site_label
  _atom_site_symmetry_multiplicity
  _atom_site_fract_x
  _atom_site_fract_y
  _atom_site_fract_z
  _atom_site_occupancy
  K   K1        1.0  0.32214088798752977  0.9025875195624311  0.4623676169102425  1.0000
  K   K2        1.0  0.8221395905113908  0.09741119090463  0.5376341459844698  1.0000
  K   K3        1.0  0.3221419103584325  0.40258937825948493  0.5376332291619621  1.0000
  K   K4        1.0  0.8221494615822635  0.597412466546821  0.46236552223984273  1.0000
  H   H1        1.0  0.316623718316805  0.26347300486743563  0.8043493293681581  1.0000
  H   H2        1.0  0.8166232605103901  0.7365277890880506  0.1956509250465643  1.0000
  H   H3        1.0  0.31662368235229366  0.7634733705970548  0.19565079769250104  1.0000
  H   H4        1.0  0.8166232964749014  0.2365274233584387  0.8043494567222214  1.0000
  H   H5        1.0  0.1630279246110433  0.253518237228633  0.9751477482702102  1.0000
  H   H6        1.0  0.6630271263757664  0.7464823878123568  0.024852430077608307  1.0000
  H   H7        1.0  0.16302752375845841  0.7535176445485946  0.024852305342285805  1.0000
  H   H8        1.0  0.6630259710211917  0.24648193571403712  0.9751478730052913  1.0000
  H   H9        1.0  0.9583210021543638  0.04454983217642901  0.028761516282145308  1.0000
  H   H10       1.0  0.458320404229795  0.9554500728308074  0.9712380554330838  1.0000
  H   H11       1.0  0.9583195107115471  0.5445498057120589  0.9712382332874585  1.0000
  H   H12       1.0  0.4583187832603741  0.4554490545157818  0.028762091300933403  1.0000
  H   H13       1.0  0.9088355806871746  0.8470630292878526  0.9083702075937129  1.0000
  H   H14       1.0  0.4088373567006585  0.15293682129995292  0.09162933961492573  1.0000
  H   H15       1.0  0.9088356502326603  0.34706302396084965  0.0916294378917542  1.0000
  H   H16       1.0  0.40883573095009496  0.6529368266259113  0.908370862190296  1.0000
  H   H17       1.0  0.023562477026288803  0.6168573626969335  0.7135955440542078  1.0000
  H   H18       1.0  0.5235613448573417  0.3831420641916665  0.2864045652247711  1.0000
  H   H19       1.0  0.0235614064748688  0.1168572588770544  0.2864044764383423  1.0000
  H   H20       1.0  0.5235608592028882  0.8831421680106855  0.7135956328402457  1.0000
  C   C1        1.0  0.09227878491709872  0.9410173607148095  0.7912378875033073  1.0000
  C   C2        1.0  0.5922798028484025  0.05898318652203473  0.20876225580714453  1.0000
  C   C3        1.0  0.09227910469879672  0.44101729615748303  0.20876132887525506  1.0000
  C   C4        1.0  0.5922794830659086  0.5589832510795605  0.7912380615613942  1.0000
  C   C5        1.0  0.2061857153328859  0.059557462186894804  0.7611306084514313  1.0000
  C   C6        1.0  0.7061858508647916  0.9404432103166442  0.23886959127009535  1.0000
  C   C7        1.0  0.2061857716995448  0.5595588508397357  0.23886876468277768  1.0000
  C   C8        1.0  0.7061842382914564  0.44044182166313556  0.7611306821645629  1.0000
  C   C9        1.0  0.22893142926727714  0.1716182026929047  0.827751648881005  1.0000
  C   C10       1.0  0.7289311471456585  0.8283824948247941  0.17224780923120875  1.0000
  C   C11       1.0  0.22893289951205992  0.6716185802574515  0.17224770604024545  1.0000
  C   C12       1.0  0.7289312331067493  0.328382117261107  0.8277517520723594  1.0000
  C   C13       1.0  0.14228820620566296  0.16563677956030182  0.923925985827218  1.0000
  C   C14       1.0  0.6422877333156337  0.8343627778954144  0.07607342937587452  1.0000
  C   C15       1.0  0.1422879147824361  0.6656372057563973  0.07607408063159943  1.0000
  C   C16       1.0  0.6422880247396634  0.3343623516991273  0.9239260874452954  1.0000
  C   C17       1.0  0.027746673421631795  0.048748047337923595  0.9539061603598925  1.0000
  C   C18       1.0  0.5277464236713102  0.9512513841528476  0.0460931981176813  1.0000
  C   C19       1.0  0.027744761743285603  0.5487484886934694  0.046093127247189614  1.0000
  C   C20       1.0  0.5277452229378952  0.4512509427955962  0.9539062312296097  1.0000
  C   C21       1.0  0.0022803848138935  0.9373532522309063  0.8873971658379533  1.0000
  C   C22       1.0  0.5022812063154518  0.0626461512541567  0.11260293290175133  1.0000
  C   C23       1.0  0.0022804991669076  0.43735428107586943  0.11260275980722413  1.0000
  C   C24       1.0  0.5022795357578431  0.5626461671858325  0.8873973389319617  1.0000
  C   C25       1.0  0.06267952680517651  0.8220736234779197  0.719901597683311  1.0000
  C   C26       1.0  0.5626794331657833  0.1779258464297371  0.2800977780944578  1.0000
  C   C27       1.0  0.0626799989867948  0.32207352284788726  0.2800976353251842  1.0000
  C   C28       1.0  0.5626805171900388  0.6779259470606293  0.7199017404529684  1.0000
  C   C29       1.0  0.30959238702477165  0.06933979643539347  0.6595702160033456  1.0000
  C   C30       1.0  0.8095927154905097  0.9306599450104399  0.3404300349295114  1.0000
  C   C31       1.0  0.30959421656551456  0.5693400889554284  0.34042920576932545  1.0000
  C   C32       1.0  0.8095924421553208  0.43066069726914696  0.6595695394161822  1.0000
  O   O1        1.0  0.051977396017456115  0.699091802178998  0.7649430390647824  1.0000
  O   O2        1.0  0.551977508312831  0.300907655959101  0.2350570842867158  1.0000
  O   O3        1.0  0.051977771975231214  0.19909172432492284  0.2350569738682324  1.0000
  O   O4        1.0  0.5519771323550487  0.8009077338131761  0.7649431494832585  1.0000
  O   O5        1.0  0.05006640125392891  0.8398829171509805  0.6274163162151184  1.0000
  O   O6        1.0  0.5500664614428814  0.1601175836628173  0.3725845590636184  1.0000
  O   O7        1.0  0.0500670710180913  0.3398827697536149  0.37258365873589133  1.0000
  O   O8        1.0  0.5500673478829867  0.6601177310614121  0.6274157107956384  1.0000
  O   O9        1.0  0.22833979162371074  0.14728225917431104  0.5941635215323589  1.0000
  O   O10       1.0  0.7283400683209109  0.8527173929155584  0.405835936287133  1.0000
  O   O11       1.0  0.22834331710419783  0.6472846081761149  0.4058350866240091  1.0000
  O   O12       1.0  0.7283396552552261  0.35271817824814633  0.5941636183220355  1.0000
  O   O13       1.0  0.47858813649110493  0.999948284690589  0.6456803667453813  1.0000
  O   O14       1.0  0.9785893205967043  5.26873833664e-05  0.3543199678810397  1.0000
  O   O15       1.0  0.4785918796473538  0.4999471017530014  0.3543197783219371  1.0000
  O   O16       1.0  0.9785886898509233  0.5000528255451684  0.6456805563053936  1.0000
