data_image0
_chemical_formula_structural       Cd4H56C88N16O16
_chemical_formula_sum              "Cd4 H56 C88 N16 O16"
_cell_length_a       7.954328401541726
_cell_length_b       18.821315997803918
_cell_length_c       19.085367601113596
_cell_angle_alpha    89.99963813062035
_cell_angle_beta     90.00022822701801
_cell_angle_gamma    100.34603888070494

_space_group_name_H-M_alt    "P 1"
_space_group_IT_number       1

loop_
  _space_group_symop_operation_xyz
  'x, y, z'

loop_
  _atom_site_type_symbol
  _atom_site_label
  _atom_site_symmetry_multiplicity
  _atom_site_fract_x
  _atom_site_fract_y
  _atom_site_fract_z
  _atom_site_occupancy
  Cd  Cd1       1.0  0.30075238004693006  0.9946866074796004  0.060409394652964486  1.0000
  Cd  Cd2       1.0  0.6992527632759431  0.5053141880479259  0.5604079177898171  1.0000
  Cd  Cd3       1.0  0.6992767477452022  0.0053134903459053  0.9395874012936501  1.0000
  Cd  Cd4       1.0  0.3007544215404181  0.4946875271946353  0.439589926056449  1.0000
  H   H1        1.0  0.8577543163681298  0.29617937090925744  0.43277689588776264  1.0000
  H   H2        1.0  0.14225896922236103  0.20381520349010168  0.9327763815965114  1.0000
  H   H3        1.0  0.14225001329466377  0.7038245042193978  0.5672251396422539  1.0000
  H   H4        1.0  0.8577545018335755  0.7961865125334667  0.067226177909582  1.0000
  H   H5        1.0  0.803840485110605  0.199808514831382  0.34051851470471917  1.0000
  H   H6        1.0  0.1961663351606617  0.3001876792408638  0.8405169649658857  1.0000
  H   H7        1.0  0.1961681861099933  0.8001937406486094  0.6594845687572429  1.0000
  H   H8        1.0  0.8038450796871146  0.6998151166539373  0.1594850705734814  1.0000
  H   H9        1.0  0.4788435268958794  0.397874573245268  0.3319518968279311  1.0000
  H   H10       1.0  0.5211373957793697  0.1021141068434304  0.8319421786628779  1.0000
  H   H11       1.0  0.5211577123741195  0.6021249809877317  0.6680454230584586  1.0000
  H   H12       1.0  0.47885218154301157  0.8978816654611849  0.1680551412254943  1.0000
  H   H13       1.0  0.695243053064182  0.1101960608526582  0.27426061338343277  1.0000
  H   H14       1.0  0.30476079496599334  0.38980052091916656  0.7742581627609367  1.0000
  H   H15       1.0  0.30475498429930786  0.8898018727748392  0.7257388023517777  1.0000
  H   H16       1.0  0.6952527876109117  0.6101984948081024  0.22573968109916356  1.0000
  H   H17       1.0  0.5888891413370559  0.0217056836508718  0.1812177927726921  1.0000
  H   H18       1.0  0.411120238597654  0.47829414408550974  0.6812191601471439  1.0000
  H   H19       1.0  0.41110078273464973  0.9782938691484022  0.8187805750273823  1.0000
  H   H20       1.0  0.5888831684050968  0.5217016299768884  0.31877501598321334  1.0000
  H   H21       1.0  0.30498271576627184  0.16019074888436077  0.0888348284113221  1.0000
  H   H22       1.0  0.69500647981382  0.33980799721337723  0.5888291573860015  1.0000
  H   H23       1.0  0.695011785082549  0.8398136650648736  0.9111677310703215  1.0000
  H   H24       1.0  0.3049833205667838  0.6601823744848403  0.4111634468649185  1.0000
  H   H25       1.0  0.3988557765190349  0.25567231587282885  0.1790539875003887  1.0000
  H   H26       1.0  0.6011296947104796  0.2443215808354536  0.6790435153358628  1.0000
  H   H27       1.0  0.6011471783039256  0.7443283186852768  0.8209506678466594  1.0000
  H   H28       1.0  0.39886102223966446  0.7556709512349542  0.3209501368323018  1.0000
  H   H29       1.0  0.16852698338870192  0.56430414143815  0.7836903832333064  1.0000
  H   H30       1.0  0.8314690747515597  0.9356969653454283  0.2836999362386193  1.0000
  H   H31       1.0  0.8314620241207038  0.4356932509828012  0.21630903249597108  1.0000
  H   H32       1.0  0.16853525494199323  0.06430690975714269  0.7163110066388185  1.0000
  H   H33       1.0  0.2578278935595222  0.6586482861312604  0.8765450689341563  1.0000
  H   H34       1.0  0.7421637710026444  0.8413463355566364  0.3765466776420823  1.0000
  H   H35       1.0  0.742171401045006  0.3413496476582694  0.1234532988788857  1.0000
  H   H36       1.0  0.2578380381092913  0.15865159853547792  0.6234569297892136  1.0000
  H   H37       1.0  0.7742524137086734  0.6811288794719914  0.7238509692706854  1.0000
  H   H38       1.0  0.2257574135158506  0.8188823007108751  0.2238565624167634  1.0000
  H   H39       1.0  0.22573751039561069  0.31887067329966357  0.2761568298384275  1.0000
  H   H40       1.0  0.7742489784184484  0.18112643526362857  0.7761449491381851  1.0000
  H   H41       1.0  0.23303115940836952  0.7204385388605771  0.9759288457597035  1.0000
  H   H42       1.0  0.7669933163684844  0.7795630657882099  0.47593193054762384  1.0000
  H   H43       1.0  0.7669828814587376  0.27956155704818286  0.024071093943867097  1.0000
  H   H44       1.0  0.2330301011038358  0.22044135182022018  0.5240695810351921  1.0000
  H   H45       1.0  0.30943310034883337  0.8275230737932446  0.0540380273274295  1.0000
  H   H46       1.0  0.6905825152169668  0.67247884048831  0.5540423022612586  1.0000
  H   H47       1.0  0.6905780853447896  0.17247918201847773  0.9459603404821378  1.0000
  H   H48       1.0  0.3094278715240151  0.32752449534441297  0.44595868535232336  1.0000
  H   H49       1.0  0.08663141059007987  0.9566359155508338  0.9189817398934608  1.0000
  H   H50       1.0  0.9133490028028177  0.5433579161008452  0.4189823567328189  1.0000
  H   H51       1.0  0.9133703985037587  0.0433620185566213  0.0810166279216986  1.0000
  H   H52       1.0  0.0866357746806087  0.45663839566326886  0.581014439188202  1.0000
  H   H53       1.0  0.994953482312681  0.8548007995053554  0.8374088131353117  1.0000
  H   H54       1.0  0.005035168235053853  0.6451935109639918  0.33740830801784216  1.0000
  H   H55       1.0  0.005048896604996913  0.14519551447656204  0.16259060260861694  1.0000
  H   H56       1.0  0.9949539507989372  0.3548011811576047  0.6625874399886768  1.0000
  C   C1        1.0  0.6854717554596164  0.4105643448677228  0.44607977829492995  1.0000
  C   C2        1.0  0.31452882043596725  0.08942960995412359  0.9460760782146237  1.0000
  C   C3        1.0  0.3145213705294623  0.5894368285278446  0.5539196374260058  1.0000
  C   C4        1.0  0.6854709324515158  0.9105694040230367  0.05392228959542679  1.0000
  C   C5        1.0  0.6705694422315885  0.35404537870994807  0.390234541749308  1.0000
  C   C6        1.0  0.32942400333934774  0.14594782217197635  0.8902289415958862  1.0000
  C   C7        1.0  0.3294207109870228  0.6459547141785364  0.6097653979341047  1.0000
  C   C8        1.0  0.6705742631656122  0.8540506515493432  0.10977047413782508  1.0000
  C   C9        1.0  0.7633182432431409  0.2975679395035015  0.3915777101841371  1.0000
  C   C10       1.0  0.23668046973460122  0.2024257942361345  0.8915742202020452  1.0000
  C   C11       1.0  0.23668196793454405  0.7024321546551421  0.6084227534693767  1.0000
  C   C12       1.0  0.763324770425335  0.7975743005552899  0.1084272913789377  1.0000
  C   C13       1.0  0.7320634412148906  0.2439756639133037  0.3403448847711701  1.0000
  C   C14       1.0  0.2679346886774425  0.2560178297563453  0.8403421604276529  1.0000
  C   C15       1.0  0.2679405417003905  0.7560244307191581  0.6596566268087543  1.0000
  C   C16       1.0  0.732066321461943  0.7439811843736308  0.15965830322991076  1.0000
  C   C17       1.0  0.6076713688008296  0.24788311792600123  0.28887182659612165  1.0000
  C   C18       1.0  0.39232148803020545  0.2521079762421934  0.7888651449641486  1.0000
  C   C19       1.0  0.3923319266863815  0.7521153564280924  0.7111286370650587  1.0000
  C   C20       1.0  0.6076788346793052  0.7478894176109562  0.2111337468130614  1.0000
  C   C21       1.0  0.5541577791757816  0.35493596975091896  0.3352305224274659  1.0000
  C   C22       1.0  0.44583334171931455  0.14505593280681953  0.8352230284996691  1.0000
  C   C23       1.0  0.4458434601032693  0.6450635844744071  0.6647694172669957  1.0000
  C   C24       1.0  0.5541614937231784  0.8549403802274541  0.16477429139145267  1.0000
  C   C25       1.0  0.5565919357470007  0.19178352421632644  0.23450674976398736  1.0000
  C   C26       1.0  0.44340260777585877  0.3082127491612924  0.7345013755060419  1.0000
  C   C27       1.0  0.44340976181319997  0.8082171101981573  0.7654926659658654  1.0000
  C   C28       1.0  0.5565941723303067  0.691785184317986  0.2654943724968106  1.0000
  C   C29       1.0  0.6091082839533257  0.12451050670134826  0.23446141971265888  1.0000
  C   C30       1.0  0.39089528911774346  0.37548630814210066  0.7344581560506426  1.0000
  C   C31       1.0  0.39089146893959276  0.8754885072712071  0.7655385199822361  1.0000
  C   C32       1.0  0.6091146332570219  0.6245100068027867  0.2655381159299779  1.0000
  C   C33       1.0  0.549478351111354  0.07424144448893341  0.18267578046118155  1.0000
  C   C34       1.0  0.4505278369745581  0.4257567541164348  0.6826749229930085  1.0000
  C   C35       1.0  0.45051785918906967  0.925758109100549  0.8173241592290379  1.0000
  C   C36       1.0  0.5494780845211266  0.5742390202608192  0.31732030106269343  1.0000
  C   C37       1.0  0.39253461126011047  0.1520078318814981  0.13084197835065225  1.0000
  C   C38       1.0  0.6074594452396128  0.34798958865346213  0.6308403000821982  1.0000
  C   C39       1.0  0.6074600011132959  0.8479938817683818  0.869156913408233  1.0000
  C   C40       1.0  0.3925332163886851  0.6520045638496726  0.3691559718906133  1.0000
  C   C41       1.0  0.44600356630952837  0.2049478219840921  0.1805453806018278  1.0000
  C   C42       1.0  0.5539863743895024  0.2950476867422082  0.6805371315445399  1.0000
  C   C43       1.0  0.5539956167740242  0.7950528121017298  0.8194577028571999  1.0000
  C   C44       1.0  0.44600754447620966  0.7049464659260208  0.3194570445828759  1.0000
  C   C45       1.0  0.91046018316257  0.562802878821131  0.6876320836131454  1.0000
  C   C46       1.0  0.08953933589801714  0.9372085121800211  0.18764194670929868  1.0000
  C   C47       1.0  0.08952402452416659  0.4371950530455137  0.3123715238033  1.0000
  C   C48       1.0  0.9104554001809646  0.0628023825586297  0.8123669002916499  1.0000
  C   C49       1.0  0.9652525050629919  0.6156587594702003  0.7464393202764725  1.0000
  C   C50       1.0  0.034746163017977935  0.8843522869977039  0.24644627755328227  1.0000
  C   C51       1.0  0.0347370783444561  0.3843429535330857  0.2535632392094627  1.0000
  C   C52       1.0  0.9652548592698195  0.11565860854803132  0.7535583777600647  1.0000
  C   C53       1.0  0.10083739354371345  0.6092662205601229  0.7910785682688868  1.0000
  C   C54       1.0  0.8991619175463725  0.8907364635616235  0.2910864207746826  1.0000
  C   C55       1.0  0.899150815005804  0.3907322518879611  0.20892137141795078  1.0000
  C   C56       1.0  0.1008436693791737  0.10926741171064693  0.7089208543725221  1.0000
  C   C57       1.0  0.14868806404538049  0.661302506160645  0.8427389652290315  1.0000
  C   C58       1.0  0.8513104582277861  0.8386971749705482  0.3427439185174562  1.0000
  C   C59       1.0  0.8513107722798028  0.3386943474381924  0.1572604505102291  1.0000
  C   C60       1.0  0.14869146849018483  0.16130399952394472  0.6572602128654239  1.0000
  C   C61       1.0  0.0596743971408315  0.7190749326863395  0.8483487665081453  1.0000
  C   C62       1.0  0.9403258794157238  0.7809257959397583  0.3483537072636621  1.0000
  C   C63       1.0  0.9403231819396892  0.28092192075354205  0.15165064923004928  1.0000
  C   C64       1.0  0.05967604729320191  0.21907537856240822  0.6516478043111532  1.0000
  C   C65       1.0  0.8825732893572251  0.674754591923289  0.7567527261683082  1.0000
  C   C66       1.0  0.11743070809670539  0.8252569348761369  0.2567601924596374  1.0000
  C   C67       1.0  0.11741537748249438  0.32524496070627856  0.24324930936199246  1.0000
  C   C68       1.0  0.8825723703901999  0.1747528808060324  0.743242367012364  1.0000
  C   C69       1.0  0.10778496387548836  0.778826620433442  0.8989937019637322  1.0000
  C   C70       1.0  0.8922170313364076  0.7211711114680881  0.3989952673380373  1.0000
  C   C71       1.0  0.8922213043876184  0.22117293442313019  0.10100780961980858  1.0000
  C   C72       1.0  0.10778374965425291  0.2788273625742193  0.6010031004745641  1.0000
  C   C73       1.0  0.1978056698986137  0.77173326727943  0.9611759925037686  1.0000
  C   C74       1.0  0.8022075002880555  0.7282657220267198  0.4611778855451973  1.0000
  C   C75       1.0  0.8022071137238314  0.2282668284703747  0.038823947198736185  1.0000
  C   C76       1.0  0.19780802695613892  0.27173491414249185  0.538819434349868  1.0000
  C   C77       1.0  0.24117888075933538  0.8311427431579687  0.0050003910111016  1.0000
  C   C78       1.0  0.7588266787402631  0.6688572968120994  0.505002707937706  1.0000
  C   C79       1.0  0.7588295613052978  0.1688589722404856  0.9949985007594506  1.0000
  C   C80       1.0  0.24118107589993798  0.3311427983049171  0.49499618383733685  1.0000
  C   C81       1.0  0.11569462162794496  0.903496095404385  0.9307155268996823  1.0000
  C   C82       1.0  0.8842893038827881  0.5964998282270102  0.4307157624626824  1.0000
  C   C83       1.0  0.8843076457542836  0.0965029188860953  0.0692844127973302  1.0000
  C   C84       1.0  0.11569787655269441  0.40349918416512764  0.569281033451922  1.0000
  C   C85       1.0  0.0650664453485419  0.8464924654859444  0.8847919988273105  1.0000
  C   C86       1.0  0.9349266510278585  0.653505348477623  0.3847909155593925  1.0000
  C   C87       1.0  0.9349385656662861  0.1535070892147345  0.11520846483194448  1.0000
  C   C88       1.0  0.06506658648400078  0.3464931246201175  0.6152043084771677  1.0000
  N   N1        1.0  0.5230174462286001  0.3038566235717397  0.2863078360094207  1.0000
  N   N2        1.0  0.476970363906517  0.1961344849788276  0.7863000753132565  1.0000
  N   N3        1.0  0.4769888220254541  0.6961429312924989  0.7136910557660555  1.0000
  N   N4        1.0  0.5230259579202965  0.8038623683097582  0.2136967206158147  1.0000
  N   N5        1.0  0.44238201975651487  0.0872684585563519  0.131681085330321  1.0000
  N   N6        1.0  0.5576227879184543  0.4127305786207813  0.6316783942309456  1.0000
  N   N7        1.0  0.5576153362494978  0.9127337955037265  0.8683183303908065  1.0000
  N   N8        1.0  0.44237890355306325  0.5872641150981011  0.3683147339781101  1.0000
  N   N9        1.0  0.9276997387367275  0.7252324540452194  0.8056717585394536  1.0000
  N   N10       1.0  0.07231213407329305  0.7747728465231987  0.30567736840969667  1.0000
  N   N11       1.0  0.07230001416342453  0.27476655992119703  0.1943302770018889  1.0000
  N   N12       1.0  0.9276942517867965  0.22522994874341853  0.6943220473173566  1.0000
  N   N13       1.0  0.20266394030636536  0.8961355734739623  0.9898032984109193  1.0000
  N   N14       1.0  0.7973267972443948  0.6038632453310694  0.4898033411510879  1.0000
  N   N15       1.0  0.7973385562155357  0.10386398091186069  0.010196117322983898  1.0000
  N   N16       1.0  0.20266712769914363  0.3961368480419694  0.5101939787274432  1.0000
  O   O1        1.0  0.5777624444198536  0.45350856384320076  0.4461340451591552  1.0000
  O   O2        1.0  0.42223687461115844  0.04648539049750159  0.9461318432881569  1.0000
  O   O3        1.0  0.4222104419998088  0.5464834258772412  0.5538700862279312  1.0000
  O   O4        1.0  0.5777653927638297  0.9535136237991111  0.05386600056240811  1.0000
  O   O5        1.0  0.8009980070836918  0.4133147839309146  0.4925819843496199  1.0000
  O   O6        1.0  0.19901066876500548  0.08668538031935921  0.9925817741752495  1.0000
  O   O7        1.0  0.1990162750316812  0.5866977335226976  0.5074100958911243  1.0000
  O   O8        1.0  0.8009901122310835  0.9133130937183439  0.007418165522196299  1.0000
  O   O9        1.0  0.7784433149754121  0.5752056182032276  0.6534539173819593  1.0000
  O   O10       1.0  0.22154807772790955  0.9248021915157377  0.15345779332507448  1.0000
  O   O11       1.0  0.2215340306080904  0.4247879922709288  0.34655178588865704  1.0000
  O   O12       1.0  0.7784592368501322  0.0752146455388214  0.8465468619750068  1.0000
  O   O13       1.0  0.9922416342614755  0.5132482640365765  0.6753925642484332  1.0000
  O   O14       1.0  0.007766489436803909  0.986765900046528  0.17540826703527296  1.0000
  O   O15       1.0  0.007749887740864276  0.4867491286992374  0.3246078994061961  1.0000
  O   O16       1.0  0.9922180710861284  0.0132417530119113  0.8246021518520621  1.0000
