data_image0
_chemical_formula_structural       Cu2H16C28I2N4
_chemical_formula_sum              "Cu2 H16 C28 I2 N4"
_cell_length_a       4.079414073398799
_cell_length_b       7.633647103465892
_cell_length_c       19.02319875608738
_cell_angle_alpha    89.42184056031046
_cell_angle_beta     88.75175449342153
_cell_angle_gamma    74.23709948352082

_space_group_name_H-M_alt    "P 1"
_space_group_IT_number       1

loop_
  _space_group_symop_operation_xyz
  'x, y, z'

loop_
  _atom_site_type_symbol
  _atom_site_label
  _atom_site_symmetry_multiplicity
  _atom_site_fract_x
  _atom_site_fract_y
  _atom_site_fract_z
  _atom_site_occupancy
  Cu  Cu1       1.0  0.4265060202469825  0.15245775224443747  0.2505173384179145  1.0000
  Cu  Cu2       1.0  0.5735092270949094  0.8475512698560477  0.7494812102026531  1.0000
  H   H1        1.0  0.9599835838553403  0.5056647081662433  0.29019780777544923  1.0000
  H   H2        1.0  0.4723777786544117  0.49155637305178596  0.7901276607286364  1.0000
  H   H3        1.0  0.04004142610101973  0.49432522098532417  0.709807064242959  1.0000
  H   H4        1.0  0.5276051897736309  0.5084581534100605  0.20986737169477016  1.0000
  H   H5        1.0  0.6702912350878448  0.1009675012645133  0.3953861708958756  1.0000
  H   H6        1.0  0.7696850737590569  0.8969779651058615  0.8937216758361617  1.0000
  H   H7        1.0  0.3297119968116461  0.899017012126393  0.6046193710519675  1.0000
  H   H8        1.0  0.23031989728482216  0.10302700460255208  0.1062743179999615  1.0000
  H   H9        1.0  0.5336875356803502  0.760966748684929  0.3561218939127429  1.0000
  H   H10       1.0  0.2996426101312579  0.23827108270009487  0.8571234642434363  1.0000
  H   H11       1.0  0.4663136384502237  0.23902184825742975  0.6438836446070726  1.0000
  H   H12       1.0  0.7003399226368499  0.7617393725047422  0.1428700087321175  1.0000
  H   H13       1.0  0.6988314243750863  0.09990974934567022  0.5307548798959658  1.0000
  H   H14       1.0  0.7944835874164797  0.8993013902383139  0.029046200985170908  1.0000
  H   H15       1.0  0.30116865478805016  0.9000761314609276  0.4692501492667063  1.0000
  H   H16       1.0  0.20551122618761034  0.100709045932291  0.9709477277360677  1.0000
  C   C1        1.0  0.06056923923225099  0.4507026597758139  0.340894664729511  1.0000
  C   C2        1.0  0.5145492750227662  0.5474478068213313  0.8406067475393756  1.0000
  C   C3        1.0  0.9394547023721456  0.5492845471774148  0.6591107491651516  1.0000
  C   C4        1.0  0.4854280738555301  0.452568093288086  0.15938726045637006  1.0000
  C   C5        1.0  0.9224270338310064  0.5385324693689596  0.4033860185907018  1.0000
  C   C6        1.0  0.46334591746197146  0.460557581191921  0.9034776052013881  1.0000
  C   C7        1.0  0.07759544368469311  0.46144793503506776  0.5966199545824511  1.0000
  C   C8        1.0  0.5366309691409157  0.5394542537230648  0.0965137921131003  1.0000
  C   C9        1.0  0.06525364323007914  0.4593842044182637  0.4676206041296497  1.0000
  C   C10       1.0  0.5246599136531387  0.5402214385065705  0.9674333495198582  1.0000
  C   C11       1.0  0.9347629378573642  0.5406030121367421  0.5323848516876242  1.0000
  C   C12       1.0  0.4753100480927372  0.459794477267188  0.03255964916510121  1.0000
  C   C13       1.0  0.3415829938860638  0.29829391629026963  0.46630588617302493  1.0000
  C   C14       1.0  0.6381903132746128  0.7009494563104681  0.965447287218318  1.0000
  C   C15       1.0  0.6584230872558049  0.7016946742509094  0.5336996243983805  1.0000
  C   C16       1.0  0.3617982480877016  0.2990637025663787  0.0345477183993665  1.0000
  C   C17       1.0  0.45834548391745494  0.2238184101403674  0.40038425938107036  1.0000
  C   C18       1.0  0.6809078588621136  0.7746607320835961  0.8992294591396189  1.0000
  C   C19       1.0  0.5416728647526623  0.776170164397861  0.5996211813193213  1.0000
  C   C20       1.0  0.31908455446727396  0.2253496951624498  0.10076658602261551  1.0000
  C   C21       1.0  0.6447537938836447  0.7009995428034015  0.4054534338847375  1.0000
  C   C22       1.0  0.3494263303222879  0.29852930022809687  0.9062408357658711  1.0000
  C   C23       1.0  0.355253672411905  0.2989863223388554  0.5945526045887207  1.0000
  C   C24       1.0  0.650549594390526  0.7014797882382524  0.09375530835845321  1.0000
  C   C25       1.0  0.48356567668937334  0.22154902129656756  0.5317202345200301  1.0000
  C   C26       1.0  0.701738732973737  0.7780719733132312  0.030565295023201607  1.0000
  C   C27       1.0  0.5164375419023842  0.7784354951256204  0.4682847818111142  1.0000
  C   C28       1.0  0.29823872236645593  0.22194390254589538  0.9694329179061327  1.0000
  I   I1        1.0  0.03898953131680833  0.9292512495528056  0.2501504048681086  1.0000
  I   I2        1.0  0.9610207167710382  0.07074825403201859  0.749848733264699  1.0000
  N   N1        1.0  0.3184628950418967  0.29634954880192044  0.339405074522837  1.0000
  N   N2        1.0  0.6157089725642423  0.7017167804016323  0.838513843972308  1.0000
  N   N3        1.0  0.6815554003972718  0.7036390378614641  0.6605982637107674  1.0000
  N   N4        1.0  0.3842896930069202  0.2982909241381718  0.16148112429346645  1.0000
