data_image0
_chemical_formula_structural       Cd4H36C24S4N8O28
_chemical_formula_sum              "Cd4 H36 C24 S4 N8 O28"
_cell_length_a       7.810286471
_cell_length_b       9.871986084750821
_cell_length_c       13.477
_cell_angle_alpha    92.18428369177698
_cell_angle_beta     90.0
_cell_angle_gamma    90.0

_space_group_name_H-M_alt    "P 1"
_space_group_IT_number       1

loop_
  _space_group_symop_operation_xyz
  'x, y, z'

loop_
  _atom_site_type_symbol
  _atom_site_label
  _atom_site_symmetry_multiplicity
  _atom_site_fract_x
  _atom_site_fract_y
  _atom_site_fract_z
  _atom_site_occupancy
  Cd  Cd1       1.0  0.1823326206135505  0.1067754634828404  0.8581253337047628  1.0000
  Cd  Cd2       1.0  0.6823334867149455  0.8932252273563961  0.6418760211912656  1.0000
  Cd  Cd3       1.0  0.8176652705009317  0.8932242136524522  0.14187599289014233  1.0000
  Cd  Cd4       1.0  0.3176656847623107  0.1067754634828404  0.3581245916998698  1.0000
  H   H1        1.0  0.2950634408298356  0.3853625941726335  0.7978100288608871  1.0000
  H   H2        1.0  0.7950655872939976  0.6146350555547784  0.7021904991268785  1.0000
  H   H3        1.0  0.7049357306474135  0.6146340418508416  0.20219047082575511  1.0000
  H   H4        1.0  0.2049374252715523  0.3853646215805142  0.2978086014533403  1.0000
  H   H5        1.0  0.2131151022667765  0.6337291829819875  0.8028771740691882  1.0000
  H   H6        1.0  0.7131172487309385  0.3662684667454243  0.6971203858989912  1.0000
  H   H7        1.0  0.7868853495732395  0.3662684667454243  0.19712112790389108  1.0000
  H   H8        1.0  0.2868883245601523  0.6337301966859314  0.3028779443752043  1.0000
  H   H9        1.0  0.9295817799971715  0.6997932825019859  0.8746837442225728  1.0000
  H   H10       1.0  0.4295834746213103  0.3002094357451313  0.6253117312365221  1.0000
  H   H11       1.0  0.07041867184285171  0.3002074083372506  0.125313900648969  1.0000
  H   H12       1.0  0.5704208183070136  0.699792268798042  0.3746866839410431  1.0000
  H   H13       1.0  0.8301283216785578  0.2759707608188222  0.9199062259051872  1.0000
  H   H14       1.0  0.3301300163027037  0.7240349985401195  0.5800960125013503  1.0000
  H   H15       1.0  0.1698670087103906  0.724031957428295  0.08009518559308762  1.0000
  H   H16       1.0  0.6698704355373195  0.2759677197069976  0.4199053989969245  1.0000
  H   H17       1.0  0.6655069592261071  0.6350723407034309  0.9349358943955155  1.0000
  H   H18       1.0  0.1655099342130129  0.3649293638397495  0.5650640047918358  1.0000
  H   H19       1.0  0.334494772976683  0.3649313912476302  0.0650633193891821  1.0000
  H   H20       1.0  0.8344930783525442  0.6350703132955502  0.43493732180306927  1.0000
  H   H21       1.0  0.4770516438589638  0.138384779762049  0.7577323128636735  1.0000
  H   H22       1.0  0.9770525099603589  0.8616148973732436  0.7422682717263386  1.0000
  H   H23       1.0  0.5229462472555184  0.8616148973732436  0.24226827172633852  1.0000
  H   H24       1.0  0.0229466615168903  0.138384779762049  0.25773231286367354  1.0000
  H   H25       1.0  0.54331937960999  0.1611059398891186  0.8681025004623282  1.0000
  H   H26       1.0  0.0433197938713619  0.838893737246174  0.631898084127684  1.0000
  H   H27       1.0  0.4566785115044994  0.838893737246174  0.13189808412768403  1.0000
  H   H28       1.0  0.9566793776058944  0.1611059398891186  0.3681017584574278  1.0000
  H   H29       1.0  0.3028902984268029  0.871542100064616  0.9299817976913334  1.0000
  H   H30       1.0  0.8028898841654311  0.1284575770706837  0.5700180448937786  1.0000
  H   H31       1.0  0.6971088730504533  0.1284565633667398  0.0700172745877623  1.0000
  H   H32       1.0  0.1971092873118252  0.871542100064616  0.4299825396962333  1.0000
  H   H33       1.0  0.427894676131146  0.8924781275520955  0.8414849028208452  1.0000
  H   H34       1.0  0.927895542232541  0.107521549583204  0.6585149397642739  1.0000
  H   H35       1.0  0.5721032149833434  0.107521549583204  0.1585149397642738  1.0000
  H   H36       1.0  0.0721036292447153  0.8924781275520955  0.3414856448257382  1.0000
  C   C1        1.0  0.1708439255018988  0.4202694893709733  0.8251242678290254  1.0000
  C   C2        1.0  0.6708435112405269  0.5797301877643193  0.6748748327511934  1.0000
  C   C3        1.0  0.8291539656125906  0.5797301877643193  0.17487483275119337  1.0000
  C   C4        1.0  0.3291582209622632  0.4202684756670365  0.3251249815327953  1.0000
  C   C5        1.0  0.1254435421335529  0.5566116556924925  0.8284254350632594  1.0000
  C   C6        1.0  0.6254418475094141  0.44338700773885614  0.6715736372158361  1.0000
  C   C7        1.0  0.8745581900692372  0.4433880214428001  0.17157440752185246  1.0000
  C   C8        1.0  0.3745586043306091  0.5566116556924925  0.3284254350632594  1.0000
  C   C9        1.0  0.9672193239069244  0.5937973573495512  0.8675002601529728  1.0000
  C   C10       1.0  0.4672222988938302  0.4062053608975659  0.6324966993159151  1.0000
  C   C11       1.0  0.0327785672075649  0.40620333348968535  0.1324981267234691  1.0000
  C   C12       1.0  0.5327819940344938  0.5937963436456073  0.367502457866543  1.0000
  C   C13       1.0  0.8562310774170356  0.4935308868700048  0.9007757619968758  1.0000
  C   C14       1.0  0.3562327720411744  0.5064718313771124  0.5992226814818056  1.0000
  C   C15       1.0  0.1437680940602206  0.5064708176731685  0.0992226531806821  1.0000
  C   C16       1.0  0.6437702405243826  0.4935288594621241  0.4007771894044296  1.0000
  C   C17       1.0  0.9104505995270529  0.3576823943676146  0.8947014070149137  1.0000
  C   C18       1.0  0.4104522941511988  0.6423203238795026  0.6052992624784608  1.0000
  C   C19       1.0  0.0895472915874294  0.6423182964716219  0.10529846387132123  1.0000
  C   C20       1.0  0.5895507184143582  0.3576803669597339  0.39470209241756754  1.0000
  C   C21       1.0  0.5800581088570453  0.4585104568303109  0.9862015454081786  1.0000
  C   C22       1.0  0.08005980348118413  0.5414882066010449  0.5137990108807103  1.0000
  C   C23       1.0  0.4199397822574441  0.5414861791931642  0.0137967282637703  1.0000
  C   C24       1.0  0.9199432090843729  0.4585104568303109  0.4862015454081786  1.0000
  S   S1        1.0  0.7663304057058085  0.9512040242452926  0.8952213492434852  1.0000
  S   S2        1.0  0.2663308199671803  0.0487956528900071  0.6047792353465198  1.0000
  S   S3        1.0  0.2336674854086809  0.0487956528900071  0.1047792353465198  1.0000
  S   S4        1.0  0.7336683515100759  0.9512040242452926  0.3952213492434852  1.0000
  N   N1        1.0  0.0654214159617865  0.3237800797745152  0.8579657820921442  1.0000
  N   N2        1.0  0.5654235624259485  0.6762216247686581  0.6420356011050077  1.0000
  N   N3        1.0  0.9345764751527028  0.6762195973607774  0.14203480249786793  1.0000
  N   N4        1.0  0.4345781697768416  0.3237790660705784  0.3579657537910209  1.0000
  N   N5        1.0  0.696507102549788  0.534146962662426  0.9379303307766877  1.0000
  N   N6        1.0  0.1965075168111596  0.4658567692886351  0.5620703670178102  1.0000
  N   N7        1.0  0.3034933492902354  0.46585778299257197  0.062068169304240015  1.0000
  N   N8        1.0  0.8034942153916305  0.5341439215506014  0.4379317298831182  1.0000
  O   O1        1.0  0.5939372412553823  0.3387524869787981  0.008098117774409302  1.0000
  O   O2        1.0  0.09393637515399432  0.6612532723801365  0.49190486263702843  1.0000
  O   O3        1.0  0.4060632105846338  0.6612563134919611  0.9918982694963179  1.0000
  O   O4        1.0  0.906064076686029  0.3387474184590928  0.5080987182736934  1.0000
  O   O5        1.0  0.9396607957019469  0.9660578280885089  0.849265933537204  1.0000
  O   O6        1.0  0.4396612099633188  0.0339418490467835  0.6507346510528011  1.0000
  O   O7        1.0  0.0603370954125424  0.0339418490467835  0.15073465105280093  1.0000
  O   O8        1.0  0.5603379615139374  0.9660578280885089  0.34926593353720403  1.0000
  O   O9        1.0  0.7747820803332459  0.8497079308856641  0.9742701941573915  1.0000
  O   O10       1.0  0.2747824945946178  0.1502917462496285  0.5257296484277205  1.0000
  O   O11       1.0  0.22521581078123631  0.1502917462496285  0.025729648427720506  1.0000
  O   O12       1.0  0.7252166768826314  0.8497079308856641  0.47427019415739124  1.0000
  O   O13       1.0  0.646786775204319  0.8963241203031487  0.8163678207952076  1.0000
  O   O14       1.0  0.146785909102924  0.1036765705360878  0.6836320500910277  1.0000
  O   O15       1.0  0.3532123962729372  0.103675556832151  0.18363202178990432  1.0000
  O   O16       1.0  0.8532119820115653  0.8963241203031487  0.3163678207952075  1.0000
  O   O17       1.0  0.7050023095113147  0.0836417258519049  0.9360926666532309  1.0000
  O   O18       1.0  0.2050027237726937  0.9163589649873316  0.5639072042330043  1.0000
  O   O19       1.0  0.2949968619659344  0.9163579512833947  0.06390717593188101  1.0000
  O   O20       1.0  0.7949964477045626  0.083640712147961  0.4360933803570078  1.0000
  O   O21       1.0  0.4553763825700798  0.1913528380720138  0.8204665753615289  1.0000
  O   O22       1.0  0.9553772486714749  0.8086468390632788  0.6795340092284834  1.0000
  O   O23       1.0  0.5446215085444095  0.8086458253593349  0.17953323892246695  1.0000
  O   O24       1.0  0.0446219228057814  0.1913528380720138  0.3204665753615289  1.0000
  O   O25       1.0  0.3041245681345544  0.8916620958798233  0.8586610519308097  1.0000
  O   O26       1.0  0.8041254342359423  0.10833758125547628  0.6413387906543022  1.0000
  O   O27       1.0  0.695873322979935  0.1083365675515324  0.14133876235317902  1.0000
  O   O28       1.0  0.1958737372413069  0.8916620958798233  0.35866105193080955  1.0000
