data_image0
_chemical_formula_structural       Zn6H48C63O29
_chemical_formula_sum              "Zn6 H48 C63 O29"
_cell_length_a       18.557227276543838
_cell_length_b       18.589291924092098
_cell_length_c       18.699991045389154
_cell_angle_alpha    109.58896614642394
_cell_angle_beta     109.19681270725724
_cell_angle_gamma    109.17232797786698

_space_group_name_H-M_alt    "P 1"
_space_group_IT_number       1

loop_
  _space_group_symop_operation_xyz
  'x, y, z'

loop_
  _atom_site_type_symbol
  _atom_site_label
  _atom_site_symmetry_multiplicity
  _atom_site_fract_x
  _atom_site_fract_y
  _atom_site_fract_z
  _atom_site_occupancy
  Zn  Zn1       1.0  0.9372517106943478  0.9355400778630384  0.5016841372685124  1.0000
  Zn  Zn2       1.0  0.06249655678583818  0.061878939050160356  0.5035617822074131  1.0000
  Zn  Zn3       1.0  0.06347478319506909  0.4971059921075636  0.05904138650409145  1.0000
  Zn  Zn4       1.0  0.9376116137185234  0.503957211864666  0.94200775083808  1.0000
  Zn  Zn5       1.0  0.4993928678503324  0.9350933421356019  0.9341293042270494  1.0000
  Zn  Zn6       1.0  0.507149993732881  0.06429634362502407  0.06310726160267416  1.0000
  H   H1        1.0  0.9829624959554407  0.10269598816690009  0.762113162855286  1.0000
  H   H2        1.0  0.7416377438620146  0.8912783674198936  0.2744150762468537  1.0000
  H   H3        1.0  0.14781262313793772  0.7310454956124204  0.307557355908827  1.0000
  H   H4        1.0  0.8750967228757958  0.6199928983090431  0.12897499428067502  1.0000
  H   H5        1.0  0.8637345779829955  0.7249855014265094  0.24493477020982365  1.0000
  H   H6        1.0  0.2702167760027835  0.9061795165702338  0.764723441962069  1.0000
  H   H7        1.0  0.14190563771671805  0.7843443675262735  0.020535231384258133  1.0000
  H   H8        1.0  0.27136787672830565  0.8935570964294969  0.027994874216638373  1.0000
  H   H9        1.0  0.3263501328435795  0.689738828201911  0.9146788195387573  1.0000
  H   H10       1.0  0.7059667111098591  0.23882746645300293  0.8242524941577472  1.0000
  H   H11       1.0  0.7558849736246743  0.21851361155076895  0.09232136742687659  1.0000
  H   H12       1.0  0.8684809701517366  0.3441993812991058  0.09868421515223244  1.0000
  H   H13       1.0  0.9195724260594603  0.29978847140182546  0.5202309391678028  1.0000
  H   H14       1.0  0.9924926896995672  0.4439764684632267  0.6574975191890147  1.0000
  H   H15       1.0  0.030178919177274215  0.44902996636150055  0.798621131761685  1.0000
  H   H16       1.0  0.019079448246486795  0.23519966536337483  0.8928629946789145  1.0000
  H   H17       1.0  0.9213374572338183  0.15147640367241874  0.34418723376386845  1.0000
  H   H18       1.0  0.7974235098288245  0.15596121811243782  0.24209852537379103  1.0000
  H   H19       1.0  0.230374464609092  0.7900290988607566  0.4625294823860956  1.0000
  H   H20       1.0  0.2705016610012549  0.8583229169626136  0.4215251139110237  1.0000
  H   H21       1.0  0.2973331944414995  0.9052353316116141  0.5326304297416729  1.0000
  H   H22       1.0  0.18066292544258306  0.9296411514857114  0.4476474666528746  1.0000
  H   H23       1.0  0.14754183139502444  0.8706550590313143  0.4970278647419661  1.0000
  H   H24       1.0  0.20509462596528752  0.2649561009629338  0.7973700736846682  1.0000
  H   H25       1.0  0.21339724953656983  0.21957705252971496  0.8691155935712518  1.0000
  H   H26       1.0  0.1383165462822973  0.15027200834098414  0.7540597349120121  1.0000
  H   H27       1.0  0.5154962352844735  0.19785753661650318  0.9330983963221585  1.0000
  H   H28       1.0  0.4795227867237415  0.24560587814649182  0.8707406616050407  1.0000
  H   H29       1.0  0.5407201797303002  0.3087151864890601  0.9867041430663267  1.0000
  H   H30       1.0  0.3819036596388445  0.2617157232743284  0.9348896643286795  1.0000
  H   H31       1.0  0.41568545146570557  0.21146261436134486  0.9951365655724659  1.0000
  H   H32       1.0  0.04399412650718667  0.8350153006299268  0.6405031710259622  1.0000
  H   H33       1.0  0.12225726687337614  0.7984962195639654  0.6700302273882174  1.0000
  H   H34       1.0  0.05189640448129755  0.7597126866473262  0.557302627484262  1.0000
  H   H35       1.0  0.7717959686143485  0.15517613510014883  0.4576147429173361  1.0000
  H   H36       1.0  0.7720846417499486  0.1013693989118778  0.5217376515483494  1.0000
  H   H37       1.0  0.7634821717300895  0.04883336726123138  0.4168228679469551  1.0000
  H   H38       1.0  0.23991345052365887  0.5376765723101825  0.8214920683826463  1.0000
  H   H39       1.0  0.21343534306154774  0.4619642138669421  0.8603685006485052  1.0000
  H   H40       1.0  0.3122376430759461  0.5665622483923728  0.9306709633011324  1.0000
  H   H41       1.0  0.6562140327748763  0.04607912352270928  0.7312960184443826  1.0000
  H   H42       1.0  0.6190515535617038  0.985792716019951  0.7803523297704801  1.0000
  H   H43       1.0  0.5441223993992992  0.964189960688124  0.6770923248266671  1.0000
  H   H44       1.0  0.5230148003749662  0.053154180000795664  0.7940431298623737  1.0000
  H   H45       1.0  0.5615569637504335  0.11466684225805314  0.7473149633947785  1.0000
  H   H46       1.0  0.5382355408311739  0.9354683224907205  0.2092976834728973  1.0000
  H   H47       1.0  0.5784948914803821  0.8803966665994453  0.261231705681837  1.0000
  H   H48       1.0  0.48570220479489024  0.8178695820480613  0.15292595475227  1.0000
  C   C1        1.0  0.9093262726794508  0.018924172102501375  0.3806880336388404  1.0000
  C   C2        1.0  0.9624654752973996  0.23167832611117242  0.6706969788045642  1.0000
  C   C3        1.0  0.9626702141536326  0.15780293318183425  0.6783459872719463  1.0000
  C   C4        1.0  0.9829403398407734  0.1595518268172784  0.7572728069039629  1.0000
  C   C5        1.0  0.005959986242260178  0.2350450938836702  0.8315153509251233  1.0000
  C   C6        1.0  0.011543117558162092  0.3096110220676564  0.8275966896400747  1.0000
  C   C7        1.0  0.8551597156430901  0.09545186632109186  0.3054406230578977  1.0000
  C   C8        1.0  0.7859575677389117  0.09775075069496356  0.24885272706880104  1.0000
  C   C9        1.0  0.7011207737960703  0.02514343947537163  0.19918389542469586  1.0000
  C   C10       1.0  0.6856378448735613  0.9500169684221547  0.20797039276540374  1.0000
  C   C11       1.0  0.7542618949802814  0.9486927171410072  0.2662439630537035  1.0000
  C   C12       1.0  0.9603926850695003  0.08658838367298224  0.6080207857523164  1.0000
  C   C13       1.0  0.839199281002486  0.020964947913107327  0.31475808373031816  1.0000
  C   C14       1.0  0.08350623326678885  0.7955504354443902  0.35807982911367736  1.0000
  C   C15       1.0  0.08654915059860707  0.7319755577507011  0.294600392865874  1.0000
  C   C16       1.0  0.012640216581580418  0.6703120453291191  0.2122171985576315  1.0000
  C   C17       1.0  0.932076562667376  0.6679484238820947  0.19339061019122988  1.0000
  C   C18       1.0  0.9262347819047323  0.7268517492624014  0.25757448078870465  1.0000
  C   C19       1.0  0.0012831382299865342  0.7914087583623228  0.33821350344103257  1.0000
  C   C20       1.0  0.2704931839115615  0.12038313159476381  0.7850502267823743  1.0000
  C   C21       1.0  0.3331020440291824  0.12512782111726772  0.8568919144157123  1.0000
  C   C22       1.0  0.330079926164828  0.04547626046731075  0.847860078286253  1.0000
  C   C23       1.0  0.139041159898639  0.03421757058099926  0.6318026093892329  1.0000
  C   C24       1.0  0.268246497480007  0.9656455883984522  0.7704182060067596  1.0000
  C   C25       1.0  0.2071662972618783  0.9626469227227333  0.700749613298328  1.0000
  C   C26       1.0  0.20747313356263675  0.04028797661347036  0.7073065137840617  1.0000
  C   C27       1.0  0.09475269626432238  0.6151307467557103  0.9750173342187837  1.0000
  C   C28       1.0  0.023678202949760543  0.38299837535406317  0.9039018232329001  1.0000
  C   C29       1.0  0.8593132258320964  0.3755280257174577  0.9677563831209641  1.0000
  C   C30       1.0  0.018903012453165446  0.6088660810030858  0.14214564656629136  1.0000
  C   C31       1.0  0.38204167834030056  0.8631407569655279  0.9766619998730448  1.0000
  C   C32       1.0  0.6277069656057321  0.024385941052514667  0.1335276716801275  1.0000
  C   C33       1.0  0.6099043982838598  0.08443716866092654  0.9585010464022263  1.0000
  C   C34       1.0  0.9926226665215906  0.8594713628742454  0.40006708953366404  1.0000
  C   C35       1.0  0.39297196506434057  0.038721897846798525  0.916262265487845  1.0000
  C   C36       1.0  0.18311473986190654  0.7641862884792161  0.998378528813717  1.0000
  C   C37       1.0  0.2547045750049223  0.8249580297796869  0.002263666875762636  1.0000
  C   C38       1.0  0.30590912841031337  0.7973192122411845  0.972280421770769  1.0000
  C   C39       1.0  0.28608386324048507  0.7093330923277251  0.9387540412851936  1.0000
  C   C40       1.0  0.2164833305091635  0.6494772825665933  0.9384827854850499  1.0000
  C   C41       1.0  0.16458680291140151  0.6772719169028038  0.9685673297067725  1.0000
  C   C42       1.0  0.7175028071946201  0.23230515826731593  0.8822860568215845  1.0000
  C   C43       1.0  0.6573587613570383  0.1575441738362927  0.8756823483760601  1.0000
  C   C44       1.0  0.6728736616700032  0.15431809815125763  0.9532984617065949  1.0000
  C   C45       1.0  0.9313299180079325  0.2288837630701152  0.5885915013307397  1.0000
  C   C46       1.0  0.7474812032494995  0.2222657526435228  0.03340925956327814  1.0000
  C   C47       1.0  0.8089775989463561  0.2926270957205617  0.03746032368906777  1.0000
  C   C48       1.0  0.7929350640428865  0.29854261110519786  0.9615075662578505  1.0000
  C   C49       1.0  0.9427678327753243  0.30402586537796594  0.5839638987438251  1.0000
  C   C50       1.0  0.982144444080788  0.3843311325477074  0.6611114966797728  1.0000
  C   C51       1.0  0.00409654833235612  0.3875629057195837  0.7405432145187518  1.0000
  C   C52       1.0  0.9929662589992957  0.3111522643631163  0.7473223045337607  1.0000
  C   C53       1.0  0.16431225656668152  0.8659167185902135  0.44503752494478016  1.0000
  C   C54       1.0  0.24477641012327922  0.8538123672317753  0.46603185735366287  1.0000
  C   C55       1.0  0.2030707549557391  0.20798351767586354  0.8037974654948173  1.0000
  C   C56       1.0  0.4040841743874212  0.21380416474107744  0.9348073776999829  1.0000
  C   C57       1.0  0.4899052610855322  0.24313417546256508  0.9310371807273443  1.0000
  C   C58       1.0  0.08889867596448668  0.8159972202289866  0.6235367269264246  1.0000
  C   C59       1.0  0.7927266391043233  0.11180084782864709  0.47547922979887164  1.0000
  C   C60       1.0  0.24329735782733752  0.5314537258264947  0.8789046737816619  1.0000
  C   C61       1.0  0.5799800903119774  0.08523476031259489  0.7875168809228799  1.0000
  C   C62       1.0  0.6011434957718507  0.0161533898809053  0.7412290869461556  1.0000
  C   C63       1.0  0.5487434862567541  0.8785744204229361  0.1985035971090028  1.0000
  O   O1        1.0  0.8843326363630126  0.9617842360800566  0.4029459680537143  1.0000
  O   O2        1.0  0.014506308301257315  0.5926848653256656  0.9271440791194935  1.0000
  O   O3        1.0  0.0767969297834057  0.4053093033593526  0.9822202578156407  1.0000
  O   O4        1.0  0.9760331281732633  0.41700898465175834  0.8857447389260145  1.0000
  O   O5        1.0  0.93844204359236  0.4078713847683987  0.02490495673567488  1.0000
  O   O6        1.0  0.8332636797985061  0.40450470731718724  0.9162465432140865  1.0000
  O   O7        1.0  0.07598942526379909  0.5840987365806426  0.16399283520751592  1.0000
  O   O8        1.0  0.9663905882832396  0.585169407914819  0.06416224107747583  1.0000
  O   O9        1.0  0.4089551184983763  0.8351490195427332  0.923233213045144  1.0000
  O   O10       1.0  0.41531826406321676  0.9431277105637861  0.03276599640786771  1.0000
  O   O11       1.0  0.596469495700461  0.969864231648792  0.05433429350364351  1.0000
  O   O12       1.0  0.9900666736103927  0.07487401314244124  0.4116471351703979  1.0000
  O   O13       1.0  0.6023323628444359  0.07915779960016774  0.16227766289741644  1.0000
  O   O14       1.0  0.5777097182303095  0.0027743801834603397  0.9041626195858117  1.0000
  O   O15       1.0  0.5930924385516576  0.11184190615956881  0.0196607311324186  1.0000
  O   O16       1.0  0.4109290410300378  0.978074930617261  0.8888620221196322  1.0000
  O   O17       1.0  0.42432027123935273  0.09161724177219108  0.9979004498319031  1.0000
  O   O18       1.0  0.9075524652141168  0.00562801967346617  0.5795308823799701  1.0000
  O   O19       1.0  0.018427060830440344  0.11300073110498239  0.5872197033407505  1.0000
  O   O20       1.0  0.05997196588101875  0.9805687468907891  0.6044434500619785  1.0000
  O   O21       1.0  0.16462236600159486  0.08279002302391092  0.6001500092374884  1.0000
  O   O22       1.0  0.9349162756555247  0.833122948882675  0.422886596606709  1.0000
  O   O23       1.0  0.04139637726049724  0.9388405587635944  0.42415166911146684  1.0000
  O   O24       1.0  0.12113405843162174  0.5904311816236572  0.02897811113603404  1.0000
  O   O25       1.0  0.272052689880674  0.1970876848329795  0.7914505364502987  1.0000
  O   O26       1.0  0.15044532006532313  0.885754127851655  0.6220848200010209  1.0000
  O   O27       1.0  0.8863538265025211  0.14857345338849356  0.5129818708034292  1.0000
  O   O28       1.0  0.19283624603977517  0.5632075990786094  0.9095922742355783  1.0000
  O   O29       1.0  0.6029498949275977  0.8772291917471764  0.15857615925279597  1.0000
