data_image0
_chemical_formula_structural       Zn2H28C24S2N4O12
_chemical_formula_sum              "Zn2 H28 C24 S2 N4 O12"
_cell_length_a       7.332024891672159
_cell_length_b       9.693796023828776
_cell_length_c       13.629229593332923
_cell_angle_alpha    110.83275406316702
_cell_angle_beta     93.52338921578347
_cell_angle_gamma    90.02823450225641

_space_group_name_H-M_alt    "P 1"
_space_group_IT_number       1

loop_
  _space_group_symop_operation_xyz
  'x, y, z'

loop_
  _atom_site_type_symbol
  _atom_site_label
  _atom_site_symmetry_multiplicity
  _atom_site_fract_x
  _atom_site_fract_y
  _atom_site_fract_z
  _atom_site_occupancy
  Zn  Zn1       1.0  0.2205598004735094  0.33729384360686515  0.5356450700501796  1.0000
  Zn  Zn2       1.0  0.7790260652039933  0.8021586826775859  0.4644215823396323  1.0000
  H   H1        1.0  0.4967132049077918  0.18164758961315644  0.6199744524405588  1.0000
  H   H2        1.0  0.5026102504209647  0.5620312983807522  0.3799919044608444  1.0000
  H   H3        1.0  0.30277841515727744  0.11280312063144042  0.6325100702944867  1.0000
  H   H4        1.0  0.696568319230828  0.4808723956365101  0.36751342661920466  1.0000
  H   H5        1.0  0.5272772073441133  0.4786964958729174  0.4998944398983483  1.0000
  H   H6        1.0  0.472292640491915  0.9785679564229496  0.5000833538517212  1.0000
  H   H7        1.0  0.5716953772855079  0.31877936484514885  0.5015273663683715  1.0000
  H   H8        1.0  0.4281605565977671  0.8169380917839321  0.49835347557449683  1.0000
  H   H9        1.0  0.12740749419477027  0.2960744162845543  0.7380908194325357  1.0000
  H   H10       1.0  0.8728685884150736  0.5583041077599449  0.2619904181582058  1.0000
  H   H11       1.0  0.14102600364923037  0.4370618916453638  0.931286244300594  1.0000
  H   H12       1.0  0.8588881188271174  0.5055652104773927  0.06870407078666567  1.0000
  H   H13       1.0  0.34916081727198645  0.8102217968852088  0.8650580170450937  1.0000
  H   H14       1.0  0.6517412713472767  0.9450899366108633  0.13468892967488702  1.0000
  H   H15       1.0  0.33810334632897815  0.6508080524235068  0.6767260299975603  1.0000
  H   H16       1.0  0.6629666821668252  0.9743709892863922  0.32302431357884126  1.0000
  H   H17       1.0  0.2127073814514162  0.6639371775740202  0.07959759536540637  1.0000
  H   H18       1.0  0.7877657206100108  0.5840046501265805  0.9203157436025649  1.0000
  H   H19       1.0  0.15036778554399174  0.993437419705373  0.4255369530051069  1.0000
  H   H20       1.0  0.849495393822785  0.5688165352218492  0.5742333782177553  1.0000
  H   H21       1.0  0.17421456370842495  0.8072075432826579  0.2489000974661834  1.0000
  H   H22       1.0  0.8258414542821271  0.5583966822167954  0.75065741229173  1.0000
  H   H23       1.0  0.3005027234258648  0.16587598948729723  0.1420928226356892  1.0000
  H   H24       1.0  0.6993802493536379  0.023788724813123  0.8583733212300899  1.0000
  H   H25       1.0  0.279284550019007  0.33778004469655093  0.3259489767402215  1.0000
  H   H26       1.0  0.7201422413518584  0.012613259465759101  0.6746656579391228  1.0000
  H   H27       1.0  0.2730888772369299  0.933135861052627  0.015103958448840219  1.0000
  H   H28       1.0  0.7269663494397564  0.9175761651086702  0.984891322258818  1.0000
  C   C1        1.0  0.18141456238862466  0.4090820130852251  0.7705318245748527  1.0000
  C   C2        1.0  0.8191510317762508  0.6388285524928605  0.22945253264239074  1.0000
  C   C3        1.0  0.18589294566059072  0.4893201734771466  0.8777418213966897  1.0000
  C   C4        1.0  0.8145325032349573  0.6115951214221269  0.12219276668695034  1.0000
  C   C5        1.0  0.24323227003869627  0.6386192330217284  0.9164056245152068  1.0000
  C   C6        1.0  0.7572735519490764  0.7220573642541978  0.0833677065757569  1.0000
  C   C7        1.0  0.29973527965336194  0.6964565706687936  0.8417526070792646  1.0000
  C   C8        1.0  0.7010134506028508  0.8546551065079485  0.15800051730634115  1.0000
  C   C9        1.0  0.29603032632441284  0.6080119280821634  0.7361020341726173  1.0000
  C   C10       1.0  0.7049349621640816  0.8721257400242735  0.26369477837502586  1.0000
  C   C11       1.0  0.23706540913909893  0.7254594030308397  0.028036886068797087  1.0000
  C   C12       1.0  0.7632476954237789  0.697060547282412  0.9717407808739508  1.0000
  C   C13       1.0  0.18758823850438233  0.026952514270277603  0.361087879671679  1.0000
  C   C14       1.0  0.8121099729037126  0.6665239760130676  0.6388081563713044  1.0000
  C   C15       1.0  0.1985914033371117  0.9229976115597227  0.2605246128225076  1.0000
  C   C16       1.0  0.8013423728919592  0.662694785726899  0.7392643391235013  1.0000
  C   C17       1.0  0.23976480578097892  0.969986165240343  0.17775116797020726  1.0000
  C   C18       1.0  0.7602867334524532  0.7922326219096407  0.8222624230856254  1.0000
  C   C19       1.0  0.2691334602478719  0.12246862511491942  0.2030361132831544  1.0000
  C   C20       1.0  0.7307845229171047  0.9196377013065559  0.7972658609655454  1.0000
  C   C21       1.0  0.2582803104024336  0.21919025052677915  0.30556664196326017  1.0000
  C   C22       1.0  0.7413446795341302  0.9142550232828413  0.6948355947000238  1.0000
  C   C23       1.0  0.2519140849705224  0.8741380314499949  0.06873995126026233  1.0000
  C   C24       1.0  0.7482372750707285  0.8050862388604331  0.9311281628690792  1.0000
  S   S1        1.0  0.1829197480293132  0.618976091887646  0.45092122864208056  1.0000
  S   S2        1.0  0.8166891806177431  0.16820193943755166  0.5492550293851011  1.0000
  N   N1        1.0  0.23605070829594868  0.46638468947455897  0.7004135806239234  1.0000
  N   N2        1.0  0.7646909010658121  0.7663387148077873  0.2995979230999452  1.0000
  N   N3        1.0  0.2178722263160395  0.17265788244728952  0.3838698608380397  1.0000
  N   N4        1.0  0.7816944509027125  0.7896257497379224  0.6162613893876169  1.0000
  O   O1        1.0  0.1031204056412278  0.49435743021071227  0.476678105401163  1.0000
  O   O2        1.0  0.8966263533467255  0.017916461104050502  0.5233930554340063  1.0000
  O   O3        1.0  0.0317199766152996  0.7069354459357982  0.42797126278251335  1.0000
  O   O4        1.0  0.9679447425208635  0.27926774194671117  0.5726638576447199  1.0000
  O   O5        1.0  0.2875198182760812  0.5592468630909551  0.35411749998884545  1.0000
  O   O6        1.0  0.7116335309730247  0.20490721997700945  0.6458708178345915  1.0000
  O   O7        1.0  0.3062304626716568  0.7132207862902578  0.5408073501722868  1.0000
  O   O8        1.0  0.6938386775813966  0.1726270164777546  0.4592645222222203  1.0000
  O   O9        1.0  0.3674314615566274  0.15133887719242986  0.5872809983256957  1.0000
  O   O10       1.0  0.631882316711277  0.5645851410098645  0.41272491847842463  1.0000
  O   O11       1.0  0.49164692271865823  0.40640330274141706  0.5314804923852989  1.0000
  O   O12       1.0  0.5079937912648518  0.8747725259697959  0.4683325289862025  1.0000
