data_image0
_chemical_formula_structural       Ba2H32C40I4N8
_chemical_formula_sum              "Ba2 H32 C40 I4 N8"
_cell_length_a       9.134922849734032
_cell_length_b       10.907986654246347
_cell_length_c       11.184611585519928
_cell_angle_alpha    88.94895555371957
_cell_angle_beta     78.24701382947171
_cell_angle_gamma    81.7636756707035

_space_group_name_H-M_alt    "P 1"
_space_group_IT_number       1

loop_
  _space_group_symop_operation_xyz
  'x, y, z'

loop_
  _atom_site_type_symbol
  _atom_site_label
  _atom_site_symmetry_multiplicity
  _atom_site_fract_x
  _atom_site_fract_y
  _atom_site_fract_z
  _atom_site_occupancy
  Ba  Ba1       1.0  0.7411364668893442  0.8891699149646964  0.6115784736369037  1.0000
  Ba  Ba2       1.0  0.25886283735524523  0.11082931996261178  0.3884192997891915  1.0000
  H   H1        1.0  0.012690781856477398  0.36736782801617807  0.6853689150719902  1.0000
  H   H2        1.0  0.9873098120262895  0.6326304970746432  0.31462955922580693  1.0000
  H   H3        1.0  0.2828910677222041  0.3878749976709056  0.6046487566818114  1.0000
  H   H4        1.0  0.7171095401710446  0.6121233599771043  0.39535239672929373  1.0000
  H   H5        1.0  0.3471990718434625  0.5961951342337597  0.5225536722019086  1.0000
  H   H6        1.0  0.6528015547304165  0.4038032668238358  0.47745105336026933  1.0000
  H   H7        1.0  0.13955387568866226  0.7700052197295121  0.527491829352698  1.0000
  H   H8        1.0  0.860446233354999  0.22999592764467275  0.4725102198249189  1.0000
  H   H9        1.0  0.8147380538964129  0.38991422169225115  0.8190404936717358  1.0000
  H   H10       1.0  0.18526063673982662  0.6100822287589052  0.18095746828208795  1.0000
  H   H11       1.0  0.5424533110790151  0.3833498529487753  0.902293610987961  1.0000
  H   H12       1.0  0.45754505788787  0.6166484826420842  0.09770703189833801  1.0000
  H   H13       1.0  0.3492349788067841  0.5398293525948573  0.8296710865078653  1.0000
  H   H14       1.0  0.6507628913105137  0.46017177272218374  0.17033045214494538  1.0000
  H   H15       1.0  0.442131002566093  0.7026927282994179  0.6842593379730033  1.0000
  H   H16       1.0  0.5578692789876385  0.29730750363590625  0.3157436033328053  1.0000
  H   H17       1.0  0.3999887234629539  0.8330286793413038  0.12675731583025404  1.0000
  H   H18       1.0  0.6000148954646036  0.1669715368439668  0.8732423725927916  1.0000
  H   H19       1.0  0.14549047776518625  0.9007463287712553  0.0888292669794666  1.0000
  H   H20       1.0  0.8545112519263185  0.09925204533153219  0.9111725882129278  1.0000
  H   H21       1.0  0.11740623015844426  0.9705249244637667  0.874437981770953  1.0000
  H   H22       1.0  0.8825918077987681  0.029475274562010198  0.12556355597227767  1.0000
  H   H23       1.0  0.3488248221373879  0.9687305414044185  0.7145491182565706  1.0000
  H   H24       1.0  0.6511712548219819  0.031274272622887594  0.28545172225327775  1.0000
  H   H25       1.0  0.604101851473878  0.7664388699296861  0.1483148755712378  1.0000
  H   H26       1.0  0.39590013279534736  0.23356408696979256  0.8516823277237364  1.0000
  H   H27       1.0  0.8637710877569731  0.6907858984205573  0.1685279013351888  1.0000
  H   H28       1.0  0.13623011039383212  0.30921518944163034  0.8314685983593293  1.0000
  H   H29       1.0  0.07758340072210497  0.7018446298706065  0.9864972924762726  1.0000
  H   H30       1.0  0.9224184734585209  0.29815276367893506  0.013500096617690372  1.0000
  H   H31       1.0  0.014073658550522358  0.7940317610422621  0.7944814725645699  1.0000
  H   H32       1.0  0.9859278846204302  0.2059674959421969  0.2055168113863247  1.0000
  C   C1        1.0  0.9338344190509745  0.5612270779472436  0.6579337582918042  1.0000
  C   C2        1.0  0.0661660210023527  0.4387722059920235  0.342067396028881  1.0000
  C   C3        1.0  0.044545796101893055  0.45743799321461154  0.6556916456828077  1.0000
  C   C4        1.0  0.95545497963127  0.5425594381421418  0.3443095068187176  1.0000
  C   C5        1.0  0.19538172031199255  0.4682075687708929  0.6082935494816866  1.0000
  C   C6        1.0  0.8046176026132343  0.5317917095660006  0.39170779609548134  1.0000
  C   C7        1.0  0.2317316272241357  0.5820954904076315  0.5626158674298907  1.0000
  C   C8        1.0  0.7682688128291915  0.41790379353164286  0.43738528689079464  1.0000
  C   C9        1.0  0.11504840431199168  0.6802740153529782  0.5652296642396664  1.0000
  C   C10       1.0  0.8849520404114911  0.31972527943869256  0.4347723831187835  1.0000
  C   C11       1.0  0.772434821185044  0.5533297982944133  0.7103583191088063  1.0000
  C   C12       1.0  0.2275667359963904  0.44666949124723476  0.28964264395539624  1.0000
  C   C13       1.0  0.7297941998030808  0.45904764301424444  0.7916382856144182  1.0000
  C   C14       1.0  0.2702017717378454  0.5409516185155139  0.2083636337321977  1.0000
  C   C15       1.0  0.5771034190506015  0.4544843707811665  0.8373388346451165  1.0000
  C   C16       1.0  0.4228990734085372  0.5455158180969376  0.1626592589588753  1.0000
  C   C17       1.0  0.46996251100337383  0.541767220685507  0.7986380973978982  1.0000
  C   C18       1.0  0.5300349133454817  0.4582301938641179  0.20136362887306797  1.0000
  C   C19       1.0  0.5213408651888827  0.6325752996791251  0.7180055740389193  1.0000
  C   C20       1.0  0.4786606873223889  0.3674239790101268  0.28199449598751875  1.0000
  C   C21       1.0  0.512564855016045  0.8583069744370841  0.9382836007742624  1.0000
  C   C22       1.0  0.4874339597192758  0.14169507192119105  0.06171685449388059  1.0000
  C   C23       1.0  0.3869122363481452  0.8594021053169879  0.0346490472847378  1.0000
  C   C24       1.0  0.6130889758131346  0.14059901510238854  0.9653501315230885  1.0000
  C   C25       1.0  0.2427493999727091  0.8987048323030106  0.013304647026430411  1.0000
  C   C26       1.0  0.7572507044007891  0.10129630421877779  0.9866965091134148  1.0000
  C   C27       1.0  0.22678375797418943  0.9372647806795483  0.8967781313262577  1.0000
  C   C28       1.0  0.7732142753128599  0.0627354074938324  0.10322251337920818  1.0000
  C   C29       1.0  0.3568583386066423  0.9362891130961654  0.8064288296376674  1.0000
  C   C30       1.0  0.6431395361808114  0.06371202307326479  0.1935736020529149  1.0000
  C   C31       1.0  0.6682394357465569  0.8141009310607358  0.9559721123127148  1.0000
  C   C32       1.0  0.33176048210638237  0.18590108834273164  0.04402547258563769  1.0000
  C   C33       1.0  0.6951344953767631  0.767495621995714  0.06858956643159786  1.0000
  C   C34       1.0  0.30486525463626174  0.23250732369901772  0.9314080193763347  1.0000
  C   C35       1.0  0.8423206791602099  0.7255486971539538  0.08097033373012859  1.0000
  C   C36       1.0  0.15768069150066566  0.27445147526937314  0.9190270580925741  1.0000
  C   C37       1.0  0.9602262929838191  0.7323067129885813  0.9811976052691378  1.0000
  C   C38       1.0  0.039776530484985494  0.2676916124546053  0.018799593477929498  1.0000
  C   C39       1.0  0.9248853400577344  0.7830216983750233  0.8735713091791196  1.0000
  C   C40       1.0  0.0751158580930635  0.2169793894871646  0.1264251905153984  1.0000
  I   I1        1.0  0.48584374004320113  0.8233743851764143  0.42015162746545803  1.0000
  I   I2        1.0  0.5141555688715514  0.17662486060329738  0.5798470389983947  1.0000
  I   I3        1.0  0.0019859596338705006  0.08734070017563057  0.6679942759825863  1.0000
  I   I4        1.0  0.9980128988422834  0.912654823984262  0.33200368506165734  1.0000
  N   N1        1.0  0.9692403842935705  0.6711040251230711  0.6113048685424332  1.0000
  N   N2        1.0  0.030760051089600893  0.3288952479637999  0.38869539274048037  1.0000
  N   N3        1.0  0.6681579798683898  0.6404777850894802  0.6765340130173315  1.0000
  N   N4        1.0  0.3318400627589781  0.3595224247886931  0.3234684177636638  1.0000
  N   N5        1.0  0.49650584649195667  0.8979482531442141  0.8255990719863034  1.0000
  N   N6        1.0  0.5034918464451081  0.1020537767592913  0.1744006815005505  1.0000
  N   N7        1.0  0.7832964295610905  0.8217573941767496  0.8596490286422024  1.0000
  N   N8        1.0  0.21670348829185562  0.17824462522671775  0.14034855625614992  1.0000
