data_image0
_chemical_formula_structural       Cd2H20C24I4N8O2
_chemical_formula_sum              "Cd2 H20 C24 I4 N8 O2"
_cell_length_a       7.407464409910055
_cell_length_b       7.5506584030871355
_cell_length_c       13.388502091971132
_cell_angle_alpha    90.0000001513901
_cell_angle_beta     93.26119169618038
_cell_angle_gamma    90.00056151928301

_space_group_name_H-M_alt    "P 1"
_space_group_IT_number       1

loop_
  _space_group_symop_operation_xyz
  'x, y, z'

loop_
  _atom_site_type_symbol
  _atom_site_label
  _atom_site_symmetry_multiplicity
  _atom_site_fract_x
  _atom_site_fract_y
  _atom_site_fract_z
  _atom_site_occupancy
  Cd  Cd1       1.0  0.6486188374385762  0.8615401812565082  0.43408876232199145  1.0000
  Cd  Cd2       1.0  0.6486262441596865  0.13846970708988232  0.9340883327476849  1.0000
  H   H1        1.0  0.797454691429671  0.7974814448930728  0.12449073945790452  1.0000
  H   H2        1.0  0.7974613834461833  0.2025163554962432  0.6244925102225526  1.0000
  H   H3        1.0  0.26116738230111747  0.46856579546970767  0.1610871402387773  1.0000
  H   H4        1.0  0.26117730255558064  0.5314426762713326  0.661090404987263  1.0000
  H   H5        1.0  0.0271750134844737  0.35551231091180563  0.2738192877247202  1.0000
  H   H6        1.0  0.027169794540178302  0.6444780846691811  0.7738175820589536  1.0000
  H   H7        1.0  0.04338816762417961  0.45460317463299293  0.45314404645534284  1.0000
  H   H8        1.0  0.04338198152785821  0.5453822578842207  0.9531430878161091  1.0000
  H   H9        1.0  0.290093799210375  0.6617545596362149  0.5114608615532887  1.0000
  H   H10       1.0  0.29009074268869034  0.33824345401770717  0.011463817089215005  1.0000
  H   H11       1.0  0.5357535508228112  0.644988830442223  0.13655751366646035  1.0000
  H   H12       1.0  0.5357576968066057  0.3550249577610316  0.6365628973991024  1.0000
  H   H13       1.0  0.2698199369627403  0.06802599959417681  0.29753577125809033  1.0000
  H   H14       1.0  0.2698243385395572  0.9319787173600034  0.7975439801962667  1.0000
  H   H15       1.0  0.5135272575804848  0.16024161484119756  0.1868183733709615  1.0000
  H   H16       1.0  0.5135212906897735  0.8397481656566796  0.6868262974689119  1.0000
  H   H17       1.0  0.2519978550775264  0.9177017998229288  0.9415834981328007  1.0000
  H   H18       1.0  0.2519990593895685  0.08229096393714737  0.441588151195326  1.0000
  H   H19       1.0  0.9981785730656156  0.8232046463582847  0.0375603351219738  1.0000
  H   H20       1.0  0.9981904556313881  0.17679503662328952  0.5375697387979488  1.0000
  C   C1        1.0  0.4013930379161011  0.6179336472831451  0.2790043217575119  1.0000
  C   C2        1.0  0.40139880103730263  0.38207631448960905  0.7790097461797888  1.0000
  C   C3        1.0  0.2645707916392793  0.5059374260983631  0.2397893363247122  1.0000
  C   C4        1.0  0.26457899366545234  0.4940645341067337  0.7397925603849205  1.0000
  C   C5        1.0  0.13514658816446  0.443098593662519  0.3024770860370013  1.0000
  C   C6        1.0  0.1351486312030588  0.5568928884400887  0.8024771185689235  1.0000
  C   C7        1.0  0.1446327041656801  0.4959854676308311  0.4021160299039012  1.0000
  C   C8        1.0  0.14463017947522164  0.5040101781498052  0.9021174343902347  1.0000
  C   C9        1.0  0.2819374244034735  0.612046234294908  0.43500574661445074  1.0000
  C   C10       1.0  0.2819364640149544  0.38795741160885905  0.9350064854888844  1.0000
  C   C11       1.0  0.5443941033508254  0.6771132628927103  0.21665644713910137  1.0000
  C   C12       1.0  0.5444006221426037  0.32289539088704794  0.7166581771947451  1.0000
  C   C13       1.0  0.9682850180406889  0.8874956841981074  0.24628150818867314  1.0000
  C   C14       1.0  0.9682827626596835  0.11249728806961194  0.746293492995257  1.0000
  C   C15       1.0  0.11233808923046243  0.9380817456653006  0.17805419124761812  1.0000
  C   C16       1.0  0.11234342109467832  0.06191866177399418  0.6780596970983198  1.0000
  C   C17       1.0  0.26099436453979763  0.033095189061342005  0.2186808536627255  1.0000
  C   C18       1.0  0.2609950651900377  0.9669040666110718  0.7186919285708274  1.0000
  C   C19       1.0  0.3969119659579335  0.08415892181066909  0.15715427905789175  1.0000
  C   C20       1.0  0.3969094384662668  0.9158349840508535  0.657160043491679  1.0000
  C   C21       1.0  0.2522248160246079  0.949460170077266  0.020811556080857902  1.0000
  C   C22       1.0  0.2522300465469911  0.050533508386280304  0.5208193029736068  1.0000
  C   C23       1.0  0.10929565094824771  0.8948152553634255  0.07633108475118892  1.0000
  C   C24       1.0  0.1093014099518612  0.10518634705591978  0.5763373376097294  1.0000
  I   I1        1.0  0.6678276080469134  0.22831866436086304  0.412875035406117  1.0000
  I   I2        1.0  0.6677912029874521  0.7716874181412263  0.912876835168156  1.0000
  I   I3        1.0  0.8207943542624534  0.6701246801646192  0.5872739222013836  1.0000
  I   I4        1.0  0.8207979632064949  0.3298892052231109  0.08727409315029183  1.0000
  N   N1        1.0  0.4071446274134161  0.672318384068184  0.3755790805341946  1.0000
  N   N2        1.0  0.40715255209098444  0.3276890798659479  0.8755823453094467  1.0000
  N   N3        1.0  0.6806071698859597  0.7617026007052701  0.2581199811217801  1.0000
  N   N4        1.0  0.6806115147430136  0.23829815821887473  0.7581231645223813  1.0000
  N   N5        1.0  0.8139411842531461  0.8142377177119187  0.20079321854565535  1.0000
  N   N6        1.0  0.8139463363537018  0.18576296775675868  0.7007897195246786  1.0000
  N   N7        1.0  0.39316895863419193  0.04392660243946269  0.059262660206982815  1.0000
  N   N8        1.0  0.3931708918323978  0.9560658465304357  0.5592707877556224  1.0000
  O   O1        1.0  0.9861575481883662  0.908328437000982  0.33788436162243596  1.0000
  O   O2        1.0  0.9861468980051387  0.09165817815782161  0.8378789209616716  1.0000
