data_image0
_chemical_formula_structural       Co4P4H40C36N4O20
_chemical_formula_sum              "Co4 P4 H40 C36 N4 O20"
_cell_length_a       8.528604753574845
_cell_length_b       9.852258508513968
_cell_length_c       12.50518911081706
_cell_angle_alpha    90.00152125922598
_cell_angle_beta     89.99718135946978
_cell_angle_gamma    90.00990113223122

_space_group_name_H-M_alt    "P 1"
_space_group_IT_number       1

loop_
  _space_group_symop_operation_xyz
  'x, y, z'

loop_
  _atom_site_type_symbol
  _atom_site_label
  _atom_site_symmetry_multiplicity
  _atom_site_fract_x
  _atom_site_fract_y
  _atom_site_fract_z
  _atom_site_occupancy
  Co  Co1       1.0  0.18682272447046694  0.9226217421805177  0.12055087759309661  1.0000
  Co  Co2       1.0  0.6872762380852961  0.07731353583309193  0.8794624943599983  1.0000
  Co  Co3       1.0  0.18666484804219152  0.422509555056287  0.8793834189272047  1.0000
  Co  Co4       1.0  0.6870565271610902  0.5771069872489962  0.1207035255268138  1.0000
  P   P1        1.0  0.33419850934348727  0.14683823591899886  0.9760155152934118  1.0000
  P   P2        1.0  0.8340599358906857  0.8530673208937075  0.024072049075933  1.0000
  P   P3        1.0  0.3340865656746103  0.6467928781724981  0.0239855786117644  1.0000
  P   P4        1.0  0.8340945103943509  0.3532182291315494  0.9759076688406481  1.0000
  H   H1        1.0  0.2864947239224094  0.880992160819162  0.9122289064111797  1.0000
  H   H2        1.0  0.7866977668283466  0.11894585587940305  0.08777869977951981  1.0000
  H   H3        1.0  0.2865388991782821  0.3810675573185307  0.0877891077355528  1.0000
  H   H4        1.0  0.7865011609159893  0.618862328758006  0.912264082025544  1.0000
  H   H5        1.0  0.359803838047661  0.9384688096697361  0.795484733206429  1.0000
  H   H6        1.0  0.8598405171713992  0.06153803568554391  0.2045100014358638  1.0000
  H   H7        1.0  0.3597200663884266  0.4385785685661008  0.20453360925732514  1.0000
  H   H8        1.0  0.8597026824620996  0.5614648013586675  0.795540296651069  1.0000
  H   H9        1.0  0.08894926135110379  0.07750746978765483  0.8940217746797572  1.0000
  H   H10       1.0  0.5888667225755028  0.9225389613415801  0.10609727520682101  1.0000
  H   H11       1.0  0.0887681322807623  0.5774262911986129  0.10595177435347838  1.0000
  H   H12       1.0  0.5886538805307779  0.42252165253508894  0.8939713624936658  1.0000
  H   H13       1.0  0.22461414266561522  0.13889378968848123  0.7957361249356296  1.0000
  H   H14       1.0  0.7245170353580193  0.8612084969778379  0.20439193179618798  1.0000
  H   H15       1.0  0.22438261214160346  0.6389509035815806  0.20422852826146  1.0000
  H   H16       1.0  0.7242490802246522  0.3611523560584971  0.7956260504591769  1.0000
  H   H17       1.0  0.020912538232366298  0.8776293868419104  0.8225042114105959  1.0000
  H   H18       1.0  0.5209667869873158  0.12234189646071772  0.17750038492230397  1.0000
  H   H19       1.0  0.0208986882463407  0.37754742350531967  0.1774819307436886  1.0000
  H   H20       1.0  0.5208598697672571  0.6224492254926519  0.8225138715491481  1.0000
  H   H21       1.0  0.1593599765185374  0.745094182148847  0.8025423650762917  1.0000
  H   H22       1.0  0.659405208570895  0.2549232233545453  0.19742316371445406  1.0000
  H   H23       1.0  0.15942678181098563  0.24507582501671987  0.1974315153407389  1.0000
  H   H24       1.0  0.6594357190403387  0.7549253488684898  0.8025947864047325  1.0000
  H   H25       1.0  0.9688200865633899  0.045616601553142316  0.672556091416574  1.0000
  H   H26       1.0  0.4688118626179261  0.9544045477628419  0.32740456969380455  1.0000
  H   H27       1.0  0.9688283113406939  0.5456068220391898  0.32740861888044753  1.0000
  H   H28       1.0  0.46877549466817203  0.45441026620602554  0.6726128174339081  1.0000
  H   H29       1.0  0.9620318837880648  0.07604031683242601  0.4750785041035286  1.0000
  H   H30       1.0  0.4619940849072108  0.9239483481740153  0.5248879844273517  1.0000
  H   H31       1.0  0.9620142563103826  0.5760534098016593  0.5248910730831042  1.0000
  H   H32       1.0  0.4619812264122557  0.42394946367959824  0.4751241958624988  1.0000
  H   H33       1.0  0.2731541310219184  0.7371968271893651  0.4352112466837639  1.0000
  H   H34       1.0  0.7731981024986111  0.2628021078070262  0.5647840193417224  1.0000
  H   H35       1.0  0.2730949907670706  0.23718369626578112  0.5647538235734402  1.0000
  H   H36       1.0  0.7731646144854168  0.762829441836985  0.4352478415117176  1.0000
  H   H37       1.0  0.2831995731618875  0.7061988576847754  0.6320498381311097  1.0000
  H   H38       1.0  0.7832978100836738  0.29382290178455867  0.3679466868037125  1.0000
  H   H39       1.0  0.2831638944022146  0.20616490564977147  0.3679158407632457  1.0000
  H   H40       1.0  0.7832560997126591  0.7938335032000127  0.6320854832435288  1.0000
  C   C1        1.0  0.21184123117348014  0.07639669900855493  0.8678745384482198  1.0000
  C   C2        1.0  0.7117722826142839  0.9236062352435329  0.1322115663540373  1.0000
  C   C3        1.0  0.21165824030605762  0.5764107935549989  0.1321132243278669  1.0000
  C   C4        1.0  0.7115413750636463  0.4235626721071102  0.8678121538894814  1.0000
  C   C5        1.0  0.1328897607591131  0.851582199304403  0.7844818278515077  1.0000
  C   C6        1.0  0.6329570375919006  0.14843733108195073  0.2154989898667665  1.0000
  C   C7        1.0  0.1328943015938364  0.3515542943191364  0.2154927838788012  1.0000
  C   C8        1.0  0.632884487834474  0.64845203657773  0.7845208212405127  1.0000
  C   C9        1.0  0.12870336391922174  0.8747623954838843  0.6658985692236002  1.0000
  C   C10       1.0  0.6287540196729038  0.12525447626712352  0.3340823903366541  1.0000
  C   C11       1.0  0.1286701074056325  0.3747354265428557  0.3340742720593041  1.0000
  C   C12       1.0  0.6286958163929839  0.6252641839651717  0.6659386755879169  1.0000
  C   C13       1.0  0.037563243676920904  0.9786558638535542  0.62111899066538  1.0000
  C   C14       1.0  0.5375641984694965  0.02135952514327501  0.37885465649991085  1.0000
  C   C15       1.0  0.03754789022773511  0.4786435955825753  0.3788527152670369  1.0000
  C   C16       1.0  0.5375244408866138  0.5213626550083676  0.621161715804142  1.0000
  C   C17       1.0  0.031984154967389586  0.9956598428483546  0.5106331293230468  1.0000
  C   C18       1.0  0.5319597444471994  0.0043364381557964  0.4893375080898537  1.0000
  C   C19       1.0  0.031956207875914806  0.4956624504373863  0.4893383227438974  1.0000
  C   C20       1.0  0.5319349275938662  0.5043460072867989  0.5106754977629038  1.0000
  C   C21       1.0  0.1170036096439091  0.9094280000304527  0.4431364058655802  1.0000
  C   C22       1.0  0.6169950690871316  0.09056173887617551  0.5568377530980371  1.0000
  C   C23       1.0  0.1169579353428105  0.40942475374232873  0.5568239645008006  1.0000
  C   C24       1.0  0.6169727371692417  0.5905812206578319  0.44318937951686627  1.0000
  C   C25       1.0  0.20747532252737239  0.8047377047237279  0.48760491650264737  1.0000
  C   C26       1.0  0.7075025498254065  0.19526458087572254  0.5123885728344462  1.0000
  C   C27       1.0  0.2074246203772745  0.3047187542793069  0.5123621925511586  1.0000
  C   C28       1.0  0.7074723476137165  0.6952865704597643  0.48764409287451826  1.0000
  C   C29       1.0  0.21302864578901648  0.7879976208941813  0.5979844252002806  1.0000
  C   C30       1.0  0.7130858685918112  0.21202376904921044  0.4020040780019372  1.0000
  C   C31       1.0  0.21299170260126488  0.28796785823298177  0.4019829441498359  1.0000
  C   C32       1.0  0.7130477671109433  0.7120291664991856  0.5980239524306441  1.0000
  C   C33       1.0  0.1131138492225787  0.9328558947709882  0.3255879152570529  1.0000
  C   C34       1.0  0.6130992584626115  0.06706424096461923  0.6743823762947798  1.0000
  C   C35       1.0  0.11306797301929089  0.43286065759055986  0.6743730782685802  1.0000
  C   C36       1.0  0.6131510011350302  0.567115304154207  0.3256451938517557  1.0000
  N   N1        1.0  0.25749774237090145  0.9335422337034349  0.8415816761251236  1.0000
  N   N2        1.0  0.7575539465083097  0.06648582056850222  0.1584053231677984  1.0000
  N   N3        1.0  0.2574477490449141  0.43359360653831674  0.158426427549955  1.0000
  N   N4        1.0  0.7573823297561049  0.5664222519718223  0.841607755776657  1.0000
  O   O1        1.0  0.2663451064018146  0.10361590597349854  0.0849253265367835  1.0000
  O   O2        1.0  0.7657081384060689  0.8959414520282323  0.9152253122595582  1.0000
  O   O3        1.0  0.2664050803190818  0.6035162527538277  0.9150427662454064  1.0000
  O   O4        1.0  0.7656293950532388  0.39583809944888065  0.08479520053712258  1.0000
  O   O5        1.0  0.4983736547791509  0.08854589495192763  0.9614269822210558  1.0000
  O   O6        1.0  0.9980592908738685  0.9119567059128645  0.0383799529860909  1.0000
  O   O7        1.0  0.49822431099735104  0.5884817425058275  0.0387472618641951  1.0000
  O   O8        1.0  0.9977549314406956  0.4128165882321257  0.9614907104333952  1.0000
  O   O9        1.0  0.3278910109175328  0.3027703538258493  0.9650554082552675  1.0000
  O   O10       1.0  0.828653906287343  0.6971810199758154  0.0353250331780686  1.0000
  O   O11       1.0  0.3278896748909191  0.8027324769776244  0.0349115842322263  1.0000
  O   O12       1.0  0.8292767181694457  0.19728591852147306  0.9646004079086125  1.0000
  O   O13       1.0  0.2102056746721672  0.8623920605541714  0.267660780429793  1.0000
  O   O14       1.0  0.71029125783744  0.1374604187037818  0.7323006272839336  1.0000
  O   O15       1.0  0.21008529410786989  0.3623053839162864  0.7322778586152837  1.0000
  O   O16       1.0  0.7102709409076269  0.6376313308121696  0.2677651185009182  1.0000
  O   O17       1.0  0.022851354681215196  0.020005968067515305  0.284585683736637  1.0000
  O   O18       1.0  0.5227648056160846  0.9799219489948641  0.7153332844695584  1.0000
  O   O19       1.0  0.022876383585440897  0.5200660638672332  0.7153872930866001  1.0000
  O   O20       1.0  0.522976626624157  0.4798902921928134  0.2846132375522217  1.0000
