data_image0
_chemical_formula_structural       Gd2H24C54N12O24
_chemical_formula_sum              "Gd2 H24 C54 N12 O24"
_cell_length_a       12.837155249118664
_cell_length_b       12.834345635416556
_cell_length_c       15.626505055042744
_cell_angle_alpha    89.96464015909424
_cell_angle_beta     90.05141591218457
_cell_angle_gamma    120.01167241046625

_space_group_name_H-M_alt    "P 1"
_space_group_IT_number       1

loop_
  _space_group_symop_operation_xyz
  'x, y, z'

loop_
  _atom_site_type_symbol
  _atom_site_label
  _atom_site_symmetry_multiplicity
  _atom_site_fract_x
  _atom_site_fract_y
  _atom_site_fract_z
  _atom_site_occupancy
  Gd  Gd1       1.0  0.6675786861389452  0.33363634090034094  0.5607334245700315  1.0000
  Gd  Gd2       1.0  0.33369286708836626  0.6661004297356142  0.060683460337699585  1.0000
  H   H1        1.0  0.25724921517702637  0.04308188991889487  0.7154501069381851  1.0000
  H   H2        1.0  0.7856760423536358  0.7427574292224505  0.7153681947937187  1.0000
  H   H3        1.0  0.9567657687388618  0.2142884960907949  0.7153649951005789  1.0000
  H   H4        1.0  0.21454759048152994  0.9571549166561368  0.21495218566580823  1.0000
  H   H5        1.0  0.042966575637038276  0.25750219996268  0.21486131438054196  1.0000
  H   H6        1.0  0.7423770872260603  0.7854297167509046  0.2148293174491087  1.0000
  H   H7        1.0  0.5854775898512941  0.04858869856720098  0.7796743477081305  1.0000
  H   H8        1.0  0.4629448507439236  0.41438536465827275  0.7793019034262654  1.0000
  H   H9        1.0  0.9515590627120148  0.5370863299067989  0.7795847563001246  1.0000
  H   H10       1.0  0.5371760482729542  0.95163190084655  0.2795271128042458  1.0000
  H   H11       1.0  0.048189028674251094  0.585548902716738  0.2790458789555075  1.0000
  H   H12       1.0  0.4144944284855184  0.4627598557006393  0.27953607194504565  1.0000
  H   H13       1.0  0.27081241787765703  0.8397638805817919  0.9341459335815188  1.0000
  H   H14       1.0  0.5689575657257606  0.7289476209735639  0.9340109065308722  1.0000
  H   H15       1.0  0.16036655019865254  0.4309440163329795  0.9340761802709918  1.0000
  H   H16       1.0  0.43085406600175696  0.16014168484757352  0.433877750276821  1.0000
  H   H17       1.0  0.8400340883192357  0.2707337445304317  0.4336908881972547  1.0000
  H   H18       1.0  0.7297098045397448  0.5692684635729178  0.433796478070981  1.0000
  H   H19       1.0  0.08659034680171364  0.8021545637168329  0.8719944540297246  1.0000
  H   H20       1.0  0.7154473477156102  0.9131610995355216  0.8720648472788779  1.0000
  H   H21       1.0  0.19775332721486188  0.28443714451065455  0.872110282921511  1.0000
  H   H22       1.0  0.2843784188677461  0.19779447625812446  0.3715150909775744  1.0000
  H   H23       1.0  0.8023628558521237  0.08674294468364949  0.3715829244722143  1.0000
  H   H24       1.0  0.9134797187302294  0.7156443453966759  0.3715592467429545  1.0000
  C   C1        1.0  0.06427124578735285  0.9474041513044115  0.8357764874034217  1.0000
  C   C2        1.0  0.8830096490513667  0.9356230560219814  0.8357828867897081  1.0000
  C   C3        1.0  0.05246979126989968  0.116863114288499  0.8357163331723285  1.0000
  C   C4        1.0  0.11694696150819077  0.0526213332627563  0.3352472091382381  1.0000
  C   C5        1.0  0.947442693973933  0.0643482564598868  0.3352049731887518  1.0000
  C   C6        1.0  0.9356969186345907  0.8831317903735965  0.3351352198782322  1.0000
  C   C7        1.0  0.2506811690161753  0.9384388231000359  0.828024270856119  1.0000
  C   C8        1.0  0.6876525633045245  0.7491786059801128  0.8279289200004527  1.0000
  C   C9        1.0  0.06155051264774861  0.31229928806686047  0.8279481181593125  1.0000
  C   C10       1.0  0.3123727654870123  0.06166533495989057  0.327607621789582  1.0000
  C   C11       1.0  0.9384042415035764  0.2507534243194553  0.3274636355981357  1.0000
  C   C12       1.0  0.7493707448961684  0.6876398342344955  0.3275052316089955  1.0000
  C   C13       1.0  0.3073534585891267  0.016888538638667676  0.7579938669085562  1.0000
  C   C14       1.0  0.7094009894901561  0.6925989147353491  0.7578492407784907  1.0000
  C   C15       1.0  0.9830114188733389  0.29057466539866533  0.7578882770348372  1.0000
  C   C16       1.0  0.2907629713183722  0.983323817468211  0.2575688986398461  1.0000
  C   C17       1.0  0.016714796893793956  0.30749858312405814  0.257386516130687  1.0000
  C   C18       1.0  0.6924390280574002  0.7092202374699283  0.2574588291957198  1.0000
  C   C19       1.0  0.42653517258074913  0.05354124493038624  0.740623372772852  1.0000
  C   C20       1.0  0.6268606038753928  0.5733895039516169  0.7403776363394596  1.0000
  C   C21       1.0  0.9464667640168325  0.37320308955856485  0.7405171429604991  1.0000
  C   C22       1.0  0.373320901652093  0.9466817189980148  0.2403065541323812  1.0000
  C   C23       1.0  0.05328498753127051  0.42669889373922837  0.2400051430382959  1.0000
  C   C24       1.0  0.573231946119577  0.6265667827572797  0.2402457599626615  1.0000
  C   C25       1.0  0.491498539906857  0.017770362483311382  0.7938675465526543  1.0000
  C   C26       1.0  0.5261550920620054  0.5083869738607518  0.7935712549675955  1.0000
  C   C27       1.0  0.9824119218388321  0.47391666374127794  0.7937830746536747  1.0000
  C   C28       1.0  0.4739788895231526  0.9824360848904661  0.2936243208544767  1.0000
  C   C29       1.0  0.01747938965030466  0.49154823343592113  0.293261475652038  1.0000
  C   C30       1.0  0.5085502335967362  0.5259389605340418  0.2936249607931032  1.0000
  C   C31       1.0  0.43621055856267094  0.9411799688694275  0.8637014893412243  1.0000
  C   C32       1.0  0.5048952561923769  0.5635541682546048  0.8634551129692056  1.0000
  C   C33       1.0  0.05905820833964972  0.4951609397493896  0.8636150976263577  1.0000
  C   C34       1.0  0.49511276838885726  0.05893090821552247  0.3634608233975598  1.0000
  C   C35       1.0  0.9410949961797498  0.4362344793689915  0.3631613321193612  1.0000
  C   C36       1.0  0.564084242570523  0.504854963371649  0.3634512243181333  1.0000
  C   C37       1.0  0.3154687410094965  0.899302274437332  0.8801075959635796  1.0000
  C   C38       1.0  0.5837784443839168  0.6843175342900522  0.8799623298948802  1.0000
  C   C39       1.0  0.10085420875098082  0.41622673144134126  0.8800256838191132  1.0000
  C   C40       1.0  0.41615530377107746  0.10072157999643847  0.3798086956047015  1.0000
  C   C41       1.0  0.8993743404673467  0.31548797582053106  0.3796058350594294  1.0000
  C   C42       1.0  0.6848385940126108  0.583842881224186  0.3797331828465289  1.0000
  C   C43       1.0  0.49096094330720763  0.13122532762309186  0.6653307534820172  1.0000
  C   C44       1.0  0.6401930519740303  0.5088688768335174  0.6651739685179976  1.0000
  C   C45       1.0  0.8684516337530539  0.3602129191171457  0.6653825885109368  1.0000
  C   C46       1.0  0.3600392735926331  0.8688754135761055  0.1651278439174391  1.0000
  C   C47       1.0  0.1313151060942984  0.4914979290872452  0.1649269031880465  1.0000
  C   C48       1.0  0.5080762633229057  0.6395221417024075  0.1651803188849854  1.0000
  C   C49       1.0  0.5094093910255135  0.9024808091612824  0.9165508209871618  1.0000
  C   C50       1.0  0.3930678744140791  0.4901875819769969  0.916260288849756  1.0000
  C   C51       1.0  0.09762759692175374  0.6069233376951216  0.916522023748868  1.0000
  C   C52       1.0  0.606868735181571  0.09755893228203388  0.41645350129630987  1.0000
  C   C53       1.0  0.9027106569312834  0.5094895941181788  0.4161488905090777  1.0000
  C   C54       1.0  0.4909993343525372  0.3932365052182191  0.4165469323360895  1.0000
  N   N1        1.0  0.9439225619093604  0.8754342095134431  0.8353118919590301  1.0000
  N   N2        1.0  0.9313834568102595  0.055973952073003326  0.8351864639878173  1.0000
  N   N3        1.0  0.12444826838362386  0.06855446754114065  0.8351314292657575  1.0000
  N   N4        1.0  0.06853522533960901  0.12457037218337062  0.3347634155349937  1.0000
  N   N5        1.0  0.8754774791015051  0.9439978397435025  0.3345643946214878  1.0000
  N   N6        1.0  0.05599069194629159  0.9314744176399898  0.3346040708164608  1.0000
  N   N7        1.0  0.12991096452338957  0.8899039390158946  0.8448367385076594  1.0000
  N   N8        1.0  0.7598651955226499  0.8699180755240119  0.8448591363596589  1.0000
  N   N9        1.0  0.11000591930843476  0.24006798896161996  0.8448431378939387  1.0000
  N   N10       1.0  0.24006091583846262  0.11014615026958553  0.3443445766829355  1.0000
  N   N11       1.0  0.8899428257242903  0.13000191588723453  0.3443119398128758  1.0000
  N   N12       1.0  0.8700933709877459  0.7599302637420349  0.3442697038633824  1.0000
  O   O1        1.0  0.4351438362401936  0.14570735701107648  0.6043516414978853  1.0000
  O   O2        1.0  0.7105819355078536  0.5644497350357084  0.6042428519310192  1.0000
  O   O3        1.0  0.8530685154842955  0.28978335689285467  0.6043574009455455  1.0000
  O   O4        1.0  0.2898811288438948  0.8543936522350464  0.10404506187546757  1.0000
  O   O5        1.0  0.1464002698187271  0.43625697419057013  0.1039049153158018  1.0000
  O   O6        1.0  0.5630480086118083  0.7098435532943981  0.1040610603411878  1.0000
  O   O7        1.0  0.6061032035193106  0.18197895605037923  0.6670496286385301  1.0000
  O   O8        1.0  0.5757913965471742  0.3936946037762964  0.6669792353893838  1.0000
  O   O9        1.0  0.8181752084289611  0.42505531545953784  0.6675948563501278  1.0000
  O   O10       1.0  0.4242016251633202  0.8178929116647139  0.1670182226264316  1.0000
  O   O11       1.0  0.1820221447165691  0.6066657658038678  0.1670124631787715  1.0000
  O   O12       1.0  0.3929620143856383  0.5748001464317696  0.167558330829003  1.0000
  O   O13       1.0  0.620752709032395  0.9530873414841494  0.9012921243259555  1.0000
  O   O14       1.0  0.3325051435825371  0.3788050875860022  0.9009120007805433  1.0000
  O   O15       1.0  0.04679738015797585  0.6674991747938177  0.901297243834982  1.0000
  O   O16       1.0  0.6677809543537165  0.047146109434819936  0.4012242418120238  1.0000
  O   O17       1.0  0.953412614130677  0.6208815877778945  0.4008581969164381  1.0000
  O   O18       1.0  0.37962652582695705  0.3324099763981962  0.4013029542633433  1.0000
  O   O19       1.0  0.4537017293057062  0.8198834359724501  0.9715279485733104  1.0000
  O   O20       1.0  0.36612049158972576  0.5457547424700236  0.9712406161290517  1.0000
  O   O21       1.0  0.1802849883351384  0.6338972019913242  0.9714793132375306  1.0000
  O   O22       1.0  0.6334367491460355  0.17990423767035668  0.4715720553193847  1.0000
  O   O23       1.0  0.8203942789679388  0.4538510908577961  0.4712719241025525  1.0000
  O   O24       1.0  0.5467492519465792  0.3666446051069696  0.4717179613267177  1.0000
