data_image0
_chemical_formula_structural       H20Pb2C28N16O2
_chemical_formula_sum              "H20 Pb2 C28 N16 O2"
_cell_length_a       8.2806699425484
_cell_length_b       9.576998860982139
_cell_length_c       10.650378768425355
_cell_angle_alpha    73.23473322618578
_cell_angle_beta     77.19411768443524
_cell_angle_gamma    81.93311689814287

_space_group_name_H-M_alt    "P 1"
_space_group_IT_number       1

loop_
  _space_group_symop_operation_xyz
  'x, y, z'

loop_
  _atom_site_type_symbol
  _atom_site_label
  _atom_site_symmetry_multiplicity
  _atom_site_fract_x
  _atom_site_fract_y
  _atom_site_fract_z
  _atom_site_occupancy
  H   H1        1.0  0.020122767113463218  0.4131867345800017  0.14638545453773597  1.0000
  H   H2        1.0  0.979878554020253  0.5868166922878117  0.8536137789902939  1.0000
  H   H3        1.0  0.840382188128693  0.4589417935788589  0.11680669779109114  1.0000
  H   H4        1.0  0.15961913300502323  0.5410616332889547  0.8831925357369315  1.0000
  H   H5        1.0  0.7228722613795355  0.0443935212323439  0.20160913390048313  1.0000
  H   H6        1.0  0.27714011459510596  0.9556110483861313  0.7983822888538726  1.0000
  H   H7        1.0  0.6015676325747421  0.14172537094584917  0.39946200276485655  1.0000
  H   H8        1.0  0.3984329343851627  0.8582736292024717  0.6005347830153056  1.0000
  H   H9        1.0  0.7005887105236469  0.017832164072118  0.6171810816453629  1.0000
  H   H10       1.0  0.29941320294219753  0.9821657634628027  0.3828167011017812  1.0000
  H   H11       1.0  0.91599306575479  0.8112062015186365  0.6229027924207672  1.0000
  H   H12       1.0  0.08400537748693891  0.1887894830749204  0.3770942981756491  1.0000
  H   H13       1.0  0.1065285553901845  0.6586765645268287  0.6148409397654433  1.0000
  H   H14       1.0  0.8934607209478643  0.3413234906764231  0.3851640496241799  1.0000
  H   H15       1.0  0.32485245758551423  0.4600384174956105  0.5996706506310403  1.0000
  H   H16       1.0  0.6751436031186842  0.5399561879001309  0.4003308871485274  1.0000
  H   H17       1.0  0.4164453081433379  0.3895191608116305  0.38068069085399264  1.0000
  H   H18       1.0  0.5835559094989335  0.6104853408643932  0.6193163956349963  1.0000
  H   H19       1.0  0.2703592755685946  0.5214835287778428  0.19219243424475246  1.0000
  H   H20       1.0  0.7296413727799802  0.4785264336797396  0.8078023534940115  1.0000
  Pb  Pb1       1.0  0.9559011083918066  0.7607436953987657  0.09528964918178677  1.0000
  Pb  Pb2       1.0  0.044101317707308914  0.2392608662990766  0.9047119115317984  1.0000
  C   C1        1.0  0.7635481451988041  0.9966898003290867  0.2967020792359492  1.0000
  C   C2        1.0  0.2364570257486491  0.0033125294014410994  0.7032930389666205  1.0000
  C   C3        1.0  0.696428426207504  0.05016669068478309  0.40753990658655675  1.0000
  C   C4        1.0  0.30357291796464375  0.9498366976316884  0.5924555774103697  1.0000
  C   C5        1.0  0.7511877137022368  0.981707418648767  0.5269329628868108  1.0000
  C   C6        1.0  0.24881296250872253  0.0182904970535063  0.47306503254962  1.0000
  C   C7        1.0  0.8727787426271904  0.865174580680815  0.5300309107359666  1.0000
  C   C8        1.0  0.1272219278241664  0.13482334465928864  0.4699680220832363  1.0000
  C   C9        1.0  0.9364561767294505  0.8185680983521663  0.4140268469172241  1.0000
  C   C10       1.0  0.0635458632662704  0.18142871582320194  0.5859693333378573  1.0000
  C   C11       1.0  0.06878023604180333  0.6969840459550624  0.4110079625360541  1.0000
  C   C12       1.0  0.9312129878418246  0.30301384694052996  0.5889959959499366  1.0000
  C   C13       1.0  0.1445161888487121  0.6286109114963095  0.5210117127412488  1.0000
  C   C14       1.0  0.8554812586786653  0.37138255382118496  0.4789842603258733  1.0000
  C   C15       1.0  0.26938305234154575  0.5160879907904102  0.5125981590158091  1.0000
  C   C16       1.0  0.7306060227732161  0.48391420439142485  0.4874015989129675  1.0000
  C   C17       1.0  0.31830239173163477  0.47565789679349973  0.39325201392499315  1.0000
  C   C18       1.0  0.681690268617899  0.524345447245814  0.6067487084280003  1.0000
  C   C19       1.0  0.23725372036534512  0.547981903434966  0.2880691468203196  1.0000
  C   C20       1.0  0.7627454828098053  0.45201819824026057  0.7119294541411847  1.0000
  C   C21       1.0  0.6806295521098562  0.7305278734218347  0.8629187295185261  1.0000
  C   C22       1.0  0.31937561883759713  0.2694744563086927  0.1370763886840436  1.0000
  C   C23       1.0  0.404041306210587  0.6771622177405873  0.9087885999622642  1.0000
  C   C24       1.0  0.5959632140544998  0.3228346104622304  0.09120621753147864  1.0000
  C   C25       1.0  0.5242414641451133  0.8081006584788781  0.18542312137354602  1.0000
  C   C26       1.0  0.47575564392841607  0.19189517812524304  0.8145901174193283  1.0000
  C   C27       1.0  0.29752824621795065  0.9302220984860273  0.09656152377043972  1.0000
  C   C28       1.0  0.7024674980708241  0.0697748396449924  0.9034535302037767  1.0000
  N   N1        1.0  0.1152718104895385  0.6546492706359074  0.2967245830885403  1.0000
  N   N2        1.0  0.88472380169123  0.3453496918196776  0.7032739908315194  1.0000
  N   N3        1.0  0.8797139062209924  0.8837924349657625  0.29973716702473047  1.0000
  N   N4        1.0  0.12028991822052154  0.11621096737816566  0.7002569542108574  1.0000
  N   N5        1.0  0.6415192394792228  0.7237538885752457  0.20192998810043858  1.0000
  N   N6        1.0  0.3584851771129395  0.27624311310860616  0.7980817022832625  1.0000
  N   N7        1.0  0.3964577108265744  0.9026292109622385  0.1801401424185373  1.0000
  N   N8        1.0  0.6035371412393005  0.09736443308450049  0.8198759410654262  1.0000
  N   N9        1.0  0.19826158199825986  0.9633926978560793  0.025969704535022245  1.0000
  N   N10       1.0  0.8017398712434628  0.036608704687182594  0.9740460090471572  1.0000
  N   N11       1.0  0.8213034000741715  0.729178186743539  0.87066658216726  1.0000
  N   N12       1.0  0.178691516283024  0.2708273498531497  0.1293312954946444  1.0000
  N   N13       1.0  0.5328595187111985  0.7432713392379212  0.8385341896212922  1.0000
  N   N14       1.0  0.4671425616017615  0.2567254074726009  0.1614554289543619  1.0000
  N   N15       1.0  0.27591442993213633  0.6262134030449431  0.9619047007630215  1.0000
  N   N16       1.0  0.7240958271482825  0.3737758428148084  0.03809398403634391  1.0000
  O   O1        1.0  0.9209037345762496  0.48200405144613256  0.16319465533883465  1.0000
  O   O2        1.0  0.07909499127743659  0.5180004554781091  0.8368056686770444  1.0000
