data_image0
_chemical_formula_structural       Cd4H36C36S8N12O4
_chemical_formula_sum              "Cd4 H36 C36 S8 N12 O4"
_cell_length_a       10.877722923792252
_cell_length_b       10.877791548333851
_cell_length_c       11.655580281305303
_cell_angle_alpha    73.20709669173253
_cell_angle_beta     73.20703797405604
_cell_angle_gamma    87.21625742223125

_space_group_name_H-M_alt    "P 1"
_space_group_IT_number       1

loop_
  _space_group_symop_operation_xyz
  'x, y, z'

loop_
  _atom_site_type_symbol
  _atom_site_label
  _atom_site_symmetry_multiplicity
  _atom_site_fract_x
  _atom_site_fract_y
  _atom_site_fract_z
  _atom_site_occupancy
  Cd  Cd1       1.0  0.5749159857519218  0.26935138860401503  0.4290896235693396  1.0000
  Cd  Cd2       1.0  0.7306536372290894  0.4250834706576399  0.07090837847058401  1.0000
  Cd  Cd3       1.0  0.425081780564703  0.7306488681035077  0.5709101353432615  1.0000
  Cd  Cd4       1.0  0.2693563767783687  0.5749119051140424  0.9290920450480582  1.0000
  H   H1        1.0  0.3641091538099275  0.25117146415992414  0.2083772422962156  1.0000
  H   H2        1.0  0.748827384829042  0.6358889645700073  0.29162435971679196  1.0000
  H   H3        1.0  0.635889663527486  0.7488307227227793  0.7916208857416007  1.0000
  H   H4        1.0  0.2511695287746534  0.3641141663393341  0.708375733257405  1.0000
  H   H5        1.0  0.4018261840433297  0.877222486726872  0.14220427216566375  1.0000
  H   H6        1.0  0.12278017299151861  0.5981754846965612  0.35779779978999204  1.0000
  H   H7        1.0  0.5981745814626791  0.12278064299077576  0.8577939645360854  1.0000
  H   H8        1.0  0.877216551850964  0.4018246938081517  0.6422082559232932  1.0000
  H   H9        1.0  0.706435702781647  0.0705318273204227  0.2029773031166117  1.0000
  H   H10       1.0  0.9294694178433007  0.29356555147884933  0.2970247553551103  1.0000
  H   H11       1.0  0.29356307966750717  0.9294703246730622  0.7970234172467979  1.0000
  H   H12       1.0  0.070524638814554  0.7064376123060329  0.7029743535249651  1.0000
  H   H13       1.0  0.20888182078406461  0.0038413308715946  0.11758429480556738  1.0000
  H   H14       1.0  0.99615792678091  0.7911180388804481  0.38241763867355155  1.0000
  H   H15       1.0  0.7911217524595886  0.9961589531227304  0.8824105194270401  1.0000
  H   H16       1.0  0.003840634101564404  0.20887928547657003  0.6175861067200967  1.0000
  H   H17       1.0  0.1927317623336293  0.1597985387067808  0.14021495393163258  1.0000
  H   H18       1.0  0.8401991877002786  0.80726767692677  0.3597857119275574  1.0000
  H   H19       1.0  0.8072670502304647  0.8402027221897299  0.8597808411432338  1.0000
  H   H20       1.0  0.1597996391837668  0.1927363619283042  0.6402170820361661  1.0000
  H   H21       1.0  0.16154942969843233  0.0202734565180336  0.27107567695998813  1.0000
  H   H22       1.0  0.979725431031781  0.8384512230572694  0.22892526753447134  1.0000
  H   H23       1.0  0.8384531321860039  0.979725858176522  0.7289205087847674  1.0000
  H   H24       1.0  0.020273248835401606  0.1615489839259467  0.7710776997712684  1.0000
  H   H25       1.0  0.7496495064147553  0.867887767191867  0.13962370688704331  1.0000
  H   H26       1.0  0.13211482690906715  0.2503547435064917  0.36037525780133  1.0000
  H   H27       1.0  0.25035318608379953  0.1321144417586169  0.8603708366612677  1.0000
  H   H28       1.0  0.8678837900377161  0.7496444793418533  0.6396296970841036  1.0000
  H   H29       1.0  0.6331462343824157  0.7993298877742845  0.09249579786698794  1.0000
  H   H30       1.0  0.20067428432614787  0.36685592239749815  0.40750328437550815  1.0000
  H   H31       1.0  0.3668554747890838  0.20067230112208287  0.907500721939364  1.0000
  H   H32       1.0  0.799319674523048  0.6331462223633012  0.5925004044098541  1.0000
  H   H33       1.0  0.6171524742112738  0.7699877919862101  0.25281059658514227  1.0000
  H   H34       1.0  0.23001323573310375  0.3828531147471494  0.24718841550231463  1.0000
  H   H35       1.0  0.38285399563978467  0.2300134200079782  0.7471849423789505  1.0000
  H   H36       1.0  0.7699835123682137  0.6171470870170381  0.7528159119939133  1.0000
  C   C1        1.0  0.3965778716867376  0.537399615105265  0.40862507239468476  1.0000
  C   C2        1.0  0.46259704958310277  0.6034154489427338  0.09138254533086615  1.0000
  C   C3        1.0  0.6034168044879493  0.4625958352115944  0.5913775915625691  1.0000
  C   C4        1.0  0.537412952794938  0.3965799151992115  0.9086187422963048  1.0000
  C   C5        1.0  0.33742854611865886  0.0393996266600851  0.5274306938292525  1.0000
  C   C6        1.0  0.9605946084346328  0.6625656969707734  0.9725709649597222  1.0000
  C   C7        1.0  0.6625688468411114  0.9605910445529203  0.47256993049265356  1.0000
  C   C8        1.0  0.0394144851661693  0.33743064288166386  0.027429447237260283  1.0000
  C   C9        1.0  0.3616694362877837  0.06191522435172198  0.17627893531135894  1.0000
  C   C10       1.0  0.9380830933480836  0.6383310270677285  0.323722258829278  1.0000
  C   C11       1.0  0.638334193020171  0.9380869581339369  0.8237170884130335  1.0000
  C   C12       1.0  0.061910849098382  0.3616701800771481  0.6762799611016631  1.0000
  C   C13       1.0  0.4140001181579009  0.16469211295836317  0.197286803578038  1.0000
  C   C14       1.0  0.8353069212338227  0.5860015158475846  0.30271474263354736  1.0000
  C   C15       1.0  0.5860006589775323  0.8353110283890217  0.8027105690151898  1.0000
  C   C16       1.0  0.1646889016875264  0.41399872401117227  0.6972872405780632  1.0000
  C   C17       1.0  0.43969937265551096  0.9585238973395317  0.16037554481964372  1.0000
  C   C18       1.0  0.041475083349141115  0.5603019451446798  0.3396249830823449  1.0000
  C   C19       1.0  0.5603013880771783  0.0414783063919302  0.8396203589191557  1.0000
  C   C20       1.0  0.9585168316055789  0.4396963974144443  0.6603776469099356  1.0000
  C   C21       1.0  0.611562727389689  0.06205387834160089  0.1919269618414248  1.0000
  C   C22       1.0  0.9379463457905644  0.38843919849010433  0.3080760164840512  1.0000
  C   C23       1.0  0.3884369987249628  0.9379473328306032  0.8080720416265802  1.0000
  C   C24       1.0  0.06205043719900519  0.6115610381633019  0.6919257186865835  1.0000
  C   C25       1.0  0.5655303734953065  0.9572504024351645  0.16907694570452486  1.0000
  C   C26       1.0  0.042750726906561516  0.4344710102171804  0.33092390858214316  1.0000
  C   C27       1.0  0.43447033594640055  0.0427508287911635  0.8309200815054395  1.0000
  C   C28       1.0  0.9572440682528409  0.5655273227258775  0.6690779772871948  1.0000
  C   C29       1.0  0.22393239291051262  0.0622345570133547  0.17530971123400008  1.0000
  C   C30       1.0  0.9377640273738098  0.7760658740398799  0.32469193711182937  1.0000
  C   C31       1.0  0.7760683281606119  0.9377666858427034  0.8246864518674356  1.0000
  C   C32       1.0  0.0622327439863426  0.22393435098378933  0.6753106621673338  1.0000
  C   C33       1.0  0.6472092795810767  0.8434437838089297  0.16146726625240856  1.0000
  C   C34       1.0  0.1565587361695506  0.3527940808553113  0.3385327803036516  1.0000
  C   C35       1.0  0.3527934293202152  0.15655936275748422  0.8385287461503236  1.0000
  C   C36       1.0  0.8434351036949438  0.6472051812792899  0.6614716865696193  1.0000
  S   S1        1.0  0.3408143013028777  0.6816391584828736  0.3976173074542402  1.0000
  S   S2        1.0  0.31835722388809984  0.6591797372588672  0.10239013067583606  1.0000
  S   S3        1.0  0.6591805335180894  0.3183601353355812  0.6023843190524686  1.0000
  S   S4        1.0  0.6816525452938436  0.3408107876168742  0.8976150460901094  1.0000
  S   S5        1.0  0.2411791373298158  0.9189172779103673  0.5507427356343509  1.0000
  S   S6        1.0  0.08108912796162573  0.7588234880701776  0.9492601346645625  1.0000
  S   S7        1.0  0.758824445460462  0.08108485805633593  0.44925674452415615  1.0000
  S   S8        1.0  0.9189141142772712  0.24117093763386774  0.05074314861209944  1.0000
  N   N1        1.0  0.5358290139442092  0.16268316000429192  0.2053225097790089  1.0000
  N   N2        1.0  0.8373155897537927  0.46417283617991967  0.2946808115829355  1.0000
  N   N3        1.0  0.46417075183200757  0.8373190120433095  0.7946762343263597  1.0000
  N   N4        1.0  0.1626802099087143  0.5358273804193701  0.7053228998457397  1.0000
  N   N5        1.0  0.43454451565549584  0.4327514130566286  0.416534277366054  1.0000
  N   N6        1.0  0.5672492492248722  0.5654458228803847  0.08347055042451501  1.0000
  N   N7        1.0  0.5654494103882329  0.5672488564723183  0.5834664737104659  1.0000
  N   N8        1.0  0.4327599072963367  0.434551501106924  0.9165278741927804  1.0000
  N   N9        1.0  0.4058361958744642  0.1269866040885574  0.5137481602750852  1.0000
  N   N10       1.0  0.8730211593296886  0.5941667167939856  0.9862511702245768  1.0000
  N   N11       1.0  0.5941691880675678  0.8730126428412391  0.4862516018893784  1.0000
  N   N12       1.0  0.1269898892958139  0.40582965153694783  0.013746153564866876  1.0000
  O   O1        1.0  0.5817005780566689  0.26263945451430704  0.22693221235449093  1.0000
  O   O2        1.0  0.7373587960694438  0.4183010391216655  0.2730687065224586  1.0000
  O   O3        1.0  0.4182990967669937  0.737360784152763  0.7730679145846789  1.0000
  O   O4        1.0  0.2626361461068143  0.5817011256932433  0.726933006004863  1.0000
