data_image0
_chemical_formula_structural       CoH24C18S2N14
_chemical_formula_sum              "Co1 H24 C18 S2 N14"
_cell_length_a       7.760966321397169
_cell_length_b       9.050584393358388
_cell_length_c       9.920343855542484
_cell_angle_alpha    114.0568188826634
_cell_angle_beta     91.15100094196829
_cell_angle_gamma    92.78984374568167

_space_group_name_H-M_alt    "P 1"
_space_group_IT_number       1

loop_
  _space_group_symop_operation_xyz
  'x, y, z'

loop_
  _atom_site_type_symbol
  _atom_site_label
  _atom_site_symmetry_multiplicity
  _atom_site_fract_x
  _atom_site_fract_y
  _atom_site_fract_z
  _atom_site_occupancy
  Co  Co1       1.0  0.5000005670664791  0.5000000699706175  0.9999993781551454  1.0000
  H   H1        1.0  0.474422624251723  0.7881217201682701  0.3203420262566823  1.0000
  H   H2        1.0  0.5255770907627524  0.21187806422317826  0.6796580281545561  1.0000
  H   H3        1.0  0.3213248032504694  0.2925800856215729  0.16577191417972165  1.0000
  H   H4        1.0  0.6786761831624235  0.7074196862834083  0.8342291763120643  1.0000
  H   H5        1.0  0.2850768150488819  0.4892853162063203  0.5835563825813779  1.0000
  H   H6        1.0  0.7149228192881198  0.5107132558921776  0.41644320965182413  1.0000
  H   H7        1.0  0.2772010469897452  0.29690319278896027  0.43207403919034704  1.0000
  H   H8        1.0  0.72279866802473  0.703096591602488  0.5679260152208911  1.0000
  H   H9        1.0  0.9851850733651447  0.35295789920105847  0.3490982227884346  1.0000
  H   H10       1.0  0.014814739556697999  0.6470431095726993  0.6509012906701133  1.0000
  H   H11       1.0  0.9890601961868911  0.34270163969024026  0.5233676809820339  1.0000
  H   H12       1.0  0.010939616734951606  0.6572993690835175  0.476631832476521  1.0000
  H   H13       1.0  0.1570224875241166  0.8960961207892237  0.48031932644447295  1.0000
  H   H14       1.0  0.8429758409546866  0.10390243961701627  0.5196812359696281  1.0000
  H   H15       1.0  0.16844220799284673  0.10381804178304319  0.514962018788154  1.0000
  H   H16       1.0  0.8315561377158505  0.8961805307125558  0.48503754049522035  1.0000
  H   H17       1.0  0.0014803973904661983  0.04164914943398658  0.27662946040695874  1.0000
  H   H18       1.0  0.9985193810715958  0.9583518351610392  0.7233720593130287  1.0000
  H   H19       1.0  0.19359731224735552  0.9365290479477579  0.2476026538890252  1.0000
  H   H20       1.0  0.806402322089639  0.06346952415074009  0.7523969383441839  1.0000
  H   H21       1.0  0.89151183166414  0.4213271914299027  0.1251892510757031  1.0000
  H   H22       1.0  0.10848659472203791  0.5786725933586466  0.8748107703857074  1.0000
  H   H23       1.0  0.7356940382185116  0.867057928616873  0.14235134721790393  1.0000
  H   H24       1.0  0.26430567679596356  0.1329418557745754  0.8576487071933345  1.0000
  C   C1        1.0  0.42392610993711344  0.6730397291306218  0.3173130495885418  1.0000
  C   C2        1.0  0.5760736050773616  0.32696005526082667  0.6826870048226967  1.0000
  C   C3        1.0  0.3463141155755239  0.4208659807494185  0.23449962097319602  1.0000
  C   C4        1.0  0.6536882573730339  0.5791350151407784  0.7655009615157341  1.0000
  C   C5        1.0  0.23221899152608227  0.41992108704002357  0.47034520794905194  1.0000
  C   C6        1.0  0.7677820927941782  0.5800799092472673  0.5296553415900506  1.0000
  C   C7        1.0  0.0351491827711001  0.4160230976195009  0.4645527920588464  1.0000
  C   C8        1.0  0.9648519187790472  0.5839779107571558  0.5354467543495361  1.0000
  C   C9        1.0  0.08675454655794824  0.990436335094408  0.46346998810757617  1.0000
  C   C10       1.0  0.9132450877790534  0.009562237004089997  0.536529604125626  1.0000
  C   C11       1.0  0.0680310593235731  0.9488088502675608  0.29862732683708515  1.0000
  C   C12       1.0  0.9319699443192068  0.05119093372678658  0.7013727605239808  1.0000
  C   C13       1.0  0.8894346031329051  0.5492842464166117  0.1485452334201369  1.0000
  C   C14       1.0  0.11056519255905074  0.45071675026778013  0.8514552831691377  1.0000
  C   C15       1.0  0.8067825259867334  0.7726409742575552  0.15526080693634725  1.0000
  C   C16       1.0  0.19321717179785483  0.22735879804452708  0.844740250605611  1.0000
  C   C17       1.0  0.6596553246610598  0.2062318822939631  0.009382355393420014  1.0000
  C   C18       1.0  0.34034308449522416  0.7937678904052206  0.9906186691987104  1.0000
  S   S1        1.0  0.7818451323081562  0.08527884297970449  0.0452367636901272  1.0000
  S   S2        1.0  0.21815321340054084  0.9147197295158944  0.9547627955932472  1.0000
  N   N1        1.0  0.4177964873642211  0.5322737839045287  0.19255098375082724  1.0000
  N   N2        1.0  0.5822032276502542  0.46772600048691965  0.807449070660411  1.0000
  N   N3        1.0  0.36176313525806597  0.6545941247272538  0.4336136857016514  1.0000
  N   N4        1.0  0.6382365625265155  0.3454056475748358  0.5663873718403067  1.0000
  N   N5        1.0  0.3127250066034293  0.4935589546253353  0.3787073160210994  1.0000
  N   N6        1.0  0.6872772856676549  0.5064408289719111  0.6212928042897945  1.0000
  N   N7        1.0  0.755540798711728  0.6159599380491584  0.10700126325359352  1.0000
  N   N8        1.0  0.24445889907286045  0.3840398342529241  0.8929997942883648  1.0000
  N   N9        1.0  0.019532856549325604  0.6557669699784796  0.2198813543274625  1.0000
  N   N10       1.0  0.9804669391426234  0.34423402670591224  0.7801191622618122  1.0000
  N   N11       1.0  0.9650261737557599  0.7972359312575177  0.22193848094953236  1.0000
  N   N12       1.0  0.03497354125872221  0.20276385313392348  0.778061573461706  1.0000
  N   N13       1.0  0.577321710548283  0.2981588654260817  0.9812966904523679  1.0000
  N   N14       1.0  0.42267800446619236  0.7018409189653595  0.01870336395887046  1.0000
