data_image0
_chemical_formula_structural       Cd4H32C40O20
_chemical_formula_sum              "Cd4 H32 C40 O20"
_cell_length_a       7.016355882057719
_cell_length_b       10.365517182334953
_cell_length_c       13.118068443340492
_cell_angle_alpha    102.59251579739656
_cell_angle_beta     89.99953869525834
_cell_angle_gamma    90.00006478448887

_space_group_name_H-M_alt    "P 1"
_space_group_IT_number       1

loop_
  _space_group_symop_operation_xyz
  'x, y, z'

loop_
  _atom_site_type_symbol
  _atom_site_label
  _atom_site_symmetry_multiplicity
  _atom_site_fract_x
  _atom_site_fract_y
  _atom_site_fract_z
  _atom_site_occupancy
  Cd  Cd1       1.0  0.015921672849223998  0.660756193362772  0.6035298753350489  1.0000
  Cd  Cd2       1.0  0.5159156438565659  0.839244516704696  0.8964733272883195  1.0000
  Cd  Cd3       1.0  0.984077953023025  0.33924150124929736  0.3964701245818958  1.0000
  Cd  Cd4       1.0  0.48407970628949937  0.16075812046172896  0.1035275362342034  1.0000
  H   H1        1.0  0.0750324323522236  0.5782580621741004  0.9343666329544646  1.0000
  H   H2        1.0  0.575032923809445  0.9217426247047057  0.5656355476800455  1.0000
  H   H3        1.0  0.9249643430427169  0.42174062409876706  0.0656327779270711  1.0000
  H   H4        1.0  0.4249709777842625  0.07826001245981469  0.43436531582365495  1.0000
  H   H5        1.0  0.2865598898043871  0.48671030433606427  0.8876865467591415  1.0000
  H   H6        1.0  0.7865604279397757  0.013290873041668797  0.6123136226809436  1.0000
  H   H7        1.0  0.7134397360788114  0.5132883850856444  0.11231210235519741  1.0000
  H   H8        1.0  0.21344632413885017  0.9867068215688165  0.38768637722031235  1.0000
  H   H9        1.0  0.2449691256387752  0.4469927615144585  0.03882601544744802  1.0000
  H   H10       1.0  0.744971627821947  0.05300398545143277  0.46117598860342923  1.0000
  H   H11       1.0  0.7550290749917251  0.5530059216086087  0.9611741571918698  1.0000
  H   H12       1.0  0.2550294232858619  0.9469937060108364  0.5388247730712976  1.0000
  H   H13       1.0  0.29609830968731643  0.4108648853381851  0.2145380724520365  1.0000
  H   H14       1.0  0.7960992295001716  0.08913282735823458  0.2854638792439488  1.0000
  H   H15       1.0  0.703898465707624  0.5891338009346824  0.7854613384294993  1.0000
  H   H16       1.0  0.20390039636495058  0.9108678296364016  0.7145374005916167  1.0000
  H   H17       1.0  0.5298260736322148  0.8027605148076802  0.31181232498273914  1.0000
  H   H18       1.0  0.029828044040229405  0.6972387214002821  0.1881891772939923  1.0000
  H   H19       1.0  0.47017355225051466  0.19723916312471354  0.6881864968508323  1.0000
  H   H20       1.0  0.9701744323074378  0.30276193559371467  0.8118121025353061  1.0000
  H   H21       1.0  0.4675928236237468  0.8445152523746203  0.13821777414629113  1.0000
  H   H22       1.0  0.9675912847360593  0.6554818054676799  0.3617829791128599  1.0000
  H   H23       1.0  0.5324068022646884  0.1554844287072612  0.8617802859263577  1.0000
  H   H24       1.0  0.0324111916235097  0.34451786931460043  0.6382166044753532  1.0000
  H   H25       1.0  0.49942067308801796  0.46781196633291705  0.3718700117983573  1.0000
  H   H26       1.0  0.9994124541544309  0.0321876359464923  0.1281306285426425  1.0000
  H   H27       1.0  0.5005789527766281  0.5321896791723901  0.628131440756448  1.0000
  H   H28       1.0  0.0005885969524400002  0.9678120325371465  0.871870478570557  1.0000
  H   H29       1.0  0.5955330620021614  0.6297575219182503  0.4140797249787838  1.0000
  H   H30       1.0  0.0955325769084183  0.8702456390573658  0.08592217892919506  1.0000
  H   H31       1.0  0.40446371339041326  0.37024610690802007  0.5859205494989155  1.0000
  H   H32       1.0  0.90446419848557  0.12975502423686439  0.914077577390799  1.0000
  C   C1        1.0  0.20395794131450629  0.6304242194248459  0.8021951768718553  1.0000
  C   C2        1.0  0.7039506642876887  0.869583316990024  0.6978106923104762  1.0000
  C   C3        1.0  0.7960402593221828  0.3695734783370241  0.1978040612873002  1.0000
  C   C4        1.0  0.2960518120666363  0.1304153661320981  0.3021894803194272  1.0000
  C   C5        1.0  0.2199754266331055  0.5852996787909105  0.9041353318293306  1.0000
  C   C6        1.0  0.7199740280719238  0.9147009340608103  0.5958684960333613  1.0000
  C   C7        1.0  0.7800213487618349  0.4146990074819569  0.0958640790522054  1.0000
  C   C8        1.0  0.28002844828193213  0.08529873757198907  0.40413184931577456  1.0000
  C   C9        1.0  0.3556817586450122  0.6484174058460042  0.07574286792891625  1.0000
  C   C10       1.0  0.8556810347026483  0.8515787070482259  0.4242597287787504  1.0000
  C   C11       1.0  0.6443164419850193  0.35158226578774787  0.9242574774296346  1.0000
  C   C12       1.0  0.14432286689248028  0.14842096458425394  0.575740616567245  1.0000
  C   C13       1.0  0.30514671365097007  0.5269667585072283  0.0976523474868145  1.0000
  C   C14       1.0  0.8051479452081695  0.9730323518828425  0.40234870455361715  1.0000
  C   C15       1.0  0.6948500617439634  0.4730319277656391  0.9023470633947142  1.0000
  C   C16       1.0  0.1948559563812537  0.0269673166001567  0.5976524025533081  1.0000
  C   C17       1.0  0.3380918232957626  0.505391583982572  0.1977062555460094  1.0000
  C   C18       1.0  0.8380960154019376  0.9946025628758473  0.30229531138473925  1.0000
  C   C19       1.0  0.6619049520934653  0.49460709914081485  0.802293917096442  1.0000
  C   C20       1.0  0.16190788619842778  0.005398100416790899  0.6977044449195732  1.0000
  C   C21       1.0  0.4224955329065807  0.6019875331929042  0.2756702519087213  1.0000
  C   C22       1.0  0.9224936066260981  0.8980115186143749  0.22433180707506747  1.0000
  C   C23       1.0  0.5775012424935965  0.3980121447401287  0.7243285699311174  1.0000
  C   C24       1.0  0.0775088697272821  0.10198914152910275  0.7756687109933083  1.0000
  C   C25       1.0  0.46700324344014627  0.7242935422220851  0.2524023883372593  1.0000
  C   C26       1.0  0.9670050408685995  0.7757025273714715  0.24759819479072578  1.0000
  C   C27       1.0  0.532996382442107  0.2757071242209861  0.747596606215545  1.0000
  C   C28       1.0  0.0329988607317659  0.2242981359211669  0.7524015615135866  1.0000
  C   C29       1.0  0.4344372407286059  0.7480133205853932  0.1535533559825097  1.0000
  C   C30       1.0  0.934438942549363  0.7519847279413411  0.3464507629878071  1.0000
  C   C31       1.0  0.5655595346658586  0.2519863541981522  0.8464462276182587  1.0000
  C   C32       1.0  0.06556780951071059  0.24801592275273518  0.6535520403539152  1.0000
  C   C33       1.0  0.46916139280256175  0.5736071432498375  0.38130821248398666  1.0000
  C   C34       1.0  0.9691582463603651  0.9263918909153043  0.11869287931212108  1.0000
  C   C35       1.0  0.5308339573377907  0.4263954907671064  0.6186934127994661  1.0000
  C   C36       1.0  0.030839954280608595  0.0736087755280863  0.8813061152438166  1.0000
  C   C37       1.0  0.3078149737931284  0.609000525013343  0.459339038869615  1.0000
  C   C38       1.0  0.8078115126703906  0.890994626996736  0.04066207231909395  1.0000
  C   C39       1.0  0.6921832268373721  0.39099815810973126  0.5406611337697029  1.0000
  C   C40       1.0  0.1921866879758269  0.10900703110681316  0.9593363331951609  1.0000
  O   O1        1.0  0.09236056269693901  0.5618910621116413  0.7360837881162468  1.0000
  O   O2        1.0  0.5923609602978672  0.9381086285359999  0.7639181435184526  1.0000
  O   O3        1.0  0.9076376379392741  0.4381076241609136  0.2639156227621484  1.0000
  O   O4        1.0  0.40764009082042213  0.061891046246600495  0.23608144007290122  1.0000
  O   O5        1.0  0.29648053045893624  0.7297693074253571  0.7863477043062943  1.0000
  O   O6        1.0  0.7964842527209512  0.7702302796783584  0.7136563758009515  1.0000
  O   O7        1.0  0.7035190954123677  0.270230364208075  0.2136526410491157  1.0000
  O   O8        1.0  0.20351537315082166  0.22976840344439609  0.2863437968352258  1.0000
  O   O9        1.0  0.32954607087336996  0.6780112340633406  0.9784384048532999  1.0000
  O   O10       1.0  0.8295442064876044  0.8219883414588123  0.5215647679463302  1.0000
  O   O11       1.0  0.6704521297633121  0.3219864636985291  0.02156083330586259  1.0000
  O   O12       1.0  0.17045541938941264  0.17801133332410046  0.4784348156481641  1.0000
  O   O13       1.0  0.2950387728360867  0.7237319903783115  0.5171963562264068  1.0000
  O   O14       1.0  0.7950413220178377  0.7762626611135985  0.9828053431122258  1.0000
  O   O15       1.0  0.704955152069175  0.276269658277748  0.4828043345800239  1.0000
  O   O16       1.0  0.20495830389107542  0.22374197511960145  0.017190533512902586  1.0000
  O   O17       1.0  0.1836307179104182  0.5200227379469665  0.4672381538884308  1.0000
  O   O18       1.0  0.6836275230821868  0.979967526839708  0.032762640379466676  1.0000
  O   O19       1.0  0.8163703331921539  0.47997396185515123  0.5327631968279789  1.0000
  O   O20       1.0  0.3163692522942014  0.020034115516757794  0.9672395739425282  1.0000
