data_image0
_chemical_formula_structural       Zn2H24C28N12O14
_chemical_formula_sum              "Zn2 H24 C28 N12 O14"
_cell_length_a       9.611865480530188
_cell_length_b       9.601406269858494
_cell_length_c       10.197145917016906
_cell_angle_alpha    83.12865418807169
_cell_angle_beta     68.53854381103736
_cell_angle_gamma    74.46336296506932

_space_group_name_H-M_alt    "P 1"
_space_group_IT_number       1

loop_
  _space_group_symop_operation_xyz
  'x, y, z'

loop_
  _atom_site_type_symbol
  _atom_site_label
  _atom_site_symmetry_multiplicity
  _atom_site_fract_x
  _atom_site_fract_y
  _atom_site_fract_z
  _atom_site_occupancy
  Zn  Zn1       1.0  0.3030289961609468  0.3945331893183949  0.03202394772261392  1.0000
  Zn  Zn2       1.0  0.6969609154188844  0.6054786688487895  0.9679765889492838  1.0000
  H   H1        1.0  0.41858317688598845  0.023459920899952608  0.18388725072804846  1.0000
  H   H2        1.0  0.5814183361286068  0.9765391479532468  0.8161050043497081  1.0000
  H   H3        1.0  0.4727822482960064  0.1496929351108207  0.22843959277261652  1.0000
  H   H4        1.0  0.5272175292766191  0.8503082450571002  0.7715520157630632  1.0000
  H   H5        1.0  0.5808547173749616  0.6792544220647444  0.41200831920959036  1.0000
  H   H6        1.0  0.41915479787733995  0.32073633055400563  0.5879930084251797  1.0000
  H   H7        1.0  0.6807197275305157  0.5559163543858786  0.2723418022110806  1.0000
  H   H8        1.0  0.3192889988615874  0.44408090555353413  0.727658014082827  1.0000
  H   H9        1.0  0.9517822392406432  0.45254215152537114  0.2264580471531729  1.0000
  H   H10       1.0  0.04822568822436318  0.5474463795186537  0.7735450779598023  1.0000
  H   H11       1.0  0.7873080439211505  0.835918784656009  0.6641906354680953  1.0000
  H   H12       1.0  0.21269849399806867  0.1640783490503921  0.3358060223828048  1.0000
  H   H13       1.0  0.9845183941022667  0.7848458633594861  0.6415291440765994  1.0000
  H   H14       1.0  0.015485914824132892  0.2151512232034207  0.35847024393192567  1.0000
  H   H15       1.0  0.26486876921855895  0.6596468058060341  0.4497236151054266  1.0000
  H   H16       1.0  0.7351420520183324  0.340354807803145  0.5502690641436985  1.0000
  H   H17       1.0  0.4367704163124626  0.490040746238897  0.24779801609975036  1.0000
  H   H18       1.0  0.5632397839788723  0.5099630022567538  0.7521926515284818  1.0000
  H   H19       1.0  0.7943024625318243  0.9071709202512751  0.15573482316810325  1.0000
  H   H20       1.0  0.20569054192594646  0.09283791454554799  0.8442758151118778  1.0000
  H   H21       1.0  0.8865713752476976  0.0241445400687965  0.302258086892394  1.0000
  H   H22       1.0  0.11342605852563278  0.9758568170425477  0.6977529361693439  1.0000
  H   H23       1.0  0.1706573818065919  0.9617817677643714  0.2620395382691925  1.0000
  H   H24       1.0  0.8293436241505034  0.03821516899378  0.7379580563751487  1.0000
  C   C1        1.0  0.8085795862387142  0.6247975998950962  0.36686021752410614  1.0000
  C   C2        1.0  0.19142533687991656  0.3751973649629221  0.6331421635387569  1.0000
  C   C3        1.0  0.07506943851805659  0.555980473471294  0.29775077152469714  1.0000
  C   C4        1.0  0.9249364514423062  0.44401884784791423  0.7022478004390607  1.0000
  C   C5        1.0  0.07024577660695284  0.6389907794675622  0.4023570917249301  1.0000
  C   C6        1.0  0.9297613839146096  0.361011844051184  0.5976396583836204  1.0000
  C   C7        1.0  0.9239515553292603  0.7192001894037007  0.49046199188182976  1.0000
  C   C8        1.0  0.07605607682639705  0.28079700741920993  0.5095362451905813  1.0000
  C   C9        1.0  0.3117112162965796  0.5265087299038027  0.2817445496297068  1.0000
  C   C10       1.0  0.6882913706944933  0.4734904416106502  0.7182522289698666  1.0000
  C   C11       1.0  0.23281588803079237  0.8287780457580853  0.08604124760683618  1.0000
  C   C12       1.0  0.7671767360258172  0.17122078179478  0.913958002367664  1.0000
  C   C13       1.0  0.18175698254412248  0.770149873128318  0.996327933792983  1.0000
  C   C14       1.0  0.8182364185228224  0.22985009816586913  0.003672871026012177  1.0000
  C   C15       1.0  0.021681870907500005  0.7979630867950717  0.02599782777956251  1.0000
  C   C16       1.0  0.9783046617597078  0.20204114186596905  0.9740136306592004  1.0000
  C   C17       1.0  0.9169855015430243  0.8874733689546943  0.13688336954577102  1.0000
  C   C18       1.0  0.08300736035660346  0.112532160851174  0.8631257626437401  1.0000
  C   C19       1.0  0.9690879981486163  0.9515040977975744  0.21922820694246076  1.0000
  C   C20       1.0  0.030904383706811697  0.048499247186903495  0.7807823390798772  1.0000
  C   C21       1.0  0.1265033837989833  0.9197862713111392  0.19468443187381002  1.0000
  C   C22       1.0  0.8734942921755291  0.08021056836859232  0.8053152951400903  1.0000
  C   C23       1.0  0.3978256080727291  0.7837160255625194  0.07812325596585616  1.0000
  C   C24       1.0  0.6021660643055711  0.2162860438647982  0.9218759208776247  1.0000
  C   C25       1.0  0.2955375605012732  0.6833726121489789  0.8685986208130952  1.0000
  C   C26       1.0  0.7044582577331012  0.3166229943097676  0.13139600926793804  1.0000
  C   C27       1.0  0.9576719591773464  0.7301499081172055  0.9436618181224644  1.0000
  C   C28       1.0  0.04231869398943633  0.26985553500041  0.05634709992435918  1.0000
  N   N1        1.0  0.7981480438172708  0.7111724230656121  0.4648278008139215  1.0000
  N   N2        1.0  0.20185751375356628  0.2888203805427736  0.5351746290029523  1.0000
  N   N3        1.0  0.6786481212161489  0.6088142995537209  0.35595532512189015  1.0000
  N   N4        1.0  0.3213580775602124  0.39117632962344123  0.6440461720155637  1.0000
  N   N5        1.0  0.9456578519434656  0.5447268519220216  0.2798146594935459  1.0000
  N   N6        1.0  0.05435088120195532  0.4552703948358  0.7201841753669241  1.0000
  N   N7        1.0  0.9025683192200092  0.8007661671855287  0.5962716380120336  1.0000
  N   N8        1.0  0.0974386987434173  0.1992331513422627  0.40372360600604634  1.0000
  N   N9        1.0  0.22371954232851704  0.6174592253034065  0.3889949290245695  1.0000
  N   N10       1.0  0.7762868276760598  0.38254228083719244  0.6110022291063614  1.0000
  N   N11       1.0  0.22375295639270823  0.4881432403909756  0.22268648499017726  1.0000
  N   N12       1.0  0.7762502582972455  0.5118537830554288  0.7773113237968514  1.0000
  O   O1        1.0  0.47733458961546643  0.6696452734037807  0.004643302568148096  1.0000
  O   O2        1.0  0.5226596644051541  0.3303633213331167  0.9953463419642785  1.0000
  O   O3        1.0  0.4483271093164516  0.846962819339126  0.14516558345261632  1.0000
  O   O4        1.0  0.5516648600279835  0.1530382090081233  0.8548365620681788  1.0000
  O   O5        1.0  0.30837528413235277  0.5441804507094474  0.8731863604839416  1.0000
  O   O6        1.0  0.691622432362095  0.455816309880781  0.12680747792933292  1.0000
  O   O7        1.0  0.36724362396954285  0.7491611639818032  0.7635198450549293  1.0000
  O   O8        1.0  0.6327522145247925  0.2508344029321917  0.2364718407257911  1.0000
  O   O9        1.0  0.034705650218633415  0.7019082874649243  0.8150430918225307  1.0000
  O   O10       1.0  0.9652891015309564  0.2980907849551996  0.1849681494959086  1.0000
  O   O11       1.0  0.8264326676190167  0.702998023187746  0.013781736682787532  1.0000
  O   O12       1.0  0.17355514911602646  0.29700948130966504  0.9862259370338928  1.0000
  O   O13       1.0  0.38636060558020796  0.1253326688692624  0.21451526298869786  1.0000
  O   O14       1.0  0.6136381916440429  0.8746641812006358  0.7854821175129558  1.0000
