data_image0
_chemical_formula_structural       Ni4H56C80N16O18
_chemical_formula_sum              "Ni4 H56 C80 N16 O18"
_cell_length_a       13.018408780620778
_cell_length_b       13.194029433169298
_cell_length_c       20.837638037211534
_cell_angle_alpha    81.13331659027084
_cell_angle_beta     71.78581214403296
_cell_angle_gamma    60.41670585625222

_space_group_name_H-M_alt    "P 1"
_space_group_IT_number       1

loop_
  _space_group_symop_operation_xyz
  'x, y, z'

loop_
  _atom_site_type_symbol
  _atom_site_label
  _atom_site_symmetry_multiplicity
  _atom_site_fract_x
  _atom_site_fract_y
  _atom_site_fract_z
  _atom_site_occupancy
  Ni  Ni1       1.0  0.6185413330520788  0.5110110372477192  0.537085554226529  1.0000
  Ni  Ni2       1.0  0.8707865314568579  0.5109078227869402  0.4627789599557277  1.0000
  Ni  Ni3       1.0  0.905697027343315  0.010875433896281098  0.9627765277887336  1.0000
  Ni  Ni4       1.0  0.0834841190806443  0.010925357670160495  0.03714952210797412  1.0000
  H   H1        1.0  0.7949940989728717  0.14865184277201138  0.7820874195608954  1.0000
  H   H2        1.0  0.05654670527508901  0.14894505394595825  0.2175104181780725  1.0000
  H   H3        1.0  0.3275060159079572  0.6487987360490661  0.7174849720625502  1.0000
  H   H4        1.0  0.024075633968131227  0.6494619208814781  0.2823795653597401  1.0000
  H   H5        1.0  0.01104615742423921  0.3616587948012864  0.6386104076990264  1.0000
  H   H6        1.0  0.6275167329478465  0.36188004917514854  0.3612697432233319  1.0000
  H   H7        1.0  0.40010344826092836  0.8611726190821539  0.861331715799956  1.0000
  H   H8        1.0  0.7384800605259373  0.8621901591156979  0.13883831010118564  1.0000
  H   H9        1.0  0.7391721723152712  0.24971534406849105  0.6764663923076953  1.0000
  H   H10       1.0  0.011561441562037223  0.24965812103383908  0.3232600995479586  1.0000
  H   H11       1.0  0.16590027964225157  0.7498404033118146  0.8230762586478734  1.0000
  H   H12       1.0  0.08452337764809693  0.7503646084986565  0.17664631452095853  1.0000
  H   H13       1.0  0.46999915613327664  0.4665812726835411  0.6819726465085765  1.0000
  H   H14       1.0  0.06372623776209724  0.465849351316322  0.31810495536416983  1.0000
  H   H15       1.0  0.9017636057037137  0.9664582798252536  0.8179442873862116  1.0000
  H   H16       1.0  0.13071136521796242  0.9663272653616627  0.18207436147693565  1.0000
  H   H17       1.0  0.07053931895168851  0.2565320393580564  0.7426634874142906  1.0000
  H   H18       1.0  0.6729625425955419  0.25723477938883116  0.2570608413076416  1.0000
  H   H19       1.0  0.5637631900557522  0.7560090746910642  0.7573360642147335  1.0000
  H   H20       1.0  0.6799970258291028  0.7572945951157236  0.2430433251969932  1.0000
  H   H21       1.0  0.18257991182515818  0.09275670427960847  0.89443454232201  1.0000
  H   H22       1.0  0.7244687070018115  0.09283901934026059  0.10548310309335578  1.0000
  H   H23       1.0  0.8260106620045349  0.5936648095916083  0.6053910170486961  1.0000
  H   H24       1.0  0.5796575335743199  0.5928670415663005  0.39437262434321246  1.0000
  H   H25       1.0  0.3979791144509832  0.2903427941239086  0.8872044806536084  1.0000
  H   H26       1.0  0.3113745689377295  0.290695676965555  0.11305394096129366  1.0000
  H   H27       1.0  0.034996708844232755  0.790321711992135  0.6129379568810832  1.0000
  H   H28       1.0  0.1738838077557363  0.7905425928047546  0.38742015959426374  1.0000
  H   H29       1.0  0.4907438825697739  0.3395186401011187  0.7721972618171264  1.0000
  H   H30       1.0  0.16981523704647838  0.33940624247816936  0.2282004068189565  1.0000
  H   H31       1.0  0.01215907126903228  0.8395483427168169  0.7280558018444053  1.0000
  H   H32       1.0  0.14697375923843486  0.8394470403500447  0.2723703544486469  1.0000
  H   H33       1.0  0.18565970988071734  0.19862116433169053  0.8071388931526896  1.0000
  H   H34       1.0  0.615987640332122  0.19882062655135255  0.1927192416859925  1.0000
  H   H35       1.0  0.7415681440451254  0.6998366362740993  0.692476234253313  1.0000
  H   H36       1.0  0.5578529565396336  0.6997301862565234  0.30735340982587905  1.0000
  H   H37       1.0  0.27637200459469835  0.2507545178347994  0.6924846290304032  1.0000
  H   H38       1.0  0.4734745149055115  0.2506038454501364  0.307530611270643  1.0000
  H   H39       1.0  0.7169059054247314  0.7523466847060541  0.807242983760233  1.0000
  H   H40       1.0  0.5297131173260822  0.7515835541254671  0.19265307262020315  1.0000
  H   H41       1.0  0.1239684976267483  0.21158250247888333  0.08516618655942661  1.0000
  H   H42       1.0  0.6639782309118945  0.21192781733247995  0.914852436991538  1.0000
  H   H43       1.0  0.9606720482690745  0.7107892294424616  0.4146706350746501  1.0000
  H   H44       1.0  0.3294631231743709  0.7123321401480066  0.585230877164321  1.0000
  H   H45       1.0  0.4406125831356109  0.2145135930304746  0.5951071593929455  1.0000
  H   H46       1.0  0.3454132537545577  0.21489589662607494  0.405249405001527  1.0000
  H   H47       1.0  0.7841200259115197  0.7153690212882182  0.9048605060669105  1.0000
  H   H48       1.0  0.4994895257145162  0.7147628713181429  0.09533239820026315  1.0000
  H   H49       1.0  0.5421862423307502  0.3308700041715865  0.4941136725107499  1.0000
  H   H50       1.0  0.12720798646325462  0.33137967586583966  0.5061051553679192  1.0000
  H   H51       1.0  0.7861318915551365  0.8307774162259345  0.0058017746344704345  1.0000
  H   H52       1.0  0.38275578022044227  0.83115947749674  0.9942284733200566  1.0000
  H   H53       1.0  0.2348248282124672  0.3239227157219559  0.9863386028936388  1.0000
  H   H54       1.0  0.4408561562430364  0.32444845634917374  0.013797141128762413  1.0000
  H   H55       1.0  0.9722059314589232  0.8233575413028047  0.5135898738275915  1.0000
  H   H56       1.0  0.20462674055418276  0.8248739857347469  0.48656914983686056  1.0000
  C   C1        1.0  0.8729718579893772  0.3100600433760973  0.6508541737015252  1.0000
  C   C2        1.0  0.8172791643088787  0.3101623348523431  0.34893429471313925  1.0000
  C   C3        1.0  0.27411386985689784  0.809951692130241  0.8488919272703868  1.0000
  C   C4        1.0  0.9159239808624947  0.8106231311238331  0.15108301212236364  1.0000
  C   C5        1.0  0.8436270872951893  0.19388100825845095  0.7499907481426792  1.0000
  C   C6        1.0  0.9627093633158098  0.19420063348191965  0.24967996199337986  1.0000
  C   C7        1.0  0.3440624769092014  0.6938618468674844  0.749669487567232  1.0000
  C   C8        1.0  0.962300376386665  0.6947040245422965  0.25028384633282047  1.0000
  C   C9        1.0  0.9379367900783391  0.19483986661821712  0.7685145145916652  1.0000
  C   C10       1.0  0.8673088616556086  0.19532739657025638  0.2311932824935996  1.0000
  C   C11       1.0  0.4570038354699335  0.6945841602503221  0.7312645510851185  1.0000
  C   C12       1.0  0.8485033848625391  0.6956525949389343  0.26880316141061683  1.0000
  C   C13       1.0  0.9659744666827094  0.3126559574299818  0.669663486801774  1.0000
  C   C14       1.0  0.7215778488882802  0.31295337518716326  0.33013339753224374  1.0000
  C   C15       1.0  0.38603615849062567  0.812346036980031  0.8301918455079971  1.0000
  C   C16       1.0  0.8014373386061637  0.8133501448462677  0.1699508809948755  1.0000
  C   C17       1.0  0.8118787935053506  0.25033123575915533  0.6915635649269447  1.0000
  C   C18       1.0  0.9381322417432828  0.2504510028618511  0.30816927069383143  1.0000
  C   C19       1.0  0.25375610870850107  0.7503350307218069  0.8080904357350037  1.0000
  C   C20       1.0  0.9960718750790962  0.7510271133506733  0.19180513223309983  1.0000
  C   C21       1.0  0.3882802628838391  0.2998201274631355  0.7248784482079389  1.0000
  C   C22       1.0  0.3123131360564527  0.29954230082139327  0.27532033993482236  1.0000
  C   C23       1.0  0.8619153701668905  0.8004563807872387  0.7750813714923127  1.0000
  C   C24       1.0  0.33644129603298006  0.800009497804403  0.22504549469573484  1.0000
  C   C25       1.0  0.836139186312508  0.3733946354318503  0.5889469456024943  1.0000
  C   C26       1.0  0.7906781131408779  0.3734405838620914  0.41089832640837215  1.0000
  C   C27       1.0  0.17529283547784744  0.8732817998552846  0.9108319339947216  1.0000
  C   C28       1.0  0.9513931950906099  0.873652888972074  0.08903873338788078  1.0000
  C   C29       1.0  0.4759525404467555  0.4142148017330526  0.6445061073818935  1.0000
  C   C30       1.0  0.11017154830971532  0.4137470212195564  0.3556093210865043  1.0000
  C   C31       1.0  0.8699898287150917  0.9142760859956736  0.8554194928573723  1.0000
  C   C32       1.0  0.21476411413728874  0.9141312764132575  0.1446304754220264  1.0000
  C   C33       1.0  0.9983580395599885  0.2550311903878819  0.7276639465432952  1.0000
  C   C34       1.0  0.746706498750548  0.255561886222864  0.27206974628764874  1.0000
  C   C35       1.0  0.4765398908346087  0.7546297269194396  0.7722170934424781  1.0000
  C   C36       1.0  0.7686607877241086  0.7558464654014754  0.22799688828646955  1.0000
  C   C37       1.0  0.1856151351918456  0.13721797136021505  0.9329045132172312  1.0000
  C   C38       1.0  0.6769382918699873  0.13734907210708508  0.06703859295450354  1.0000
  C   C39       1.0  0.8680835067413778  0.6377300823954853  0.5669432856786544  1.0000
  C   C40       1.0  0.493830455719966  0.637510079739279  0.43291418580903246  1.0000
  C   C41       1.0  0.9768759988056671  0.13109644488547187  0.8307684403720119  1.0000
  C   C42       1.0  0.8919432921303141  0.13163009197311473  0.16896555846818034  1.0000
  C   C43       1.0  0.5582053446060798  0.6308295142847198  0.668997667218001  1.0000
  C   C44       1.0  0.8110601002607751  0.6318060152996592  0.33098524016494235  1.0000
  C   C45       1.0  0.3693022570226887  0.2839705331823622  0.8447845602808001  1.0000
  C   C46       1.0  0.3466016363006688  0.284159617791637  0.1554270192491885  1.0000
  C   C47       1.0  0.9635750028926752  0.7842140042255318  0.6552537547966965  1.0000
  C   C48       1.0  0.251309194189119  0.7842642325384189  0.34497080600831254  1.0000
  C   C49       1.0  0.42184822183698195  0.3113793319954181  0.7799232611604552  1.0000
  C   C50       1.0  0.2669033939574277  0.31125746859895986  0.22036558421186214  1.0000
  C   C51       1.0  0.9509409411798231  0.8116425933386677  0.7201654170882679  1.0000
  C   C52       1.0  0.2362676201605327  0.8114833451148156  0.28009131066623644  1.0000
  C   C53       1.0  0.2835705695365506  0.2444267325113073  0.854795727461088  1.0000
  C   C54       1.0  0.47191429806983365  0.24471100833086715  0.14528112772369897  1.0000
  C   C55       1.0  0.8877115213345023  0.7449863320519082  0.6451003804421804  1.0000
  C   C56       1.0  0.3665693088745881  0.7449840329507538  0.3549583477202703  1.0000
  C   C57       1.0  0.2516848536073157  0.23069035971565904  0.7996241788270027  1.0000
  C   C58       1.0  0.5178379669996148  0.23084671035738305  0.20035141911228047  1.0000
  C   C59       1.0  0.8000971845708167  0.7317600865609106  0.7001326023014373  1.0000
  C   C60       1.0  0.4673351637898903  0.731478415520662  0.29979838016790694  1.0000
  C   C61       1.0  0.30378768210663765  0.25873226150392264  0.735044197231069  1.0000
  C   C62       1.0  0.4379324786713497  0.258604827396958  0.26501967902221696  1.0000
  C   C63       1.0  0.7872692746070843  0.7598977379926803  0.7647625249719711  1.0000
  C   C64       1.0  0.45181546359462027  0.7593227929504706  0.23520883612380322  1.0000
  C   C65       1.0  0.15632338903198223  0.2025537248463393  0.030683553137997432  1.0000
  C   C66       1.0  0.6407375965449305  0.20283220768921942  0.9693336686426905  1.0000
  C   C67       1.0  0.9379313666004664  0.7021452167676754  0.4691699480224403  1.0000
  C   C68       1.0  0.36036939129511586  0.7032194610006426  0.5307538624896183  1.0000
  C   C69       1.0  0.4594567371254427  0.28477500647038306  0.597715115590944  1.0000
  C   C70       1.0  0.2562351351781517  0.28498769597182155  0.40254869923660413  1.0000
  C   C71       1.0  0.8059899099030903  0.7853482505895709  0.902250770947113  1.0000
  C   C72       1.0  0.40772758186344765  0.7849391147665442  0.09787972426001096  1.0000
  C   C73       1.0  0.5091487566926247  0.34258123227130693  0.5484277507546197  1.0000
  C   C74       1.0  0.14857324308628964  0.34281370578486997  0.45177710961128537  1.0000
  C   C75       1.0  0.8071691902421139  0.8426437429464212  0.9515048315177881  1.0000
  C   C76       1.0  0.34961193119696793  0.8427382213997558  0.048548571003500726  1.0000
  C   C77       1.0  0.21144637761356214  0.257383211704635  0.9824958474726841  1.0000
  C   C78       1.0  0.5307984791074889  0.2577270197385388  0.01757106358181921  1.0000
  C   C79       1.0  0.9446739557771975  0.7570528657065194  0.5173980298330747  1.0000
  C   C80       1.0  0.29836790280352693  0.7580971765610653  0.4826656519633943  1.0000
  N   N1        1.0  0.22957582382402106  0.21533562742560253  0.9203735520961304  1.0000
  N   N2        1.0  0.5548343300882267  0.21561152288337124  0.07965408587519832  1.0000
  N   N3        1.0  0.8997911480178618  0.7156086665789088  0.5795031653332219  1.0000
  N   N4        1.0  0.3841890270195806  0.7158278170522081  0.4205028639717981  1.0000
  N   N5        1.0  0.43911410437482373  0.3306848752961215  0.6589923036499031  1.0000
  N   N6        1.0  0.23066874838282558  0.3304282910443915  0.3412222878437419  1.0000
  N   N7        1.0  0.8469269695017799  0.8312198331280524  0.8409736601628526  1.0000
  N   N8        1.0  0.3206874992792095  0.8307082542897389  0.15914052171117285  1.0000
  N   N9        1.0  0.5182028585581125  0.4227832395688719  0.5784979956194719  1.0000
  N   N10       1.0  0.05925336358969  0.42259876520714096  0.42160273943375154  1.0000
  N   N11       1.0  0.8466753546498607  0.9225744790700361  0.9214057288931414  1.0000
  N   N12       1.0  0.23015508112419528  0.9227903311290857  0.07860541390644474  1.0000
  N   N13       1.0  0.14184306055409476  0.12826283880077224  0.9986771828980068  1.0000
  N   N14       1.0  0.729609410145457  0.12838547297037908  0.0012588529459094987  1.0000
  N   N15       1.0  0.8907155584549283  0.6283867919696816  0.5011485999158085  1.0000
  N   N16       1.0  0.48106166208494744  0.6286331543652252  0.4986543188722836  1.0000
  O   O1        1.0  0.7090444342689539  0.5822984846698273  0.5000575675800152  1.0000
  O   O2        1.0  0.9588592807128364  0.08221994310734705  3.957426258702666e-05  1.0000
  O   O3        1.0  0.737465052200264  0.3833932627167653  0.5826277428517133  1.0000
  O   O4        1.0  0.8793342981754932  0.3834810825690269  0.41719926400247703  1.0000
  O   O5        1.0  0.07030464067548077  0.8832743210351665  0.9171674521611379  1.0000
  O   O6        1.0  0.04631344109811414  0.8837645663618117  0.08274347282605989  1.0000
  O   O7        1.0  0.9063392175567632  0.41060319875010953  0.5486048157536063  1.0000
  O   O8        1.0  0.683238644402472  0.4106530812486823  0.45125313130201067  1.0000
  O   O9        1.0  0.2051274300129935  0.910443428691664  0.9512159631184288  1.0000
  O   O10       1.0  0.8845562002864255  0.9104642531240184  0.048593936778679965  1.0000
  O   O11       1.0  0.8962575705929865  0.10689613434666967  0.8739020597804626  1.0000
  O   O12       1.0  0.996865562897831  0.10717540746573918  0.1258781458963514  1.0000
  O   O13       1.0  0.5205191992183558  0.6069939317868956  0.6258401120267153  1.0000
  O   O14       1.0  0.8733081660293891  0.6067945090363052  0.3739134150538917  1.0000
  O   O15       1.0  0.08059853554112115  0.10668390743673936  0.8347358508775001  1.0000
  O   O16       1.0  0.8124939272145681  0.10746387135993263  0.16498081873110965  1.0000
  O   O17       1.0  0.6659941994867113  0.6060348551825283  0.665063009706195  1.0000
  O   O18       1.0  0.727261864201438  0.6080931105972238  0.33509648862298047  1.0000
