data_image0
_chemical_formula_structural       Zr12H56C60O64
_chemical_formula_sum              "Zr12 H56 C60 O64"
_cell_length_a       17.49456425565937
_cell_length_b       20.33179533202828
_cell_length_c       20.926083330288996
_cell_angle_alpha    90.0191533272226
_cell_angle_beta     100.17222249503894
_cell_angle_gamma    89.96767907498348

_space_group_name_H-M_alt    "P 1"
_space_group_IT_number       1

loop_
  _space_group_symop_operation_xyz
  'x, y, z'

loop_
  _atom_site_type_symbol
  _atom_site_label
  _atom_site_symmetry_multiplicity
  _atom_site_fract_x
  _atom_site_fract_y
  _atom_site_fract_z
  _atom_site_occupancy
  Zr  Zr1       1.0  0.8602694492991745  0.4679675962897747  0.6155414768471132  1.0000
  Zr  Zr2       1.0  0.0750097928850479  0.5872889706677  0.546763223774434  1.0000
  Zr  Zr3       1.0  0.056219876227053996  0.5024025636343197  0.6913707631889919  1.0000
  Zr  Zr4       1.0  0.8806947606809105  0.554353128834528  0.47074206004127456  1.0000
  Zr  Zr5       1.0  0.9215652333325509  0.631609442802585  0.6263381528188177  1.0000
  Zr  Zr6       1.0  0.012419743771715699  0.42417223925463793  0.5326041656805813  1.0000
  Zr  Zr7       1.0  0.36751160960203316  0.06298046764111831  0.1438041605280844  1.0000
  Zr  Zr8       1.0  0.5695789590606423  0.9983389363142692  0.02101198246814559  1.0000
  Zr  Zr9       1.0  0.537577534609845  0.14272967612562576  0.10752537455918798  1.0000
  Zr  Zr10      1.0  0.4011606672940928  0.9181623825415315  0.05571686224662639  1.0000
  Zr  Zr11      1.0  0.388073363004338  0.07687652025016692  0.9814560736264754  1.0000
  Zr  Zr12      1.0  0.5479582510165174  0.981252027349193  0.1831062125704221  1.0000
  H   H1        1.0  0.1273667647310717  0.7951846821453615  0.2690938343205644  1.0000
  H   H2        1.0  0.8792088714857442  0.8004616018813167  0.2607702795214308  1.0000
  H   H3        1.0  0.9852393349405586  0.9248158972203131  0.13376135900760028  1.0000
  H   H4        1.0  0.8107146680964304  0.2616354693521997  0.8946069687198772  1.0000
  H   H5        1.0  0.05914771267840278  0.27572815329514105  0.9076829448572211  1.0000
  H   H6        1.0  0.9627358031547002  0.13632436769032816  0.027299465551152428  1.0000
  H   H7        1.0  0.7794547651790252  0.5827791558998926  0.5586335330994314  1.0000
  H   H8        1.0  0.08204168180787969  0.6382599615736668  0.6815979304412068  1.0000
  H   H9        1.0  0.019899920772147098  0.5186220458397487  0.4296986948502877  1.0000
  H   H10       1.0  0.9888117221559367  0.3749588007349161  0.6521350079085549  1.0000
  H   H11       1.0  0.9688953403791273  0.7145664818831748  0.7125426380567035  1.0000
  H   H12       1.0  0.17826435497339327  0.4253210196266721  0.725275322934479  1.0000
  H   H13       1.0  0.15548398685788098  0.3651993121372429  0.5763221647242887  1.0000
  H   H14       1.0  0.8630310136996399  0.7368031630830032  0.5623839668946147  1.0000
  H   H15       1.0  0.7514372124699024  0.6273797628675696  0.43472484259777394  1.0000
  H   H16       1.0  0.8250895483766812  0.4760645985814734  0.37152859808899313  1.0000
  H   H17       1.0  0.0058159588218984  0.39387885776589837  0.3980702490034247  1.0000
  H   H18       1.0  0.011101859715466799  0.7387213280209154  0.6126129983131321  1.0000
  H   H19       1.0  0.1025169304052227  0.7174435663331025  0.5158100703846245  1.0000
  H   H20       1.0  0.8419714884139254  0.3314610550353763  0.6293330841155723  1.0000
  H   H21       1.0  0.9341750245990993  0.31751488714340337  0.4913289338056046  1.0000
  H   H22       1.0  0.8190736964175326  0.6791893053047107  0.5139410522352533  1.0000
  H   H23       1.0  0.15891374102687184  0.7026400666838981  0.5817955552190952  1.0000
  H   H24       1.0  0.06671978156570899  0.5484389019539578  0.8101613468216584  1.0000
  H   H25       1.0  0.9129682395554467  0.6775040509683025  0.7538196731379259  1.0000
  H   H26       1.0  0.9255307255645916  0.4354386614804682  0.4055543293072503  1.0000
  H   H27       1.0  0.12140356770115801  0.3845759378517429  0.6431139306425067  1.0000
  H   H28       1.0  0.8868353276045793  0.3431701823147506  0.5663692586856612  1.0000
  H   H29       1.0  0.29471247303614934  0.3484945357047948  0.3414205985909646  1.0000
  H   H30       1.0  0.5416772688123643  0.3517124657895466  0.343326526805363  1.0000
  H   H31       1.0  0.44344386568337046  0.47230301238018063  0.47828574353742676  1.0000
  H   H32       1.0  0.6403112705001492  0.7163687820964526  0.8181327257105339  1.0000
  H   H33       1.0  0.39079031720740437  0.7134721599259565  0.8018128787246468  1.0000
  H   H34       1.0  0.5025731844360736  0.5825103303772038  0.6844462333300143  1.0000
  H   H35       1.0  0.2734647618365926  0.005602853463806002  0.03098079399365621  1.0000
  H   H36       1.0  0.5343088285714472  0.1349767034518976  0.9731435829803274  1.0000
  H   H37       1.0  0.5574017516007003  0.8784534232333315  0.08798021297760528  1.0000
  H   H38       1.0  0.5086409605319063  0.10080825383290912  0.23407801308859888  1.0000
  H   H39       1.0  0.39656609502012674  0.1666051039759466  0.9008753935191364  1.0000
  H   H40       1.0  0.6701206886595941  0.1766958891490304  0.18108313154887407  1.0000
  H   H41       1.0  0.6935338012917994  0.02673547617443721  0.24151662517851943  1.0000
  H   H42       1.0  0.31940491775379337  0.0126192701056738  0.8775095771650783  1.0000
  H   H43       1.0  0.2640013284022799  0.8794698906792319  0.9846504478684039  1.0000
  H   H44       1.0  0.3865229113917863  0.8161901149782693  0.1320080795907259  1.0000
  H   H45       1.0  0.5787174358955554  0.8449478456670079  0.2112818885082319  1.0000
  H   H46       1.0  0.4554159344668419  0.0655805561472036  0.8742731748801232  1.0000
  H   H47       1.0  0.5722450800629274  0.9691261421671058  0.8911777595656858  1.0000
  H   H48       1.0  0.37782479888866055  0.07573001793423371  0.2791321907819864  1.0000
  H   H49       1.0  0.5028387390482294  0.9368369093871823  0.28845280579103166  1.0000
  H   H50       1.0  0.3005462818462378  0.9624399129424293  0.9345814249592336  1.0000
  H   H51       1.0  0.61660321829752  0.0364990844103446  0.9058420185802305  1.0000
  H   H52       1.0  0.5150369500178725  0.2645782823780536  0.06596733813952939  1.0000
  H   H53       1.0  0.34088618618056193  0.2069629651749239  0.9398844272006599  1.0000
  H   H54       1.0  0.4876192798380003  0.8518153251648926  0.17108992572154588  1.0000
  H   H55       1.0  0.6403613843468817  0.0939937491617826  0.22202628252037468  1.0000
  H   H56       1.0  0.4340641176226682  0.012587808260136103  0.2657633808501885  1.0000
  C   C1        1.0  0.06390852725515123  0.8626281182083984  0.1988835137439224  1.0000
  C   C2        1.0  0.07057017580165591  0.8148229537342572  0.24806659765293662  1.0000
  C   C3        1.0  0.004008405672777799  0.7922464230169768  0.2702053421114385  1.0000
  C   C4        1.0  0.9307106781077366  0.8178165513728357  0.24337921049750827  1.0000
  C   C5        1.0  0.9237022018298474  0.865495058216581  0.19408892337924039  1.0000
  C   C6        1.0  0.9903798618973098  0.8877920690969958  0.17184779160011485  1.0000
  C   C7        1.0  0.8792752536950771  0.1958331097316801  0.9635473252498769  1.0000
  C   C8        1.0  0.8689756805177281  0.24544881612278152  0.915963231304616  1.0000
  C   C9        1.0  0.9338432701813771  0.2745749981387392  0.8961797888502615  1.0000
  C   C10       1.0  0.0090775327531176  0.25330999942815413  0.9233770709741619  1.0000
  C   C11       1.0  0.019691229997249596  0.20331720171883924  0.9704435496087527  1.0000
  C   C12       1.0  0.9546878682084525  0.174905691662083  0.9906614032254665  1.0000
  C   C13       1.0  0.77302126219444  0.5810119387749282  0.686461451353871  1.0000
  C   C14       1.0  0.7212360535722054  0.4742725845844332  0.49054095620194  1.0000
  C   C15       1.0  0.9296492582493483  0.4160292623990431  0.7583230455954107  1.0000
  C   C16       1.0  0.22257603729808298  0.5781949308152363  0.6597962878660368  1.0000
  C   C17       1.0  0.1689333356898644  0.4737350554523658  0.4810321182805524  1.0000
  C   C18       1.0  0.0022286101616941995  0.6517730580823767  0.40827774468793626  1.0000
  C   C19       1.0  0.3615293801170267  0.413659883453768  0.4121181478854581  1.0000
  C   C20       1.0  0.35224393373582064  0.3672114976451156  0.3614994757729945  1.0000
  C   C21       1.0  0.41714855191314376  0.34527155388762054  0.336465311244595  1.0000
  C   C22       1.0  0.49152894967877364  0.3690578210907916  0.36279312336117897  1.0000
  C   C23       1.0  0.5013971143210512  0.4142552964072551  0.41439063711108304  1.0000
  C   C24       1.0  0.4361250300188501  0.43689469770561834  0.43864833239884854  1.0000
  C   C25       1.0  0.5791774128345749  0.6463300348910366  0.7494879681732627  1.0000
  C   C26       1.0  0.583954550223112  0.6964725493006229  0.7963075891218807  1.0000
  C   C27       1.0  0.5160464283900408  0.7203842429020924  0.8154075044371183  1.0000
  C   C28       1.0  0.4432782275491575  0.6948911765161867  0.7868400160778959  1.0000
  C   C29       1.0  0.43812337596526857  0.6455062472371083  0.7392973273851808  1.0000
  C   C30       1.0  0.5062619951735813  0.6210377575624122  0.7210055493808767  1.0000
  C   C31       1.0  0.23835851246667514  0.1349861405159274  0.03532322022404338  1.0000
  C   C32       1.0  0.2566265861046233  0.9344342067976258  0.1381702408659109  1.0000
  C   C33       1.0  0.41590924586000716  0.20797334783306104  0.19514312422615623  1.0000
  C   C34       1.0  0.6935788662879078  0.11391834369149478  0.027723971599520836  1.0000
  C   C35       1.0  0.7042786573086772  0.9331208120632793  0.13092628790492003  1.0000
  C   C36       1.0  0.5139122929851822  0.8582562401929792  0.9561563576519987  1.0000
  C   C37       1.0  0.5196792254556185  0.7694877661618096  0.8639362378664615  1.0000
  C   C38       1.0  0.5195534224554945  0.8104630952150275  0.9063418797180276  1.0000
  C   C39       1.0  0.408639647808755  0.25905420477353397  0.2415902234406886  1.0000
  C   C40       1.0  0.40978440155304696  0.2988180905260052  0.2852492453884921  1.0000
  C   C41       1.0  0.29538323536088024  0.4362621667674916  0.436343487124077  1.0000
  C   C42       1.0  0.23766096701969272  0.4548142717299441  0.45626488400588266  1.0000
  C   C43       1.0  0.6430121048476422  0.4542103617031543  0.46313109096413996  1.0000
  C   C44       1.0  0.5771524653428912  0.43648793496141985  0.4411854577168127  1.0000
  C   C45       1.0  0.3643634704677509  0.6205103534546694  0.7105139901984643  1.0000
  C   C46       1.0  0.30062420284249924  0.5995992222222454  0.6862772836804467  1.0000
  C   C47       1.0  0.7060326169843166  0.6010350297388101  0.7130717797777849  1.0000
  C   C48       1.0  0.647594781401537  0.6218079183999309  0.730301737509876  1.0000
  C   C49       1.0  0.0957886546666131  0.1813517933233157  0.9965070336622831  1.0000
  C   C50       1.0  0.16160933193008023  0.1624208580943503  0.0170325382824643  1.0000
  C   C51       1.0  0.7600441880257948  0.14179444115363538  0.005014802717191491  1.0000
  C   C52       1.0  0.8144167507602588  0.1668739960632237  0.9849446949631186  1.0000
  C   C53       1.0  0.9255970058405933  0.3252554779462288  0.8488918869783504  1.0000
  C   C54       1.0  0.9241944424257016  0.36909443586223745  0.8090566534485646  1.0000
  C   C55       1.0  0.13121178291349622  0.8857471834717147  0.1769633054773436  1.0000
  C   C56       1.0  0.18906629656256507  0.9062753369907172  0.1587515617870494  1.0000
  C   C57       1.0  0.7829504667591322  0.9097132084523667  0.14894851326891972  1.0000
  C   C58       1.0  0.8488600602102209  0.8902885380154403  0.1681564277799126  1.0000
  C   C59       1.0  0.008388155627557098  0.7010554175267744  0.3600077165515501  1.0000
  C   C60       1.0  0.009061164143183498  0.7434665853669314  0.31909504744470496  1.0000
  O   O1        1.0  0.8410037399020638  0.3589089352727513  0.5911667160234017  1.0000
  O   O2        1.0  0.7770833575777019  0.521313816407229  0.6695517433752514  1.0000
  O   O3        1.0  0.8718536232410443  0.4178407879281921  0.7109879084163993  1.0000
  O   O4        1.0  0.7586960467070796  0.505867648597203  0.4533441583878925  1.0000
  O   O5        1.0  0.991873920037264  0.44897111577315507  0.7638479041593483  1.0000
  O   O6        1.0  0.7447252638790404  0.4589406849513724  0.5496972144217835  1.0000
  O   O7        1.0  0.8217488241233184  0.6267877635601097  0.680666376090528  1.0000
  O   O8        1.0  0.9395551338564514  0.535092820203566  0.6602859672155217  1.0000
  O   O9        1.0  0.8326447627169032  0.5671078299980934  0.5654317636890696  1.0000
  O   O10       1.0  0.98240375405485  0.418763475110005  0.6334331132836297  1.0000
  O   O11       1.0  0.9055069874348547  0.4699033936220757  0.5309506585990391  1.0000
  O   O12       1.0  0.8775503855416529  0.49050150219414956  0.38931477892760563  1.0000
  O   O13       1.0  0.9598757743502871  0.6725400089166199  0.7351228718088478  1.0000
  O   O14       1.0  0.9593935872010063  0.6112617436339177  0.5396757096954944  1.0000
  O   O15       1.0  0.051355365531477994  0.6108508854013055  0.6485911804822493  1.0000
  O   O16       1.0  0.06845300079366008  0.5010680787439554  0.5900860449016534  1.0000
  O   O17       1.0  0.0060264866322655005  0.519155741709028  0.4725538904800288  1.0000
  O   O18       1.0  0.0901792746179524  0.5545898825972628  0.771926707326891  1.0000
  O   O19       1.0  0.19134425313490763  0.5358683617092909  0.6902924207590075  1.0000
  O   O20       1.0  0.1912886701589471  0.6070696805090634  0.6063727238657179  1.0000
  O   O21       1.0  0.9520469830968779  0.3335172819368709  0.5352512046363529  1.0000
  O   O22       1.0  0.1624292142948107  0.533717519492349  0.49626551129794894  1.0000
  O   O23       1.0  0.12518367229545646  0.41602716465333606  0.7043546467422601  1.0000
  O   O24       1.0  0.10829274664175159  0.36428257120666535  0.5948610374423069  1.0000
  O   O25       1.0  0.9660751641602162  0.39661919016380437  0.42510560954373494  1.0000
  O   O26       1.0  0.12042285644523788  0.4271850726890207  0.4853804897758636  1.0000
  O   O27       1.0  0.10410254394603412  0.7065600807591468  0.5616793418299295  1.0000
  O   O28       1.0  0.8060715280725643  0.635460591801568  0.4511172729791753  1.0000
  O   O29       1.0  0.0626316230076327  0.6439513715219222  0.4531181069147864  1.0000
  O   O30       1.0  0.9387421260212748  0.6212461687539843  0.4027464389189745  1.0000
  O   O31       1.0  0.8309327218477093  0.6971831327626604  0.5608112057593502  1.0000
  O   O32       1.0  0.964133046500656  0.7297643613784857  0.6300514135477684  1.0000
  O   O33       1.0  0.3790240469809873  0.0374947941092643  0.2514229311916125  1.0000
  O   O34       1.0  0.25978476548189616  0.1166356123409713  0.09374863462425508  1.0000
  O   O35       1.0  0.36884665445884207  0.1593505453415887  0.19380604371613688  1.0000
  O   O36       1.0  0.2949638824521017  0.897612484827775  0.10587534753269519  1.0000
  O   O37       1.0  0.4696152303732857  0.21463048026332399  0.16227104980936954  1.0000
  O   O38       1.0  0.27018878685308323  0.9942966361154291  0.1539239307876912  1.0000
  O   O39       1.0  0.2776549471367389  0.1302573815085566  0.989244431510322  1.0000
  O   O40       1.0  0.420794253880956  0.11012573132108372  0.07700616456407519  1.0000
  O   O41       1.0  0.32851070927357284  0.013022386073217299  0.04575276876658309  1.0000
  O   O42       1.0  0.49649826405513403  0.08246807563000401  0.19059808036730888  1.0000
  O   O43       1.0  0.43147181482508046  0.978269671916614  0.1397346130175023  1.0000
  O   O44       1.0  0.43158355821545047  0.8350699629937425  0.11745882041542188  1.0000
  O   O45       1.0  0.39260887211066386  0.18796405290694201  0.9432769563671498  1.0000
  O   O46       1.0  0.4504777627529605  0.9896947325093777  0.9994712483417131  1.0000
  O   O47       1.0  0.5173440738784336  0.10111089717761966  0.00028416676624939887  1.0000
  O   O48       1.0  0.5731354870626078  0.040878126759111004  0.1070789531032474  1.0000
  O   O49       1.0  0.5336204814806109  0.9215148932092987  0.0883195370891485  1.0000
  O   O50       1.0  0.5429718237521683  0.22526352989982001  0.05739818134762233  1.0000
  O   O51       1.0  0.6667498460061622  0.14336836682519297  0.07150067092864278  1.0000
  O   O52       1.0  0.6667350885601946  0.06015074684066242  0.9987470534742684  1.0000
  O   O53       1.0  0.5075228985880642  0.9817649981920695  0.2736215987596538  1.0000
  O   O54       1.0  0.6805911863228715  0.9485892394030839  0.07195916676172942  1.0000
  O   O55       1.0  0.6238615571748269  0.1556709275601094  0.1913927410861973  1.0000
  O   O56       1.0  0.6423054494259475  0.04499440776534411  0.2421871198784515  1.0000
  O   O57       1.0  0.5323769882225091  0.8718227336345952  0.20933151884213427  1.0000
  O   O58       1.0  0.6654364623152489  0.9359274462738798  0.17758809279664686  1.0000
  O   O59       1.0  0.5657038106180322  0.015340892114991801  0.9025014611749498  1.0000
  O   O60       1.0  0.31245385001986387  0.898405464931756  0.9769054857094446  1.0000
  O   O61       1.0  0.5657353422226806  0.9043053121435137  0.9638133050627148  1.0000
  O   O62       1.0  0.4590788338443659  0.8512349506062196  0.9873394724710777  1.0000
  O   O63       1.0  0.29749976206021955  0.0101533695288722  0.9173905098241874  1.0000
  O   O64       1.0  0.4068981506617177  0.08277109160781751  0.8842321898583663  1.0000
