data_image0
_chemical_formula_structural       Cu4H20C36N8Cl6
_chemical_formula_sum              "Cu4 H20 C36 N8 Cl6"
_cell_length_a       6.14830957511781
_cell_length_b       10.079789095768984
_cell_length_c       13.978410468008878
_cell_angle_alpha    90.00179707270424
_cell_angle_beta     89.99909889686947
_cell_angle_gamma    104.84801889737024

_space_group_name_H-M_alt    "P 1"
_space_group_IT_number       1

loop_
  _space_group_symop_operation_xyz
  'x, y, z'

loop_
  _atom_site_type_symbol
  _atom_site_label
  _atom_site_symmetry_multiplicity
  _atom_site_fract_x
  _atom_site_fract_y
  _atom_site_fract_z
  _atom_site_occupancy
  Cu  Cu1       1.0  0.23734067543640686  0.040972952066930184  0.24999457189965568  1.0000
  Cu  Cu2       1.0  0.7626580509330623  0.9590392688621562  0.749994186616746  1.0000
  Cu  Cu3       1.0  0.7341353605961841  0.8868805231848214  0.24999671189394948  1.0000
  Cu  Cu4       1.0  0.26585410207487575  0.11312562927811602  0.7499870388599987  1.0000
  H   H1        1.0  0.3041119984219023  0.0900141488455404  0.028123482660461697  1.0000
  H   H2        1.0  0.6958596240943535  0.9099925407661542  0.5281216889262338  1.0000
  H   H3        1.0  0.6958901220764133  0.9099804735427882  0.9718681372085172  1.0000
  H   H4        1.0  0.30412219156347214  0.09000752134985389  0.4718670695052793  1.0000
  H   H5        1.0  0.6272557509451175  0.2116504798109986  0.9251622200183647  1.0000
  H   H6        1.0  0.3727007426714194  0.7883570330596753  0.42516894780761305  1.0000
  H   H7        1.0  0.3727607022911954  0.7883470442312088  0.07482868445229938  1.0000
  H   H8        1.0  0.6272692891180753  0.2116421577423964  0.5748298260931648  1.0000
  H   H9        1.0  0.9876860841605578  0.3413329552615849  0.004771119644303199  1.0000
  H   H10       1.0  0.012277561913670344  0.6586718637039438  0.5047713169244048  1.0000
  H   H11       1.0  0.01233105362917541  0.6586624945913755  0.9952262233019054  1.0000
  H   H12       1.0  0.9876952374219597  0.34132625678007855  0.4952260261788055  1.0000
  H   H13       1.0  0.6191374886802875  0.5590614734117949  0.0704014909831727  1.0000
  H   H14       1.0  0.3808464955876828  0.4409477948173829  0.5704105205009284  1.0000
  H   H15       1.0  0.38087622577993585  0.4409443483235833  0.9296094444763625  1.0000
  H   H16       1.0  0.6191539788841992  0.5590396230274093  0.4295989840166996  1.0000
  H   H17       1.0  0.9656018500921209  0.6772066116721334  0.1622584444689537  1.0000
  H   H18       1.0  0.03439760432839727  0.3227917161856055  0.6622704498426799  1.0000
  H   H19       1.0  0.03440813563894808  0.3227910011657897  0.8377546370779072  1.0000
  H   H20       1.0  0.9656081865768654  0.67719666165182  0.3377454931704875  1.0000
  C   C1        1.0  0.462461319439896  0.14748391139383435  0.0597102252227586  1.0000
  C   C2        1.0  0.537522898625454  0.852517692391771  0.5597080804523884  1.0000
  C   C3        1.0  0.5375472682824592  0.8525106226668695  0.9402821100155521  1.0000
  C   C4        1.0  0.46246469962390063  0.14748435571751625  0.4402813933732119  1.0000
  C   C5        1.0  0.6436584642555587  0.21657633074527632  0.0027948353267178  1.0000
  C   C6        1.0  0.35631698517015303  0.7834220518370216  0.502790785007555  1.0000
  C   C7        1.0  0.3563766769603163  0.7834157757425686  0.9972032229198504  1.0000
  C   C8        1.0  0.6436574309648933  0.2165760465760656  0.49720727347968113  1.0000
  C   C9        1.0  0.8419207095329567  0.2875098736094799  0.0462828210045103  1.0000
  C   C10       1.0  0.15806430435199556  0.7124922074239493  0.5462926615276658  1.0000
  C   C11       1.0  0.15808924750713513  0.7124805117216654  0.9537052218507468  1.0000
  C   C12       1.0  0.8419295134463879  0.28750562602090923  0.4537082584564871  1.0000
  C   C13       1.0  0.8563912678510022  0.28960945157113116  0.14651022121299917  1.0000
  C   C14       1.0  0.1435864332982035  0.7103967944698867  0.6465172374397313  1.0000
  C   C15       1.0  0.1436150473412992  0.7103944060371103  0.8534892680235089  1.0000
  C   C16       1.0  0.8563926146728703  0.2896043381982166  0.35348439801211373  1.0000
  C   C17       1.0  0.6659189810605354  0.2182162551046076  0.1982740969062746  1.0000
  C   C18       1.0  0.3340664646737395  0.7817940494957156  0.6982744311721376  1.0000
  C   C19       1.0  0.3340873632357598  0.781794829322891  0.8017168077424728  1.0000
  C   C20       1.0  0.6659165306063103  0.21821219157276772  0.30172219660200744  1.0000
  C   C21       1.0  0.05805870465994898  0.36128670881097236  0.19844553525159367  1.0000
  C   C22       1.0  0.9419304365517006  0.6387245847719357  0.698447094898718  1.0000
  C   C23       1.0  0.9419369773843795  0.6387152292800877  0.8015639694393568  1.0000
  C   C24       1.0  0.05807590765671482  0.36128649980184246  0.3015509636392579  1.0000
  C   C25       1.0  0.42369023744421946  0.4916436669853255  0.1982806598508091  1.0000
  C   C26       1.0  0.5763039475871848  0.5083572265005003  0.6982986298227162  1.0000
  C   C27       1.0  0.5763024005737591  0.5083479877703639  0.801725267791312  1.0000
  C   C28       1.0  0.42369726945275943  0.4916425711153778  0.3017158825512354  1.0000
  C   C29       1.0  0.6216297296714473  0.5601430628988735  0.14844756556745858  1.0000
  C   C30       1.0  0.3783695979803453  0.4398536740122551  0.6484580162668081  1.0000
  C   C31       1.0  0.37837630882094686  0.4398494414216429  0.8515648005457166  1.0000
  C   C32       1.0  0.6216271767257524  0.5601327619883918  0.351556495973135  1.0000
  C   C33       1.0  0.8110607676283763  0.6254701939257856  0.1990922658571321  1.0000
  C   C34       1.0  0.18894723528232754  0.3745253810143438  0.699095933404635  1.0000
  C   C35       1.0  0.18894943653310037  0.37452431866373814  0.8009301157110259  1.0000
  C   C36       1.0  0.8110703394121757  0.6254638682686745  0.3009164326395677  1.0000
  N   N1        1.0  0.4736818907867146  0.14806563601703  0.1550479348282181  1.0000
  N   N2        1.0  0.526317827956241  0.85195407764774  0.6550451266526948  1.0000
  N   N3        1.0  0.5263394708800817  0.8519462757434509  0.8449422543974592  1.0000
  N   N4        1.0  0.4736832288085465  0.14806327394282445  0.344947208857981  1.0000
  N   N5        1.0  0.2385391836987267  0.42626839972891156  0.35145239686529817  1.0000
  N   N6        1.0  0.7614698974154592  0.573726112909533  0.8514642985408755  1.0000
  N   N7        1.0  0.7614296683279348  0.5737246123547308  0.6485499539156052  1.0000
  N   N8        1.0  0.23855606692185213  0.42628160638910384  0.14854305995963557  1.0000
  Cl  Cl1       1.0  0.9659339596107941  0.9691828357083095  0.1292328601139729  1.0000
  Cl  Cl2       1.0  0.0340580328098028  0.0308245790464952  0.629226290391628  1.0000
  Cl  Cl3       1.0  0.034082522659204494  0.030821915270181008  0.8707551828803161  1.0000
  Cl  Cl4       1.0  0.9659332941775035  0.9691856779456176  0.3707603219577392  1.0000
  Cl  Cl5       1.0  0.36632162393527773  0.8179820633343341  0.24999701394241208  1.0000
  Cl  Cl6       1.0  0.6336648235058461  0.1820210331244638  0.7499996137872457  1.0000
