data_image0
_chemical_formula_structural       Zn2H20C42Br4N8O16
_chemical_formula_sum              "Zn2 H20 C42 Br4 N8 O16"
_cell_length_a       16.346528596422832
_cell_length_b       17.272493960355725
_cell_length_c       17.54977984013325
_cell_angle_alpha    89.74105807734274
_cell_angle_beta     82.42008936403177
_cell_angle_gamma    91.36499724809335

_space_group_name_H-M_alt    "P 1"
_space_group_IT_number       1

loop_
  _space_group_symop_operation_xyz
  'x, y, z'

loop_
  _atom_site_type_symbol
  _atom_site_label
  _atom_site_symmetry_multiplicity
  _atom_site_fract_x
  _atom_site_fract_y
  _atom_site_fract_z
  _atom_site_occupancy
  Zn  Zn1       1.0  0.40881845249914045  0.49031292958846956  0.5098929929611487  1.0000
  Zn  Zn2       1.0  0.587269207366951  0.5119117651965722  0.495236830491443  1.0000
  H   H1        1.0  0.7082966995790868  0.4243768856785906  0.554598081906434  1.0000
  H   H2        1.0  0.8588545743329377  0.41575801522372297  0.5540315427745739  1.0000
  H   H3        1.0  0.8868461440970776  0.618862680609567  0.405608690039827  1.0000
  H   H4        1.0  0.10809314495467248  0.39822914683428934  0.6134038419406025  1.0000
  H   H5        1.0  0.1403413727635368  0.5686134423264806  0.4287807848254133  1.0000
  H   H6        1.0  0.2903858589694435  0.565455425913683  0.43518157259578777  1.0000
  H   H7        1.0  0.008676050472125494  0.5652080805986941  0.43937812760018613  1.0000
  H   H8        1.0  0.9885278545077367  0.4352963906122512  0.5618752669874141  1.0000
  H   H9        1.0  0.601023825944587  0.4447654812732297  0.7346097132122082  1.0000
  H   H10       1.0  0.594888133724666  0.4423663957592012  0.8762308485004979  1.0000
  H   H11       1.0  0.37403987306171144  0.5770028280322422  0.8932391448733057  1.0000
  H   H12       1.0  0.6440632552214609  0.44969592971629874  0.11200479409146172  1.0000
  H   H13       1.0  0.3910601010639708  0.5211605399070719  0.127540389465949  1.0000
  H   H14       1.0  0.38374165613246447  0.5226704889319507  0.2690917770560262  1.0000
  H   H15       1.0  0.41738291191148846  0.5369447308653009  0.0067628627869425  1.0000
  H   H16       1.0  0.5872401711741587  0.46180958972946234  0.9977611869329478  1.0000
  H   H17       1.0  0.6042602942466926  0.7507841296807742  0.5077140014146195  1.0000
  H   H18       1.0  0.6042877234050792  0.8967862512644587  0.5026738672695927  1.0000
  H   H19       1.0  0.6528359497544116  0.11454082021488432  0.5134593318938416  1.0000
  H   H20       1.0  0.40049114388179413  0.1036247552822189  0.4656971584764166  1.0000
  C   C1        1.0  0.4984951838145406  0.5037481512902745  0.6473829572444816  1.0000
  C   C2        1.0  0.5175936370447545  0.3511718751689301  0.49665327066561105  1.0000
  C   C3        1.0  0.4995569840046483  0.497448013966597  0.35703766018486505  1.0000
  C   C4        1.0  0.4800238077785295  0.6503573767044061  0.5062438843536016  1.0000
  C   C5        1.0  0.7505306594003328  0.46622907168269734  0.5224137739274824  1.0000
  C   C6        1.0  0.8348914192278726  0.4624867002275793  0.5222547685726513  1.0000
  C   C7        1.0  0.8872906157012324  0.5183134353373334  0.48063082777225935  1.0000
  C   C8        1.0  0.8499445986214977  0.5743920810296288  0.4394279256840364  1.0000
  C   C9        1.0  0.764359585966261  0.5735395635759417  0.44249921258297326  1.0000
  C   C10       1.0  0.976667551210454  0.5216369473914854  0.47851184048887774  1.0000
  C   C11       1.0  0.020687817602407697  0.47776949442948796  0.5215298996749669  1.0000
  C   C12       1.0  0.14584658597082978  0.43625177243583835  0.5725580999629045  1.0000
  C   C13       1.0  0.10995048141359119  0.48221199082843214  0.5204521980948301  1.0000
  C   C14       1.0  0.1632578989653908  0.5303828893083137  0.47018613010231297  1.0000
  C   C15       1.0  0.24720620308541186  0.5291848977692979  0.4731371166324508  1.0000
  C   C16       1.0  0.23118351783117663  0.43948057187764533  0.572334433354044  1.0000
  C   C17       1.0  0.49135691486933547  0.5097207356373873  0.7329967501390513  1.0000
  C   C18       1.0  0.5513638796191032  0.4733716047842976  0.7705755982674418  1.0000
  C   C19       1.0  0.5477906735300592  0.4724667869596786  0.8498494679969825  1.0000
  C   C20       1.0  0.48317043051791586  0.5093402313661388  0.8960681982023431  1.0000
  C   C21       1.0  0.42390304267409806  0.5469866716549633  0.8589638942803506  1.0000
  C   C22       1.0  0.42761884497102187  0.5475601514903944  0.7792021665050513  1.0000
  C   C23       1.0  0.4742536395708397  0.5110354253881724  0.9796459667893062  1.0000
  C   C24       1.0  0.5290526295411766  0.48534396174290634  0.024774010974887503  1.0000
  C   C25       1.0  0.5869472836245465  0.4674282565445794  0.1459299959456004  1.0000
  C   C26       1.0  0.5193789451001292  0.4873165044189562  0.10839387738530354  1.0000
  C   C27       1.0  0.4455368429706894  0.5073634140541401  0.1542041253768787  1.0000
  C   C28       1.0  0.44109334483575674  0.5083830675069477  0.23350714987072513  1.0000
  C   C29       1.0  0.5093370183880097  0.4912445072928549  0.271350857746782  1.0000
  C   C30       1.0  0.5823697737264125  0.46993444957065833  0.22569946671809052  1.0000
  C   C31       1.0  0.47434845185308194  0.7375299414688996  0.5071966759221668  1.0000
  C   C32       1.0  0.547545226599091  0.7821443880003047  0.505816623461925  1.0000
  C   C33       1.0  0.5478246813684605  0.8621828437756065  0.5022241180851523  1.0000
  C   C34       1.0  0.47395970686402217  0.9008517082065027  0.4979232764853094  1.0000
  C   C35       1.0  0.40040574597524164  0.8566871131786158  0.49895616993231334  1.0000
  C   C36       1.0  0.40030302254477573  0.776287161248469  0.5055266312537654  1.0000
  C   C37       1.0  0.5967734384405076  0.14381751722144293  0.503785599122125  1.0000
  C   C38       1.0  0.5266628551644813  0.10022494338067393  0.4909448890396959  1.0000
  C   C39       1.0  0.45460340677672656  0.13753025608426134  0.4769405494955947  1.0000
  C   C40       1.0  0.4548187540786656  0.21762089557427094  0.47646112735395013  1.0000
  C   C41       1.0  0.5220924552931407  0.264019508042395  0.4929204500981684  1.0000
  C   C42       1.0  0.592211872819135  0.22391524956920253  0.5066404471062071  1.0000
  Br  Br1       1.0  0.7165253989744397  0.6501212622383223  0.38626337177753106  1.0000
  Br  Br2       1.0  0.27685377422248786  0.37897358296084604  0.6449850396095443  1.0000
  Br  Br3       1.0  0.3453225185860375  0.6061973052490616  0.7392769920678859  1.0000
  Br  Br4       1.0  0.6778600661412924  0.43759576163402153  0.2679449916652459  1.0000
  N   N1        1.0  0.7148127953139747  0.5212642335329178  0.48328758132188193  1.0000
  N   N2        1.0  0.2816263290220675  0.4839354492132699  0.5230410861726824  1.0000
  N   N3        1.0  0.4665135924518464  0.9818727656320193  0.4964632226195818  1.0000
  N   N4        1.0  0.5346242514330086  0.019138013391071202  0.4922106640239647  1.0000
  N   N5        1.0  0.3197193389550107  0.7336710437260763  0.510725446075462  1.0000
  N   N6        1.0  0.3226720010932667  0.8971780202674823  0.4934047987891788  1.0000
  N   N7        1.0  0.6654466678506735  0.2658557737885374  0.5286672071713241  1.0000
  N   N8        1.0  0.3800820712486796  0.25378319564602964  0.4537450158470619  1.0000
  O   O1        1.0  0.4326652475221521  0.5110784661567821  0.6171485963423606  1.0000
  O   O2        1.0  0.5696702412937141  0.4906518055725827  0.6109295846658824  1.0000
  O   O3        1.0  0.5840461993232395  0.3894672951959421  0.4774233591862541  1.0000
  O   O4        1.0  0.44652844021585025  0.37637224704644723  0.5194921383135878  1.0000
  O   O5        1.0  0.5616453926145936  0.5228987814985332  0.3867861198324292  1.0000
  O   O6        1.0  0.42918838591927494  0.47856621315710174  0.39334620798831577  1.0000
  O   O7        1.0  0.4176884226619463  0.6120325547828358  0.48995521549771576  1.0000
  O   O8        1.0  0.5483997854313285  0.624233985754273  0.5202596862241508  1.0000
  O   O9        1.0  0.2916395796321822  0.7065713675543749  0.5739701633976608  1.0000
  O   O10       1.0  0.2862717993064832  0.7317414850359473  0.4514315196050589  1.0000
  O   O11       1.0  0.3176955608223152  0.9318640035784966  0.4327157988025689  1.0000
  O   O12       1.0  0.26937626697811357  0.8925716338795481  0.5503153461749264  1.0000
  O   O13       1.0  0.6566956213832353  0.2991628389227118  0.5914030096951919  1.0000
  O   O14       1.0  0.7305007533895135  0.26126540060425196  0.48445266834699646  1.0000
  O   O15       1.0  0.3891769599812491  0.290076525109626  0.3923795795296243  1.0000
  O   O16       1.0  0.3144938674057798  0.24098927403550624  0.49604373760563186  1.0000
