data_image0
_chemical_formula_structural       Cu4P2H28C34I4N2
_chemical_formula_sum              "Cu4 P2 H28 C34 I4 N2"
_cell_length_a       7.676460227173803
_cell_length_b       8.429914032982126
_cell_length_c       14.224550810428592
_cell_angle_alpha    77.19561195635343
_cell_angle_beta     86.35303990185395
_cell_angle_gamma    86.41088779382511

_space_group_name_H-M_alt    "P 1"
_space_group_IT_number       1

loop_
  _space_group_symop_operation_xyz
  'x, y, z'

loop_
  _atom_site_type_symbol
  _atom_site_label
  _atom_site_symmetry_multiplicity
  _atom_site_fract_x
  _atom_site_fract_y
  _atom_site_fract_z
  _atom_site_occupancy
  Cu  Cu1       1.0  0.9235735115868167  0.45535757419449424  0.5861790728045477  1.0000
  Cu  Cu2       1.0  0.0764250586354507  0.5446437380793298  0.41381910427850244  1.0000
  Cu  Cu3       1.0  0.2883227788857923  0.4722802015191548  0.5540630732672865  1.0000
  Cu  Cu4       1.0  0.7116769723862363  0.5277235440289373  0.44593474937938987  1.0000
  P   P1        1.0  0.025607201483893498  0.3003014691996811  0.7203185783858572  1.0000
  P   P2        1.0  0.9743913173100367  0.699701051307443  0.2796801503484758  1.0000
  H   H1        1.0  0.12605737400480882  0.9423935864814228  0.7882747388665052  1.0000
  H   H2        1.0  0.8739385638436301  0.05760775062839233  0.2117221304388863  1.0000
  H   H3        1.0  0.36320683055672015  0.7706634872561794  0.7249964490378034  1.0000
  H   H4        1.0  0.636789045103221  0.22933906782882477  0.2750002680429374  1.0000
  H   H5        1.0  0.576616321412409  0.9071285142075924  0.5963370359366565  1.0000
  H   H6        1.0  0.4233834406197801  0.09287522159861082  0.4036614905859395  1.0000
  H   H7        1.0  0.5387745021250296  0.20858064428908565  0.5324825330035664  1.0000
  H   H8        1.0  0.46122781933232904  0.7914242943982049  0.4675164451961322  1.0000
  H   H9        1.0  0.8061139630027297  0.056223169380736224  0.6856207368238998  1.0000
  H   H10       1.0  0.19388334483340225  0.9437781066016345  0.3143803057499425  1.0000
  H   H11       1.0  0.935924453142647  0.2358242384765674  0.9323310725835795  1.0000
  H   H12       1.0  0.06407545478685249  0.7641770418954866  0.06766916614014916  1.0000
  H   H13       1.0  0.751607011179594  0.0300191253763558  0.03940269400086291  1.0000
  H   H14       1.0  0.24839291827021265  0.969982135511913  0.9605989524747186  1.0000
  H   H15       1.0  0.603912164035023  0.831043286900382  0.970444666813016  1.0000
  H   H16       1.0  0.3960878276032886  0.1689567560127045  0.029557131887209202  1.0000
  H   H17       1.0  0.6335439555668785  0.8430785826824733  0.7936827777324993  1.0000
  H   H18       1.0  0.3664547198845156  0.15692147264861236  0.20631836707889306  1.0000
  H   H19       1.0  0.8931280020362492  0.5736844168456302  0.7958686279626973  1.0000
  H   H20       1.0  0.10687202188253052  0.4263155968417821  0.20413528236529999  1.0000
  H   H21       1.0  0.3720006839289382  0.27286833553626627  0.8129685001229419  1.0000
  H   H22       1.0  0.6279992001078014  0.7271318047957253  0.1870262598180474  1.0000
  H   H23       1.0  0.4894469031374911  0.43474960517293243  0.9172257865399871  1.0000
  H   H24       1.0  0.5105610729739495  0.5652456374597964  0.08276998625294132  1.0000
  H   H25       1.0  0.30491037601311166  0.6582184030890872  0.9683591929988893  1.0000
  H   H26       1.0  0.6950941023621123  0.3417706602771204  0.03164452963777361  1.0000
  H   H27       1.0  0.004483454632712395  0.7251480440510536  0.9083187121609128  1.0000
  H   H28       1.0  0.9955195855510439  0.2748446272073722  0.09168812316853087  1.0000
  C   C1        1.0  0.2023676925282771  0.16296835432668644  0.6896714047256155  1.0000
  C   C2        1.0  0.7976295100787353  0.8370341785984295  0.31032667011988474  1.0000
  C   C3        1.0  0.21859993496065744  0.9968123247864543  0.731011731577496  1.0000
  C   C4        1.0  0.7814011839266257  0.0031902001103461006  0.2689861933067306  1.0000
  C   C5        1.0  0.3512290186483609  0.901668755296143  0.6961439846223243  1.0000
  C   C6        1.0  0.6487654379679811  0.09833622867343911  0.3038531818721495  1.0000
  C   C7        1.0  0.46935091406150065  0.9773317671258043  0.6242597644958608  1.0000
  C   C8        1.0  0.5306476561607668  0.022669545148019707  0.3757384125871894  1.0000
  C   C9        1.0  0.4481731821379854  0.14409725998896056  0.5880433907017134  1.0000
  C   C10       1.0  0.5518252744674397  0.8559064784933529  0.411955185807976  1.0000
  C   C11       1.0  0.7951351711162431  0.049955795452497426  0.7632791831868673  1.0000
  C   C12       1.0  0.20486475833356368  0.9500454654357712  0.23672246328871438  1.0000
  C   C13       1.0  0.8838108786466848  0.15944948476391832  0.8022665060527884  1.0000
  C   C14       1.0  0.1161889156659655  0.8405542218166177  0.19773413209757956  1.0000
  C   C15       1.0  0.8664022265774776  0.15198383494319503  0.901796930427217  1.0000
  C   C16       1.0  0.13359762992367752  0.8480186536621521  0.09820385994779453  1.0000
  C   C17       1.0  0.7637033273498872  0.03575649874259311  0.9618733310665419  1.0000
  C   C18       1.0  0.23629802114352572  0.9642423332610905  0.03812786599530678  1.0000
  C   C19       1.0  0.6805687131748286  0.9240116239190146  0.9231588582541121  1.0000
  C   C20       1.0  0.31943370275150323  0.07599206756741951  0.07684238379799521  1.0000
  C   C21       1.0  0.6971841548229705  0.9309704215463274  0.8239455237662625  1.0000
  C   C22       1.0  0.3028170800536002  0.06903083666583851  0.1760560727222256  1.0000
  C   C23       1.0  0.0219885326031317  0.540488135394746  0.8249049148344696  1.0000
  C   C24       1.0  0.9780117807378302  0.4595058079005199  0.1750983488648927  1.0000
  C   C25       1.0  0.12277788430046137  0.40989022502294153  0.7992794514232031  1.0000
  C   C26       1.0  0.8772261264748024  0.5901073933952434  0.20072109401318974  1.0000
  C   C27       1.0  0.29075789400734203  0.37159320027966203  0.8336693969763758  1.0000
  C   C28       1.0  0.7092421060186781  0.6284056733676878  0.16632903456886786  1.0000
  C   C29       1.0  0.3566753722958039  0.46264753057018754  0.8931623698977376  1.0000
  C   C30       1.0  0.6433260360136612  0.5373489239344666  0.10683490835786097  1.0000
  C   C31       1.0  0.25407063118131396  0.5887915650242025  0.9208525492545974  1.0000
  C   C32       1.0  0.7459310390147423  0.41120116736166784  0.0791501128063956  1.0000
  C   C33       1.0  0.08613049839210153  0.6271028769697086  0.8870055255735564  1.0000
  C   C34       1.0  0.9138724664705505  0.37288986248194794  0.1129963826244165  1.0000
  I   I1        1.0  0.9111446485543482  0.2627919538180663  0.4573486612177291  1.0000
  I   I2        1.0  0.08885254329250361  0.7372105888489386  0.5426487097518446  1.0000
  I   I3        1.0  0.404450971067419  0.4634238425588182  0.3656933135738072  1.0000
  I   I4        1.0  0.5955489153417585  0.5365774572970142  0.6343055173980757  1.0000
  N   N1        1.0  0.31431811640407403  0.23535038439784026  0.6176021818598372  1.0000
  N   N2        1.0  0.6856817078166061  0.7646521334331741  0.38239649688740224  1.0000
