data_image0
_chemical_formula_structural       Zn2H40C48N10O12
_chemical_formula_sum              "Zn2 H40 C48 N10 O12"
_cell_length_a       15.81714156790965
_cell_length_b       17.133661514824432
_cell_length_c       19.05790489554482
_cell_angle_alpha    89.42189668526247
_cell_angle_beta     87.53896673437625
_cell_angle_gamma    86.89665348642025

_space_group_name_H-M_alt    "P 1"
_space_group_IT_number       1

loop_
  _space_group_symop_operation_xyz
  'x, y, z'

loop_
  _atom_site_type_symbol
  _atom_site_label
  _atom_site_symmetry_multiplicity
  _atom_site_fract_x
  _atom_site_fract_y
  _atom_site_fract_z
  _atom_site_occupancy
  Zn  Zn1       1.0  0.5846861400061202  0.5093735557179996  0.4961306671139383  1.0000
  Zn  Zn2       1.0  0.4112713572148081  0.49767417597060154  0.5085533327734383  1.0000
  H   H1        1.0  0.8867760481006854  0.4047264775341546  0.5406809962421733  1.0000
  H   H2        1.0  0.6332915130229323  0.501608096239238  0.14606726401449785  1.0000
  H   H3        1.0  0.3920389190804556  0.42012336170880343  0.7227025327642239  1.0000
  H   H4        1.0  0.6139317780278191  0.530095772586783  0.27457937313719344  1.0000
  H   H5        1.0  0.5854070341313218  0.7437494962272736  0.41879091155587395  1.0000
  H   H6        1.0  0.4050008212442862  0.2554338081603261  0.535595711303053  1.0000
  H   H7        1.0  0.5797000361814213  0.8896061027842705  0.4035771715067825  1.0000
  H   H8        1.0  0.3989470252904185  0.1110158784223074  0.5172362789069994  1.0000
  H   H9        1.0  0.6378940943858424  0.11297972213108658  0.4002490966026573  1.0000
  H   H10       1.0  0.34730684428625846  0.9045300560051144  0.5300838224114273  1.0000
  H   H11       1.0  0.7264664304859636  0.40607547566256835  0.5421865967003825  1.0000
  H   H12       1.0  0.11552216972835785  0.5421085957702514  0.4122069782281983  1.0000
  H   H13       1.0  0.2756038028078294  0.5437690620751993  0.41326346306226486  1.0000
  H   H14       1.0  0.7055372214704291  0.48454771501612026  0.6744057824355709  1.0000
  H   H15       1.0  0.7386805002127375  0.5179524001008106  0.7572127606936123  1.0000
  H   H16       1.0  0.7585631232073382  0.6512830550221762  0.7043964292661685  1.0000
  H   H17       1.0  0.8207341329890808  0.5787880553639084  0.6558545122306967  1.0000
  H   H18       1.0  0.7232141551343145  0.6184481326015501  0.6228072503248613  1.0000
  H   H19       1.0  0.3970194924067699  0.282763377967008  0.29299385795385297  1.0000
  H   H20       1.0  0.43284593265570237  0.33755640843290274  0.3643067797959318  1.0000
  H   H21       1.0  0.24526501197971845  0.31430274113380813  0.33797307792443126  1.0000
  H   H22       1.0  0.3066906676743527  0.2613343199334964  0.40084588862136183  1.0000
  H   H23       1.0  0.12187689269752157  0.4203489024194837  0.6114101615663047  1.0000
  H   H24       1.0  0.28571089499834557  0.36388209001349736  0.41041480182103385  1.0000
  H   H25       1.0  0.5929758667796606  0.3451527864587902  0.35820006130308013  1.0000
  H   H26       1.0  0.6397526006187417  0.2658070316346084  0.3071631709110677  1.0000
  H   H27       1.0  0.7851326429133039  0.3129419644523709  0.33317473576381224  1.0000
  H   H28       1.0  0.7218274229392989  0.38420011681057525  0.28726434080086705  1.0000
  H   H29       1.0  0.7336882719842277  0.3938534673449539  0.3792554625452668  1.0000
  H   H30       1.0  0.28117038856608195  0.6970628416409353  0.4794813370574148  1.0000
  H   H31       1.0  0.2316902428881136  0.7895321703930235  0.505742349567008  1.0000
  H   H32       1.0  0.19633995189570186  0.7324074584859446  0.6253801449872186  1.0000
  H   H33       1.0  0.1514941301066912  0.6782289588583479  0.5581857428441098  1.0000
  H   H34       1.0  0.8703820227674796  0.6256769553287712  0.43009609359540957  1.0000
  H   H35       1.0  0.24575961141029976  0.6411249481854141  0.5983977864397121  1.0000
  H   H36       1.0  0.2817183193838062  0.4313032416791174  0.6060731068116355  1.0000
  H   H37       1.0  0.7099543116442392  0.6199780945440948  0.43995737643385985  1.0000
  H   H38       1.0  0.6286758185074675  0.5171572992056781  0.8544786530560844  1.0000
  H   H39       1.0  0.4022709786490211  0.37851104938040686  0.15845095318466212  1.0000
  H   H40       1.0  0.40592716140935886  0.38342764855917716  0.8494563362878295  1.0000
  C   C1        1.0  0.5203535880246688  0.35119070353287196  0.4952283644518616  1.0000
  C   C2        1.0  0.463232204157343  0.905595646575918  0.4665659575213823  1.0000
  C   C3        1.0  0.5862769712283223  0.1441719926245852  0.42983795359477034  1.0000
  C   C4        1.0  0.3983526916236926  0.8687418380924824  0.5042262527992564  1.0000
  C   C5        1.0  0.5902718077349577  0.2245737532701355  0.4405360825063696  1.0000
  C   C6        1.0  0.4014433191271323  0.7875955923350731  0.5126591324876344  1.0000
  C   C7        1.0  0.23806263422341792  0.5188791571435305  0.4564316886604588  1.0000
  C   C8        1.0  0.761613470567639  0.45383231905459087  0.5193399662662942  1.0000
  C   C9        1.0  0.15053231884765947  0.5172829585330091  0.4557858994566575  1.0000
  C   C10       1.0  0.8493709722491971  0.4529916550429789  0.5179072770331248  1.0000
  C   C11       1.0  0.1079626355359338  0.4821343268098701  0.5128950277981091  1.0000
  C   C12       1.0  0.4804933845229937  0.6554097986762456  0.49232256953080644  1.0000
  C   C13       1.0  0.8891669735305499  0.516030314850063  0.4856345037191403  1.0000
  C   C14       1.0  0.15445606931975678  0.4488404145449749  0.567517577759169  1.0000
  C   C15       1.0  0.8398580104967338  0.5769267883092226  0.45580597623138175  1.0000
  C   C16       1.0  0.4974234711903377  0.499015048550092  0.6391680550792104  1.0000
  C   C17       1.0  0.49433671740834473  0.4910100330472461  0.3653588563461697  1.0000
  C   C18       1.0  0.2418854241901229  0.4543977930202132  0.5645660098931344  1.0000
  C   C19       1.0  0.7521545931063828  0.5737473584040628  0.4607383634424665  1.0000
  C   C20       1.0  0.5696739679733868  0.5148748990127244  0.7548106131682888  1.0000
  C   C21       1.0  0.43810432885799605  0.42834650817788855  0.2548942820469193  1.0000
  C   C22       1.0  0.5775295959016659  0.49466694934763916  0.8253509102203723  1.0000
  C   C23       1.0  0.523880520506509  0.26538592852269005  0.47952325558051007  1.0000
  C   C24       1.0  0.4491166275517457  0.4121263042371055  0.18329008146854162  1.0000
  C   C25       1.0  0.5194508340012618  0.44639679144735567  0.8593740569430751  1.0000
  C   C26       1.0  0.519059473702228  0.43813132793736287  0.14380542019826953  1.0000
  C   C27       1.0  0.45140298290505143  0.4200713146285508  0.8225404771239512  1.0000
  C   C28       1.0  0.579005617821828  0.4813130000481536  0.17676562241510402  1.0000
  C   C29       1.0  0.4439099005195787  0.4405368553206372  0.7523035822178701  1.0000
  C   C30       1.0  0.5681470651154114  0.4970918598765408  0.24782709601043967  1.0000
  C   C31       1.0  0.5034999193755282  0.48618182791756936  0.7168254364450919  1.0000
  C   C32       1.0  0.4985304774415694  0.47149086411106106  0.288533867072296  1.0000
  C   C33       1.0  0.5289567482709289  0.4221768019144818  0.0685197836690463  1.0000
  C   C34       1.0  0.4699965928855931  0.742158266724914  0.4820084263048372  1.0000
  C   C35       1.0  0.5290676916336636  0.4262774307085877  0.9334750958355613  1.0000
  C   C36       1.0  0.7085299220586663  0.5362588894713625  0.7080239228404039  1.0000
  C   C37       1.0  0.75563640794811  0.6001165729942527  0.6705258728423971  1.0000
  C   C38       1.0  0.3798714726728747  0.3312561453904834  0.32957863745335914  1.0000
  C   C39       1.0  0.2992428594096879  0.3170187111800543  0.37211638678724773  1.0000
  C   C40       1.0  0.6497088102529887  0.30558992930651385  0.3509838030000837  1.0000
  C   C41       1.0  0.7275482333770851  0.3517623181869354  0.33701817719755683  1.0000
  C   C42       1.0  0.26469256961617305  0.7353384890766037  0.5247135447249676  1.0000
  C   C43       1.0  0.21131292690135686  0.6943022192933129  0.5800360747023987  1.0000
  C   C44       1.0  0.45530929434210776  0.22284411013265526  0.5058039736312667  1.0000
  C   C45       1.0  0.5330593785826637  0.7800014072748168  0.4422155473872422  1.0000
  C   C46       1.0  0.4513877309926216  0.14345669336314867  0.495537052286494  1.0000
  C   C47       1.0  0.5303094489464542  0.8604387637843158  0.43357721157291723  1.0000
  C   C48       1.0  0.5178601202920203  0.10321518587364409  0.4571394464335656  1.0000
  N   N1        1.0  0.47001153894694175  0.38409427163329474  0.9678366083315385  1.0000
  N   N2        1.0  0.978116966604091  0.5228683393234163  0.4798858502042267  1.0000
  N   N3        1.0  0.6010105991186591  0.4419269490120498  0.03338315627001981  1.0000
  N   N4        1.0  0.46996892950471647  0.38194099716188384  0.03691756355690501  1.0000
  N   N5        1.0  0.6011986532805764  0.4438864942795746  0.9643542182999385  1.0000
  N   N6        1.0  0.5227573626851126  0.02136645273157709  0.4467150137406151  1.0000
  N   N7        1.0  0.45729940653195206  0.9879298561453704  0.46951126484605515  1.0000
  N   N8        1.0  0.2824156094816388  0.48888680811093377  0.5102267234688328  1.0000
  N   N9        1.0  0.7141940098050481  0.5133629158634888  0.49171258016152575  1.0000
  N   N10       1.0  0.018964144614777502  0.47650414818004094  0.5195462962147985  1.0000
  O   O1        1.0  0.5868185219881568  0.3889983461528103  0.48435068156264555  1.0000
  O   O2        1.0  0.3663654635886217  0.40228582088833775  0.2887931090608404  1.0000
  O   O3        1.0  0.6614951899051179  0.25900222752130725  0.4139595483409266  1.0000
  O   O4        1.0  0.34188605148200674  0.7547039295729476  0.5568306035489456  1.0000
  O   O5        1.0  0.4147199557498027  0.6159610331624776  0.49144543652099787  1.0000
  O   O6        1.0  0.4487683805016758  0.38082517919357883  0.5182633352137884  1.0000
  O   O7        1.0  0.5560515938424474  0.6277645016524643  0.5000446895653853  1.0000
  O   O8        1.0  0.5668162123181517  0.4960061091307892  0.6027559672803591  1.0000
  O   O9        1.0  0.4256875465710053  0.48123176324272526  0.40078169762924903  1.0000
  O   O10       1.0  0.42345300085063536  0.508061062437136  0.6153200473831859  1.0000
  O   O11       1.0  0.5618873846005599  0.515319689736316  0.38986205389448264  1.0000
  O   O12       1.0  0.6230384054418822  0.5669576967501583  0.7236638046948657  1.0000
