data_image0
_chemical_formula_structural       Zn2H23C37N3O8
_chemical_formula_sum              "Zn2 H23 C37 N3 O8"
_cell_length_a       9.773760441891673
_cell_length_b       11.05568566490613
_cell_length_c       11.004668151346495
_cell_angle_alpha    89.68751312297299
_cell_angle_beta     89.31360529980603
_cell_angle_gamma    88.17279147862652

_space_group_name_H-M_alt    "P 1"
_space_group_IT_number       1

loop_
  _space_group_symop_operation_xyz
  'x, y, z'

loop_
  _atom_site_type_symbol
  _atom_site_label
  _atom_site_symmetry_multiplicity
  _atom_site_fract_x
  _atom_site_fract_y
  _atom_site_fract_z
  _atom_site_occupancy
  Zn  Zn1       1.0  0.6395891137152461  0.4900051436556864  0.5060279092360459  1.0000
  Zn  Zn2       1.0  0.35239682903093683  0.49610133508696913  0.498545798804706  1.0000
  H   H1        1.0  0.8592824913673454  0.5595624976033379  0.7822866017721779  1.0000
  H   H2        1.0  0.1502164077332893  0.39715397485965537  0.21767569980553955  1.0000
  H   H3        1.0  0.006724459121763003  0.22411158494644914  0.15711979178293228  1.0000
  H   H4        1.0  0.7678964843329439  0.26272884916271977  0.0898882224944444  1.0000
  H   H5        1.0  0.3698527681676893  0.10092859760224118  0.33636506409123257  1.0000
  H   H6        1.0  0.36385149328157246  0.8775750238009792  0.3521207430103246  1.0000
  H   H7        1.0  0.587257124786845  0.8906370595265757  0.7900842007140767  1.0000
  H   H8        1.0  0.7433819924302157  0.8823586343532737  0.7048344769941365  1.0000
  H   H9        1.0  0.5842434622586481  0.11689626164150008  0.776185534840593  1.0000
  H   H10       1.0  0.7427638255760982  0.1101874437535741  0.69664799846025  1.0000
  H   H11       1.0  0.11737303039111421  0.6804622200316714  0.5121939540024343  1.0000
  H   H12       1.0  0.9874606919446978  0.7460160069624493  0.8256174623750778  1.0000
  H   H13       1.0  0.8586228501378772  0.6799267909799623  0.5125913916222585  1.0000
  H   H14       1.0  0.8735614418288408  0.21237030901637163  0.5597993745852676  1.0000
  H   H15       1.0  0.8776380373861914  0.22597037031147238  0.3974076078494875  1.0000
  H   H16       1.0  0.13129072540314723  0.21175610064635458  0.5641688494897251  1.0000
  H   H17       1.0  0.1377332704343743  0.2226017465572312  0.4026967658512248  1.0000
  H   H18       1.0  0.22836721830899626  0.7299232180099722  0.8949950677438351  1.0000
  H   H19       1.0  0.2164174196962989  0.34176883283481624  0.87915428725033  1.0000
  H   H20       1.0  0.29826774240902415  0.5512965969255319  0.12291082683739059  1.0000
  H   H21       1.0  0.7111466501261888  0.4413260571749618  0.8830624343476146  1.0000
  H   H22       1.0  0.810325949839168  0.6443452336310714  0.14689836685048618  1.0000
  H   H23       1.0  0.05074762953018561  0.6067522352884822  0.2107522866227782  1.0000
  C   C1        1.0  0.4957258722592357  0.2579041268414173  0.4886206593912945  1.0000
  C   C2        1.0  0.9652181262634016  0.5536619432924753  0.8123077113725828  1.0000
  C   C3        1.0  0.38973173658258997  0.5307345195384272  0.0684536930698272  1.0000
  C   C4        1.0  0.5129159119996203  0.509771433005767  0.1300670945689433  1.0000
  C   C5        1.0  0.6332042569223051  0.47911464032164736  0.06331948229033199  1.0000
  C   C6        1.0  0.6214527468696076  0.4679486027597618  0.9372562897482055  1.0000
  C   C7        1.0  0.4985705250331236  0.4891602849198903  0.8754710501152657  1.0000
  C   C8        1.0  0.37910580718680364  0.5209708842120334  0.9425976452978302  1.0000
  C   C9        1.0  0.8533554051779362  0.5521843060816495  0.1495871985526733  1.0000
  C   C10       1.0  0.9881655553970109  0.5308103087546884  0.18612346750106917  1.0000
  C   C11       1.0  0.04423502257630929  0.412813132056101  0.18991425806366638  1.0000
  C   C12       1.0  0.5020610897443946  0.48123628300444915  0.7390904263817504  1.0000
  C   C13       1.0  0.9639824107343741  0.31656253122935846  0.1560107007641776  1.0000
  C   C14       1.0  0.8292751718003757  0.33802621923774717  0.11824905742827947  1.0000
  C   C15       1.0  0.7722290407791944  0.45598556684919334  0.11507922435683328  1.0000
  C   C16       1.0  0.5629972152318246  0.05790831202947539  0.5856117479780778  1.0000
  C   C17       1.0  0.4965182538237585  0.1228304899867254  0.49381042255483715  1.0000
  C   C18       1.0  0.42414724466608794  0.054155161782290406  0.4098741820526967  1.0000
  C   C19       1.0  0.4207804881163568  0.9281609408724445  0.4185078184157264  1.0000
  C   C20       1.0  0.4903732864570287  0.8629729216752294  0.5107628321748336  1.0000
  C   C21       1.0  0.56095555335326  0.9318147621118841  0.5934214845913601  1.0000
  C   C22       1.0  0.6415876528362078  0.927319315299961  0.7107328917961907  1.0000
  C   C23       1.0  0.4876819896835941  0.7283593408709379  0.5158278413311024  1.0000
  C   C24       1.0  0.6417490505790653  0.0701946235380007  0.7027333856312125  1.0000
  C   C25       1.0  0.07096257673519091  0.3925373504239927  0.4935426391344322  1.0000
  C   C26       1.0  0.0626781396415552  0.5962853340204218  0.5066698817298771  1.0000
  C   C27       1.0  0.920012913317834  0.5960350496336843  0.5064608370295288  1.0000
  C   C28       1.0  0.927986869682549  0.3925331582889059  0.4926134793023351  1.0000
  C   C29       1.0  0.9224900493622529  0.2568925736655174  0.48219456687516526  1.0000
  C   C30       1.0  0.08485916905649302  0.25624924762286133  0.4847584008368955  1.0000
  C   C31       1.0  0.5049134691075353  0.510607814385878  0.2664508522848976  1.0000
  C   C32       1.0  0.037610207784347  0.657127322985289  0.8366714695254983  1.0000
  C   C33       1.0  0.1729765612099214  0.6481029304482462  0.8762274852639391  1.0000
  C   C34       1.0  0.239240423855975  0.5347956620390092  0.890987618088424  1.0000
  C   C35       1.0  0.1670675550284599  0.43069495011759773  0.8672289384093332  1.0000
  C   C36       1.0  0.03096209383558352  0.4396943095290168  0.8282946649454317  1.0000
  C   C37       1.0  0.9625182362406407  0.33009635841327867  0.8064802659839572  1.0000
  N   N1        1.0  0.141782877521976  0.4928988671288438  0.5007888758744343  1.0000
  N   N2        1.0  0.8493924092760707  0.49233465453568204  0.5001309838134134  1.0000
  N   N3        1.0  0.9125870794785058  0.2372806140361021  0.7886870352134209  1.0000
  O   O1        1.0  0.6107315724144158  0.30801442389913797  0.4796298924533176  1.0000
  O   O2        1.0  0.3788391563756903  0.3115310569648243  0.49621442503069346  1.0000
  O   O3        1.0  0.6189512410051492  0.46063206437354853  0.6895312292366141  1.0000
  O   O4        1.0  0.3898084148509824  0.4978462649335924  0.6831265503901705  1.0000
  O   O5        1.0  0.5994223799958789  0.6722047310510817  0.5423611261601735  1.0000
  O   O6        1.0  0.3743304695980997  0.6800253274679448  0.4918924345994427  1.0000
  O   O7        1.0  0.6143142637989812  0.5260944170672062  0.3248747286114337  1.0000
  O   O8        1.0  0.3870270807866305  0.4935977733805146  0.3130468515957716  1.0000
