data_image0
_chemical_formula_structural       Zn4H36C44N20Cl8
_chemical_formula_sum              "Zn4 H36 C44 N20 Cl8"
_cell_length_a       9.056762434201545
_cell_length_b       9.94095761400447
_cell_length_c       15.182935619005814
_cell_angle_alpha    89.9999086156774
_cell_angle_beta     99.17670657349993
_cell_angle_gamma    90.0000726040576

_space_group_name_H-M_alt    "P 1"
_space_group_IT_number       1

loop_
  _space_group_symop_operation_xyz
  'x, y, z'

loop_
  _atom_site_type_symbol
  _atom_site_label
  _atom_site_symmetry_multiplicity
  _atom_site_fract_x
  _atom_site_fract_y
  _atom_site_fract_z
  _atom_site_occupancy
  Zn  Zn1       1.0  0.12124358956032208  0.5272468526084424  0.17202699700548857  1.0000
  Zn  Zn2       1.0  0.3787569830887065  0.027246691427606603  0.32797335351167317  1.0000
  Zn  Zn3       1.0  0.8787574916297914  0.4727527473300058  0.8279730962281845  1.0000
  Zn  Zn4       1.0  0.621242979640833  0.9727529085103227  0.6720266344853412  1.0000
  H   H1        1.0  0.06945424034690009  0.3914347333913853  0.3557280153786663  1.0000
  H   H2        1.0  0.4305456310504709  0.8914353193419869  0.1442725477468869  1.0000
  H   H3        1.0  0.9305468428201991  0.6085658724855635  0.6442727366756811  1.0000
  H   H4        1.0  0.5694543336566298  0.10856629247375339  0.8557280990703329  1.0000
  H   H5        1.0  0.3910732305426805  0.6807531794830483  0.3091732339642163  1.0000
  H   H6        1.0  0.1089263966904142  0.18075203470714027  0.19082620877325945  1.0000
  H   H7        1.0  0.6089267341638519  0.3192474263933889  0.6908274128534727  1.0000
  H   H8        1.0  0.8910735640632838  0.8192485711709026  0.8091731204021355  1.0000
  H   H9        1.0  0.4176558554546688  0.6396744373105463  0.4899017709965248  1.0000
  H   H10       1.0  0.08234372494293753  0.13967470784554337  0.010097710200810198  1.0000
  H   H11       1.0  0.5823452316658334  0.3603271745041071  0.5101002986996476  1.0000
  H   H12       1.0  0.917657352294917  0.8603258980338139  0.9899010653900927  1.0000
  H   H13       1.0  0.914590636446455  0.1575488610656706  0.7188104160288159  1.0000
  H   H14       1.0  0.5854083550044679  0.6575487150563506  0.7811888457408854  1.0000
  H   H15       1.0  0.0854070873855264  0.8424507388720314  0.2811887026737381  1.0000
  H   H16       1.0  0.4145904853116705  0.3424508848826663  0.2188097193771766  1.0000
  H   H17       1.0  0.9306710592372696  0.17429105658928992  0.4408822984411741  1.0000
  H   H18       1.0  0.569330243741682  0.6742904268114955  0.059117289413492806  1.0000
  H   H19       1.0  0.06933001997700221  0.8257095492892644  0.5591171359708794  1.0000
  H   H20       1.0  0.43067083349559704  0.3257091731285584  0.9408814861778791  1.0000
  H   H21       1.0  0.7052157826641547  0.9978101432553288  0.4715374784437001  1.0000
  H   H22       1.0  0.7947847707180317  0.4978106144043154  0.028461701274743196  1.0000
  H   H23       1.0  0.29478529259613134  0.0021884507462175003  0.5284606383269972  1.0000
  H   H24       1.0  0.20521518805924902  0.5021899914745234  0.9715369690795013  1.0000
  H   H25       1.0  0.11268349852961279  0.28378570411030785  0.7428557873623589  1.0000
  H   H26       1.0  0.3873173130727494  0.7837859652981792  0.7571448505012979  1.0000
  H   H27       1.0  0.8873153477157699  0.7162138958263071  0.25714475421914057  1.0000
  H   H28       1.0  0.6126837700949183  0.21621564651807998  0.24285590155257342  1.0000
  H   H29       1.0  0.2994488991567508  0.46838471465783743  0.7538112570509481  1.0000
  H   H30       1.0  0.20055100445714658  0.9683847868417317  0.7461891027428675  1.0000
  H   H31       1.0  0.7005499490650492  0.5316148852779748  0.24618994335170888  1.0000
  H   H32       1.0  0.7994489602493787  0.031615819034705304  0.25381154407482137  1.0000
  H   H33       1.0  0.3625843604069487  0.5743113350123324  0.6149414905849323  1.0000
  H   H34       1.0  0.13741621236085422  0.0743107561242837  0.8850593434022894  1.0000
  H   H35       1.0  0.6374156062754182  0.42568826492399836  0.3850598150543759  1.0000
  H   H36       1.0  0.8625848708062448  0.9256898497526649  0.11494140865205785  1.0000
  C   C1        1.0  0.16021728652108183  0.4632779524333089  0.36610815655514967  1.0000
  C   C2        1.0  0.3397837852495158  0.9632784588451317  0.13389244454292273  1.0000
  C   C3        1.0  0.8397826801612922  0.5367216475030219  0.6338931490841586  1.0000
  C   C4        1.0  0.6602184163781571  0.0367221470323429  0.8661084127480831  1.0000
  C   C5        1.0  0.32799024479885464  0.6130111345485361  0.3451381461816324  1.0000
  C   C6        1.0  0.17200930717405066  0.11301015019481041  0.15486201880131026  1.0000
  C   C7        1.0  0.6720074889157814  0.38698947132446193  0.654864266626191  1.0000
  C   C8        1.0  0.8279906555549132  0.8869884438038158  0.8451379691961732  1.0000
  C   C9        1.0  0.3433512104216092  0.5931266313857506  0.4353049320681776  1.0000
  C   C10       1.0  0.15664831887990968  0.09312584884688849  0.06469525153179487  1.0000
  C   C11       1.0  0.6566465134109407  0.4068739744912477  0.5646941866339004  1.0000
  C   C12       1.0  0.8433527642871894  0.9068747570300605  0.9353055005225526  1.0000
  C   C13       1.0  0.8902787448253876  0.1339184130396305  0.6479747916913252  1.0000
  C   C14       1.0  0.6097191012229928  0.6339191285617787  0.8520243869656381  1.0000
  C   C15       1.0  0.10972009548960669  0.8660791750207719  0.35202377342768176  1.0000
  C   C16       1.0  0.3902786226084131  0.36607946543661285  0.14797473173738496  1.0000
  C   C17       1.0  0.8925836542566473  0.1429388502973765  0.5016301800480034  1.0000
  C   C18       1.0  0.6074130875690926  0.6429402127492593  0.9983702025687858  1.0000
  C   C19       1.0  0.1074151900117499  0.8570597437007311  0.4983697027128214  1.0000
  C   C20       1.0  0.3925824013193094  0.3570613990652092  0.0016293644806638138  1.0000
  C   C21       1.0  0.7828789393488904  0.05647828325729171  0.5183634558482878  1.0000
  C   C22       1.0  0.7171221737847377  0.5564747834503195  0.9816361110249684  1.0000
  C   C23       1.0  0.21712213789010798  0.94352433450068  0.48163531974167717  1.0000
  C   C24       1.0  0.28287890147383626  0.44352079273330963  0.018362005747143004  1.0000
  C   C25       1.0  0.0742659339452771  0.29133845135265807  0.5973776181333006  1.0000
  C   C26       1.0  0.4257348842918276  0.7913384026706964  0.9026223538379977  1.0000
  C   C27       1.0  0.9257351472448292  0.7086611485857902  0.4026224751003652  1.0000
  C   C28       1.0  0.5742661968982857  0.20866119726775167  0.09737773939567518  1.0000
  C   C29       1.0  0.1419865705817287  0.3295339019052079  0.6827883321517019  1.0000
  C   C30       1.0  0.35801429120433426  0.8295339829913857  0.817211604058535  1.0000
  C   C31       1.0  0.8580122736866612  0.6704646920928994  0.317211550609123  1.0000
  C   C32       1.0  0.6419867899863547  0.17046662288636585  0.18278848917466203  1.0000
  C   C33       1.0  0.24676278859596573  0.4328831537633136  0.6885105093485746  1.0000
  C   C34       1.0  0.2532370725640405  0.9328831277850258  0.8114892248629457  1.0000
  C   C35       1.0  0.7532371741335738  0.567116446174623  0.31148947864843984  1.0000
  C   C36       1.0  0.7467640086266415  0.0671174780927259  0.18851086837025827  1.0000
  C   C37       1.0  0.2818045049289282  0.4925787240906061  0.6114033677735617  1.0000
  C   C38       1.0  0.21819877769983984  0.9925804817724855  0.8885959674351722  1.0000
  C   C39       1.0  0.718198809228923  0.5074198699111747  0.3885956182915961  1.0000
  C   C40       1.0  0.7818023034908493  0.007420124105266304  0.11140412579802465  1.0000
  C   C41       1.0  0.20801888945827332  0.4434567523689737  0.530041010346565  1.0000
  C   C42       1.0  0.2919821022176947  0.9434563852638578  0.969958819202098  1.0000
  C   C43       1.0  0.7919810752476835  0.5565428475681529  0.4699596364715928  1.0000
  C   C44       1.0  0.7080200954565753  0.05654321467590511  0.03004072044708287  1.0000
  N   N1        1.0  0.2358837967798024  0.49795363034393597  0.4479043638126114  1.0000
  N   N2        1.0  0.2641161940896453  0.9979542485468897  0.05209544076203798  1.0000
  N   N3        1.0  0.7641161699031402  0.502046975531698  0.552096941826221  1.0000
  N   N4        1.0  0.7358860055621789  0.0020473632706909995  0.9479047577073485  1.0000
  N   N5        1.0  0.21307526931754953  0.5321939555849866  0.30307813712429515  1.0000
  N   N6        1.0  0.2869241885350958  0.0321940074620031  0.1969214447031716  1.0000
  N   N7        1.0  0.7869258138489812  0.46780564435265864  0.6969226149305212  1.0000
  N   N8        1.0  0.7130757741950119  0.9678065984152298  0.8030785432933738  1.0000
  N   N9        1.0  0.7828451885041688  0.05186091072964421  0.6096128702552119  1.0000
  N   N10       1.0  0.7171548009056251  0.5518596450299285  0.8903865957034182  1.0000
  N   N11       1.0  0.21715588873368571  0.9481396951497134  0.390385905335691  1.0000
  N   N12       1.0  0.28284292094993907  0.4481399549085695  0.10961186417799237  1.0000
  N   N13       1.0  0.9604588581825338  0.1913556537499801  0.5841449231831388  1.0000
  N   N14       1.0  0.53954017576784  0.691358144680244  0.9158556245755561  1.0000
  N   N15       1.0  0.03954110454642999  0.808642940248646  0.4158550648143444  1.0000
  N   N16       1.0  0.4604586665258594  0.30864346713658364  0.08414359936271147  1.0000
  N   N17       1.0  0.106056091989231  0.34572064566308564  0.5225101631620814  1.0000
  N   N18       1.0  0.39394478825209944  0.8457203779688671  0.9774897578932664  1.0000
  N   N19       1.0  0.8939449892008825  0.6542789542753625  0.47748993007159146  1.0000
  N   N20       1.0  0.6060562909615967  0.15427922197038413  0.022509676519256096  1.0000
  Cl  Cl1       1.0  0.06138233591858009  0.738691292306541  0.12605836776020135  1.0000
  Cl  Cl2       1.0  0.4386173573742838  0.2386920942619994  0.3739410207310313  1.0000
  Cl  Cl3       1.0  0.9386176228581319  0.26130830763299434  0.8739403025945192  1.0000
  Cl  Cl4       1.0  0.561384842276972  0.7613085116162709  0.6260591777388239  1.0000
  Cl  Cl5       1.0  0.9276568872968696  0.3838215063567887  0.1651422007353033  1.0000
  Cl  Cl6       1.0  0.5723424235883953  0.8838212145753486  0.3348589569336581  1.0000
  Cl  Cl7       1.0  0.0723430754332384  0.6161790995204443  0.834857787261235  1.0000
  Cl  Cl8       1.0  0.4276575391417197  0.11617939130188398  0.6651410310628805  1.0000
