data_image0
_chemical_formula_structural       Zn4H32C24O32
_chemical_formula_sum              "Zn4 H32 C24 O32"
_cell_length_a       8.284382111441667
_cell_length_b       7.259516397066001
_cell_length_c       14.930280287511614
_cell_angle_alpha    89.99510390056402
_cell_angle_beta     90.00048242072195
_cell_angle_gamma    89.99892384939609

_space_group_name_H-M_alt    "P 1"
_space_group_IT_number       1

loop_
  _space_group_symop_operation_xyz
  'x, y, z'

loop_
  _atom_site_type_symbol
  _atom_site_label
  _atom_site_symmetry_multiplicity
  _atom_site_fract_x
  _atom_site_fract_y
  _atom_site_fract_z
  _atom_site_occupancy
  Zn  Zn1       1.0  0.33898371210791106  0.750023997025259  0.19323196776418425  1.0000
  Zn  Zn2       1.0  0.16101928838589427  0.25002205527538723  0.6932252669498807  1.0000
  Zn  Zn3       1.0  0.838982008894213  0.749975698264805  0.30677490864960066  1.0000
  Zn  Zn4       1.0  0.661011549683529  0.24997926647177585  0.8067695472649064  1.0000
  H   H1        1.0  0.2807694144617158  0.749995401998781  0.5287191676792843  1.0000
  H   H2        1.0  0.21923357235494484  0.2499939006772465  0.028708745944527395  1.0000
  H   H3        1.0  0.7807737604839672  0.7499928326055211  0.9712934392397937  1.0000
  H   H4        1.0  0.7192294687774063  0.2499913309660826  0.4712877059432968  1.0000
  H   H5        1.0  0.4768708127218061  0.7499778505859777  0.6745213222304328  1.0000
  H   H6        1.0  0.023131912163719896  0.24999294373170497  0.1745079495650828  1.0000
  H   H7        1.0  0.9768633495348736  0.7500185850703714  0.8254902163918201  1.0000
  H   H8        1.0  0.5231389342919428  0.2500102601148555  0.32548153271060437  1.0000
  H   H9        1.0  0.28264469897386135  0.10403660334556257  0.22557497306387825  1.0000
  H   H10       1.0  0.2173346370628835  0.8960244772365725  0.7255789704006188  1.0000
  H   H11       1.0  0.7826437329018957  0.3959720664167249  0.2744197733600443  1.0000
  H   H12       1.0  0.7173360702291446  0.6039775131293863  0.7744259641727425  1.0000
  H   H13       1.0  0.7173590124569172  0.8959666600027204  0.7744272117652855  1.0000
  H   H14       1.0  0.7826654531300717  0.10397465364377469  0.27442321450647  1.0000
  H   H15       1.0  0.2173539430752029  0.6040270648977781  0.7255777230827076  1.0000
  H   H16       1.0  0.2826591915687118  0.39602437292374754  0.22557488110543025  1.0000
  H   H17       1.0  0.41507892213174097  0.09567240818594769  0.1460551907488039  1.0000
  H   H18       1.0  0.08490889699696422  0.9043639541286196  0.646048155648465  1.0000
  H   H19       1.0  0.9150717494864082  0.4043292945006555  0.3539448799193891  1.0000
  H   H20       1.0  0.5849056060156952  0.5956450031317785  0.8539527942546952  1.0000
  H   H21       1.0  0.5849247892876831  0.9043322326645648  0.8539469940514903  1.0000
  H   H22       1.0  0.9150875718481117  0.0956461966333251  0.3539560383583335  1.0000
  H   H23       1.0  0.0849259263885003  0.5956822343339213  0.6460526162635104  1.0000
  H   H24       1.0  0.41508965573179774  0.40436239298860943  0.14604738112819146  1.0000
  H   H25       1.0  0.49732625568295663  0.7500212018854953  0.03188708465783209  1.0000
  H   H26       1.0  0.0026755704081012  0.2500198937185658  0.5318809633782846  1.0000
  H   H27       1.0  0.9973269339981669  0.7499723499164543  0.46811787277999867  1.0000
  H   H28       1.0  0.5026714202926712  0.2499793068145664  0.968111751315625  1.0000
  H   H29       1.0  0.6348977643453608  0.7500181958320127  0.11276801308677878  1.0000
  H   H30       1.0  0.8651037937346473  0.25001601907406007  0.6127609522811779  1.0000
  H   H31       1.0  0.13490233193068243  0.7499789794100025  0.38723922338763817  1.0000
  H   H32       1.0  0.36509749744754316  0.24998369027944986  0.8872321624116065  1.0000
  C   C1        1.0  0.47496369370189473  0.7500274015389365  0.35886883631915356  1.0000
  C   C2        1.0  0.0250369233159731  0.2500173500233131  0.8588601434360823  1.0000
  C   C3        1.0  0.9749679952019576  0.7499845359848222  0.14114003208547385  1.0000
  C   C4        1.0  0.5250327751865883  0.24997448450127988  0.6411320089619179  1.0000
  C   C5        1.0  0.510689456285263  0.7500214156577271  0.4548443475396836  1.0000
  C   C6        1.0  0.9893207721690088  0.25002622343013303  0.9548345338815946  1.0000
  C   C7        1.0  0.0106841462872111  0.7499825501474857  0.045164971715813386  1.0000
  C   C8        1.0  0.489314255231406  0.24997082773104745  0.5451571677406618  1.0000
  C   C9        1.0  0.4113983488613755  0.7500036355186454  0.5288480787213743  1.0000
  C   C10       1.0  0.08861308930837448  0.25001043941600887  0.028840378742160094  1.0000
  C   C11       1.0  0.9113918291917853  0.749994201538257  0.9711604665014445  1.0000
  C   C12       1.0  0.588600534338198  0.24998309791286735  0.47115343666287385  1.0000
  C   C13       1.0  0.5134391084316121  0.74998904368109  0.604773891230259  1.0000
  C   C14       1.0  0.986567160427292  0.2499900864890066  0.10476140367666177  1.0000
  C   C15       1.0  0.0134329297863687  0.7500035346740785  0.8952374324469543  1.0000
  C   C16       1.0  0.48655856764327876  0.2500018222700361  0.395227624064482  1.0000
  C   C17       1.0  0.6697208973336756  0.7500080458276768  0.5730039312892001  1.0000
  C   C18       1.0  0.8302849021781499  0.250016566028215  0.07298734456123407  1.0000
  C   C19       1.0  0.1697151877985377  0.7500046052961407  0.9270101514253566  1.0000
  C   C20       1.0  0.3302779857977712  0.24998695261722045  0.4269975839218104  1.0000
  C   C21       1.0  0.8236699742551892  0.7500090427728026  0.6217260920582957  1.0000
  C   C22       1.0  0.6763341302888789  0.2500181017788705  0.12171881309075157  1.0000
  C   C23       1.0  0.32366475262629985  0.7499989371100355  0.8782780131997681  1.0000
  C   C24       1.0  0.17633132300514381  0.24998871100071796  0.3782714044220227  1.0000
  O   O1        1.0  0.3259554230295905  0.750026931710039  0.3351207664596884  1.0000
  O   O2        1.0  0.1740436362691682  0.25002746653814967  0.8351101094381403  1.0000
  O   O3        1.0  0.8259600751171162  0.7499757973351178  0.16488604737289583  1.0000
  O   O4        1.0  0.6740386316628033  0.24997495453101243  0.6648780694762093  1.0000
  O   O5        1.0  0.5864549828572835  0.7500202581856357  0.3006578726285553  1.0000
  O   O6        1.0  0.9135469344046213  0.25000740276674793  0.8006443467642298  1.0000
  O   O7        1.0  0.08645074155031549  0.7499986156505827  0.19935783799270004  1.0000
  O   O8        1.0  0.4135463143680624  0.2499871375785077  0.6993456516677765  1.0000
  O   O9        1.0  0.9582240548176203  0.7500732622733678  0.579567124688772  1.0000
  O   O10       1.0  0.5417818406121383  0.2500741809532911  0.07955786050712987  1.0000
  O   O11       1.0  0.4582182494064924  0.7499401030349088  0.9204376262844459  1.0000
  O   O12       1.0  0.041782070782510096  0.24992724645294115  0.4204303717453826  1.0000
  O   O13       1.0  0.8158619348670014  0.7499576183339938  0.7070151631911512  1.0000
  O   O14       1.0  0.6841555002856906  0.24997202028135485  0.20700591228108314  1.0000
  O   O15       1.0  0.31584700393049303  0.7500408861204446  0.7929902443249544  1.0000
  O   O16       1.0  0.1841309127604092  0.25003875814437027  0.292980993738169  1.0000
  O   O17       1.0  0.6696224434750846  0.7500298384474533  0.48095609393275385  1.0000
  O   O18       1.0  0.8303821348299107  0.25002565067115506  0.9809388198090045  1.0000
  O   O19       1.0  0.16961795516948538  0.7499927656487413  0.01905867623532489  1.0000
  O   O20       1.0  0.3303848892828825  0.24996791473649432  0.5190474305801799  1.0000
  O   O21       1.0  0.32717574513640807  0.027532579831010696  0.17615296289371674  1.0000
  O   O22       1.0  0.1727859621091099  0.9725274672695574  0.6761521998899267  1.0000
  O   O23       1.0  0.8271633837166874  0.47246687150516203  0.3238480254532376  1.0000
  O   O24       1.0  0.6727797292394229  0.5274713444670238  0.8238478324494591  1.0000
  O   O25       1.0  0.6728255521081721  0.9724706836014431  0.8238485521498616  1.0000
  O   O26       1.0  0.8272165422325132  0.0274744187060776  0.32384864540562563  1.0000
  O   O27       1.0  0.1728234284581305  0.527533637136159  0.6761528198335256  1.0000
  O   O28       1.0  0.3272131183658189  0.47253191911417486  0.17615301279404597  1.0000
  O   O29       1.0  0.5185485997381746  0.750147494406761  0.0975724370355877  1.0000
  O   O30       1.0  0.9814539389738925  0.2501497151589973  0.5975659345900936  1.0000
  O   O31       1.0  0.01854856578435  0.7497998259068764  0.4024329024632322  1.0000
  O   O32       1.0  0.48144786939020884  0.24982408670105366  0.9024270693210849  1.0000
