data_image0
_chemical_formula_structural       Co2H36C44N8O8
_chemical_formula_sum              "Co2 H36 C44 N8 O8"
_cell_length_a       10.338783353473591
_cell_length_b       10.439369813729435
_cell_length_c       10.734917730050185
_cell_angle_alpha    84.03937466310681
_cell_angle_beta     61.212622892300274
_cell_angle_gamma    77.54451937796966

_space_group_name_H-M_alt    "P 1"
_space_group_IT_number       1

loop_
  _space_group_symop_operation_xyz
  'x, y, z'

loop_
  _atom_site_type_symbol
  _atom_site_label
  _atom_site_symmetry_multiplicity
  _atom_site_fract_x
  _atom_site_fract_y
  _atom_site_fract_z
  _atom_site_occupancy
  Co  Co1       1.0  0.3980595949294569  0.0872918345922145  0.39872424653638205  1.0000
  Co  Co2       1.0  0.7967989357158844  0.587274476411686  0.6012885423175973  1.0000
  H   H1        1.0  0.08954692439998271  0.22364987659998556  0.371660148589271  1.0000
  H   H2        1.0  0.46122763080486356  0.7236390157828936  0.6283476269775292  1.0000
  H   H3        1.0  0.21377098445352533  0.8700993851977901  0.5502903583417333  1.0000
  H   H4        1.0  0.7640863430727124  0.37008461537271137  0.4497202029220801  1.0000
  H   H5        1.0  0.9594321440472345  0.8559305230156298  0.5230739428411866  1.0000
  H   H6        1.0  0.48252706039397025  0.3559058835469031  0.4769506152834282  1.0000
  H   H7        1.0  0.7883758019065044  0.17402490345479293  0.46689696813172077  1.0000
  H   H8        1.0  0.2553113297790619  0.6740134888652776  0.533089956241227  1.0000
  H   H9        1.0  0.7994398489898558  0.006056886093524799  0.4500341611582924  1.0000
  H   H10       1.0  0.24951061912344136  0.5060447825896047  0.5499472350449324  1.0000
  H   H11       1.0  0.7284886397994301  0.26267603067811507  0.2803643076951587  1.0000
  H   H12       1.0  0.008852672763545465  0.7626611404800984  0.7196215283552191  1.0000
  H   H13       1.0  0.8087512690021301  0.29699467155401743  0.025416928069937245  1.0000
  H   H14       1.0  0.834149596033342  0.7969785985283482  0.974567852888157  1.0000
  H   H15       1.0  0.1876800560684373  0.9801055205993165  0.9247613868528504  1.0000
  H   H16       1.0  0.11244381573757066  0.4801242634204216  0.07522972262417224  1.0000
  H   H17       1.0  0.11340211876550647  0.9521825149971551  0.18092499544203378  1.0000
  H   H18       1.0  0.29433950125128683  0.45219777758021  0.8190676674397395  1.0000
  H   H19       1.0  0.1573556222805552  0.20637916835578093  0.7493419821320371  1.0000
  H   H20       1.0  0.906703644063228  0.7063837717043739  0.2506425033474214  1.0000
  H   H21       1.0  0.09291436651081147  0.0653546311229292  0.7457864652185577  1.0000
  H   H22       1.0  0.8386819379995178  0.5653708460922218  0.2542025617592144  1.0000
  H   H23       1.0  0.04306587202211196  0.4160471057068945  0.6853771750907355  1.0000
  H   H24       1.0  0.728445307460838  0.9160795300916008  0.3146042374453158  1.0000
  H   H25       1.0  0.783938677707454  0.11759976752303912  0.8276207260434987  1.0000
  H   H26       1.0  0.6115523861878744  0.6176187949859298  0.17238316478541538  1.0000
  H   H27       1.0  0.6343340236697945  0.33450173240117914  0.7452962678909072  1.0000
  H   H28       1.0  0.3796066781933548  0.8345194565974127  0.2547304334980893  1.0000
  H   H29       1.0  0.13440489493810756  0.7421915628033633  0.21137485258318375  1.0000
  H   H30       1.0  0.3457725254503788  0.24218240310963066  0.7886253605794733  1.0000
  H   H31       1.0  0.3719272267124367  0.7648486457714726  0.9897521442788458  1.0000
  H   H32       1.0  0.3616532193905898  0.2648530080883944  0.010253922083421694  1.0000
  H   H33       1.0  0.5920848801776161  0.5834326276344582  0.9135753122293478  1.0000
  H   H34       1.0  0.5056446710787271  0.0834405947047046  0.08641931425972865  1.0000
  H   H35       1.0  0.5775828644048603  0.3791194795170513  0.061694102473353475  1.0000
  H   H36       1.0  0.6392662914901099  0.8791195706171849  0.9383083476209604  1.0000
  C   C1        1.0  0.09253348441770026  0.12443928960411914  0.41449483729653025  1.0000
  C   C2        1.0  0.5070493288361818  0.6244275351639956  0.5855111890284803  1.0000
  C   C3        1.0  0.1501938361539958  0.9390681950802529  0.5081408804176845  1.0000
  C   C4        1.0  0.6583667923536753  0.439052420737596  0.49187061515820557  1.0000
  C   C5        1.0  0.02387738853263958  0.9327903985563283  0.4988655000673815  1.0000
  C   C6        1.0  0.522769803013418  0.43277082554100593  0.5011465936090929  1.0000
  C   C7        1.0  0.8639979193500267  0.085762199024991  0.40684671052671456  1.0000
  C   C8        1.0  0.27087268203496984  0.5857558631361642  0.5931438873053166  1.0000
  C   C9        1.0  0.9150860964627013  0.10521612387957188  0.2495955044087522  1.0000
  C   C10       1.0  0.16468483549245164  0.6052156826358798  0.7503902825245489  1.0000
  C   C11       1.0  0.8305691011921968  0.2012903709924103  0.20329632416045473  1.0000
  C   C12       1.0  0.03386439409332109  0.7012760983515777  0.796691414613548  1.0000
  C   C13       1.0  0.8753575399247213  0.21988780568667474  0.05865541013085361  1.0000
  C   C14       1.0  0.9339995533257128  0.7198750238445086  0.9413269179399036  1.0000
  C   C15       1.0  0.003852536884132085  0.1410730037627417  0.9569647607661196  1.0000
  C   C16       1.0  0.9608140726298944  0.6410692729795856  0.04302240644195606  1.0000
  C   C17       1.0  0.08738703147473362  0.0428153218401022  0.003033040645391293  1.0000
  C   C18       1.0  0.09041891383305511  0.5428225534245997  0.9969541897508235  1.0000
  C   C19       1.0  0.044319602412620916  0.026350969958208695  0.14738357892822757  1.0000
  C   C20       1.0  0.1917081100336164  0.5263543431330929  0.8526119560961118  1.0000
  C   C21       1.0  0.05767486471484763  0.16034561487698804  0.7990680078247223  1.0000
  C   C22       1.0  0.8567363471268765  0.660358866686593  0.2009149955512227  1.0000
  C   C23       1.0  0.9496536250500257  0.3677757146980126  0.7147149312092366  1.0000
  C   C24       1.0  0.6643606344042684  0.8678029494440765  0.28528454885981336  1.0000
  C   C25       1.0  0.8142141956459955  0.21169526095317073  0.785635071037113  1.0000
  C   C26       1.0  0.5998362471994413  0.7117160855955262  0.21437099993861625  1.0000
  C   C27       1.0  0.7411864336779673  0.3201522387546447  0.7452289766137453  1.0000
  C   C28       1.0  0.48641135931264085  0.8201661614954786  0.25478110852792196  1.0000
  C   C29       1.0  0.3505132004659686  0.4481721726596817  0.21986184967764194  1.0000
  C   C30       1.0  0.5703718688682287  0.9481670758256018  0.7801359670204563  1.0000
  C   C31       1.0  0.22329817381845637  0.5493837713497314  0.2601847992658719  1.0000
  C   C32       1.0  0.4834868424597476  0.0493697335794323  0.7398050141388453  1.0000
  C   C33       1.0  0.2331952000771055  0.6637841778975543  0.17813356043476597  1.0000
  C   C34       1.0  0.41132608133666815  0.16378267542384614  0.8218716986274399  1.0000
  C   C35       1.0  0.3653209764536528  0.6759189435230583  0.05384701080104283  1.0000
  C   C36       1.0  0.4191603268149748  0.17591108043279752  0.946153346284042  1.0000
  C   C37       1.0  0.4894590041178476  0.5730449736981599  0.010404178871169642  1.0000
  C   C38       1.0  0.49984465142214446  0.07306152579075588  0.9896022398549391  1.0000
  C   C39       1.0  0.4817440235605589  0.4602805489063543  0.09352749298807328  1.0000
  C   C40       1.0  0.5752684394333161  0.9602750962293103  0.9064656696574359  1.0000
  C   C41       1.0  0.3492817820799064  0.33157574518001803  0.3132127964498465  1.0000
  C   C42       1.0  0.6624874539883053  0.8315568709451213  0.6867864020766061  1.0000
  C   C43       1.0  0.07078919543769767  0.5318183434845379  0.3757165918372109  1.0000
  C   C44       1.0  0.4464796394964384  0.031821359081682495  0.6242953879981953  1.0000
  N   N1        1.0  0.19295743541208313  0.05804327782198021  0.45409245984453855  1.0000
  N   N2        1.0  0.6470714341582708  0.5580257689466565  0.5459099197554236  1.0000
  N   N3        1.0  0.9889691171590941  0.0505946786877232  0.4398196919404286  1.0000
  N   N4        1.0  0.42881234446523575  0.5505877164590488  0.5601897775029556  1.0000
  N   N5        1.0  0.9460282228459964  0.2434530435330018  0.7654216055569235  1.0000
  N   N6        1.0  0.7114417937037774  0.7434742915364225  0.23457519999502804  1.0000
  N   N7        1.0  0.8271937298324872  0.41706141008237557  0.7004271154406183  1.0000
  N   N8        1.0  0.5276142387685708  0.9170850716063869  0.2995807740896197  1.0000
  O   O1        1.0  0.44401879273267775  0.22533865734245498  0.2521614584805362  1.0000
  O   O2        1.0  0.6961757469109247  0.7253211802912177  0.7478548167788256  1.0000
  O   O3        1.0  0.2623588066092142  0.3381588502224274  0.44511628187970587  1.0000
  O   O4        1.0  0.7074686421273031  0.8381235608028209  0.5548971245975521  1.0000
  O   O5        1.0  0.012950029274918572  0.44280610912296237  0.36392935418965777  1.0000
  O   O6        1.0  0.3768251055479796  0.9428281146516184  0.6361022800953362  1.0000
  O   O7        1.0  0.0006460661539691678  0.6192094643373737  0.4758626057033694  1.0000
  O   O8        1.0  0.47649194041390097  0.11920658128102699  0.5241499043560296  1.0000
