data_image0
_chemical_formula_structural       Zn4H28C52S4N4O24
_chemical_formula_sum              "Zn4 H28 C52 S4 N4 O24"
_cell_length_a       6.870719077577835
_cell_length_b       12.60868900478021
_cell_length_c       34.72913855587066
_cell_angle_alpha    89.87138681840192
_cell_angle_beta     94.42718758292216
_cell_angle_gamma    90.14512743860054

_space_group_name_H-M_alt    "P 1"
_space_group_IT_number       1

loop_
  _space_group_symop_operation_xyz
  'x, y, z'

loop_
  _atom_site_type_symbol
  _atom_site_label
  _atom_site_symmetry_multiplicity
  _atom_site_fract_x
  _atom_site_fract_y
  _atom_site_fract_z
  _atom_site_occupancy
  Zn  Zn1       1.0  0.6431292933861811  0.9807191544256356  0.502469593638537  1.0000
  Zn  Zn2       1.0  0.2572916435160622  0.0030947739977875994  0.49603298568264614  1.0000
  Zn  Zn3       1.0  0.26586053000994525  0.9786621049018793  0.9975109455340387  1.0000
  Zn  Zn4       1.0  0.6518000557432018  0.0023457544170924  0.0037805788789170985  1.0000
  H   H1        1.0  0.6804005737878639  0.9628585739120865  0.8848331971459017  1.0000
  H   H2        1.0  0.6919216342160579  0.9638184125122962  0.8138027608510612  1.0000
  H   H3        1.0  0.07453053090470257  0.0314995640722557  0.8022553437182862  1.0000
  H   H4        1.0  0.8339037995099403  0.0324442934703626  0.697689316415861  1.0000
  H   H5        1.0  0.21589676623781168  0.964838393018873  0.6860758230181075  1.0000
  H   H6        1.0  0.22772071189411489  0.9642536460620194  0.6150580879862204  1.0000
  H   H7        1.0  0.22935348141382403  0.0052047338517624995  0.7461067391514857  1.0000
  H   H8        1.0  0.6785721493845642  0.005810365046166099  0.7538360006590706  1.0000
  H   H9        1.0  0.6618395904986158  0.03796908192666851  0.1204551127078659  1.0000
  H   H10       1.0  0.6834702376823286  0.03985849898211309  0.1918840424234389  1.0000
  H   H11       1.0  0.068956304978613  0.9644497471009782  0.1884868003519102  1.0000
  H   H12       1.0  0.8410747207303328  0.963878481246617  0.31161350916269726  1.0000
  H   H13       1.0  0.2277459727190987  0.04060975926589801  0.3078333395285711  1.0000
  H   H14       1.0  0.24852387469135104  0.0389355527132409  0.3792554670761206  1.0000
  H   H15       1.0  0.23115964324371416  0.9962819596398022  0.24843880145358807  1.0000
  H   H16       1.0  0.6797267637090414  0.9956887185807658  0.2514834632352958  1.0000
  H   H17       1.0  0.020641944496134067  0.0362559807180105  0.9047767768487132  1.0000
  H   H18       1.0  0.9105770444591597  0.0604406579285381  0.8584952102077279  1.0000
  H   H19       1.0  0.8883116871723754  0.038365435011719705  0.5951985543390633  1.0000
  H   H20       1.0  0.9981476342653507  0.0621540572437311  0.641501441138949  1.0000
  H   H21       1.0  0.0025588501861761996  0.9501165429380904  0.0845250269919973  1.0000
  H   H22       1.0  0.8993299630147076  0.9285576103305219  0.12828545351136708  1.0000
  H   H23       1.0  0.9063770640722095  0.9502956132389143  0.4156255836147622  1.0000
  H   H24       1.0  0.009686181032947199  0.9281975405690802  0.3719607060853676  1.0000
  H   H25       1.0  0.6900381605050041  0.2262746310638164  0.520565038288609  1.0000
  H   H26       1.0  0.002448018357952703  0.7778496415174916  0.47644813455088547  1.0000
  H   H27       1.0  0.2192171329790966  0.22450077675357963  0.9792101011591612  1.0000
  H   H28       1.0  0.9068622987839133  0.7774291978323262  0.023510648080659297  1.0000
  C   C1        1.0  0.33787059479723774  0.7949296653366743  0.49849631974597486  1.0000
  C   C2        1.0  0.5226187440156379  0.9978315654490472  0.5732511525434489  1.0000
  C   C3        1.0  0.36030860897820105  0.20274518032790215  0.49803247429392866  1.0000
  C   C4        1.0  0.5443634144654865  0.9939917298553737  0.4283609912730881  1.0000
  C   C5        1.0  0.5712857342098232  0.793931931762927  0.0015237027579573  1.0000
  C   C6        1.0  0.38610376689876347  0.9963833387635079  0.9266767261095624  1.0000
  C   C7        1.0  0.5490444340613152  0.20172061401932947  0.0016713982531583998  1.0000
  C   C8        1.0  0.36526892559786006  0.9927771163499981  0.0715561136140934  1.0000
  C   C9        1.0  0.3759159984360991  0.9980377672819999  0.884430437050419  1.0000
  C   C10       1.0  0.5496032038092478  0.9803144459099754  0.8662062674334547  1.0000
  C   C11       1.0  0.5560003165063349  0.9817708873339726  0.8266327508089191  1.0000
  C   C12       1.0  0.38252144315416803  0.001456167462606599  0.8027680785297588  1.0000
  C   C13       1.0  0.20930069702731652  0.0175576351517392  0.8203641388413414  1.0000
  C   C14       1.0  0.19942337641695926  0.0165822648368703  0.8608880904510625  1.0000
  C   C15       1.0  0.37611773916916036  0.0030999157254214993  0.7607421117771123  1.0000
  C   C16       1.0  0.5318871140448278  0.0034554460199557996  0.7391634666955085  1.0000
  C   C17       1.0  0.6990783868006927  0.018652627555511  0.6795655324981665  1.0000
  C   C18       1.0  0.525633358648207  0.0023472736903968985  0.6971385582968492  1.0000
  C   C19       1.0  0.352043365190056  0.9828680131490729  0.6732540447612507  1.0000
  C   C20       1.0  0.3585930828282073  0.9816613934112509  0.6336878218410362  1.0000
  C   C21       1.0  0.5325695776373321  0.9994555523563804  0.6154888850111959  1.0000
  C   C22       1.0  0.7090924333754101  0.0179792944185451  0.639046164830404  1.0000
  C   C23       1.0  0.35853051415531206  0.9967305022500809  0.11349950397222128  1.0000
  C   C24       1.0  0.5342986195532049  0.0190062892837588  0.13597841965721358  1.0000
  C   C25       1.0  0.5460014201380403  0.019877940599194205  0.1757540701792379  1.0000
  C   C26       1.0  0.3760804040585126  0.998902158479133  0.1953774569719329  1.0000
  C   C27       1.0  0.20076076623791286  0.9793236310369124  0.1735801236574588  1.0000
  C   C28       1.0  0.18564874073618398  0.9772379818705519  0.13276485929571175  1.0000
  C   C29       1.0  0.37568801674723307  0.9986802918452682  0.23727566362876465  1.0000
  C   C30       1.0  0.5352470992554927  0.9985558662639846  0.2626398701376687  1.0000
  C   C31       1.0  0.7093901441794015  0.9791718983484332  0.3264423750678986  1.0000
  C   C32       1.0  0.5345725308347866  0.9990117960755498  0.30453800130047165  1.0000
  C   C33       1.0  0.3647893522480245  0.020468412674119897  0.32405352400721193  1.0000
  C   C34       1.0  0.37606278175881147  0.0198065042440021  0.3638284249270782  1.0000
  C   C35       1.0  0.5513733236034353  0.9974621583706311  0.3864188594593115  1.0000
  C   C36       1.0  0.7240840241675599  0.9774057656225923  0.36726255034671595  1.0000
  C   C37       1.0  0.5039460705516204  0.3903139706788822  0.5123353320068417  1.0000
  C   C38       1.0  0.17398578311418328  0.6087539185531127  0.48606597287820813  1.0000
  C   C39       1.0  0.35611619228090763  0.3189958094346182  0.4991800386192651  1.0000
  C   C40       1.0  0.3242201419651566  0.6791274880065501  0.4988087629576583  1.0000
  C   C41       1.0  0.2411697053697778  0.50294102788758  0.4911750828155376  1.0000
  C   C42       1.0  0.43381919141529574  0.4953345997035328  0.5076076987668117  1.0000
  C   C43       1.0  0.4051699353093028  0.38908011098555306  0.9874614447595392  1.0000
  C   C44       1.0  0.7352571636258529  0.6080487608930055  0.013763224270533699  1.0000
  C   C45       1.0  0.553114135678257  0.31799790363064045  0.0005541350089472999  1.0000
  C   C46       1.0  0.5849310816901578  0.678196349574705  0.001116001918937602  1.0000
  C   C47       1.0  0.6681009170043594  0.5021271930546335  0.008581948638457999  1.0000
  C   C48       1.0  0.4753125877959548  0.4942463977483058  0.9922096066158447  1.0000
  C   C49       1.0  0.7063891555590444  0.3762945862807356  0.5306109133701398  1.0000
  C   C50       1.0  0.9739203635491831  0.6267435195014529  0.46757759813223015  1.0000
  C   C51       1.0  0.2025231545622218  0.3746690736632062  0.9692772598134951  1.0000
  C   C52       1.0  0.9353435696087543  0.6262510778240582  0.03227050394788479  1.0000
  S   S1        1.0  0.14006175176071878  0.3805148735594129  0.4818519542640373  1.0000
  S   S2        1.0  0.5383283912921824  0.6165068471971011  0.5166248155643345  1.0000
  S   S3        1.0  0.7692571013968248  0.37984459089949496  0.0178362903168576  1.0000
  S   S4        1.0  0.3706783223014156  0.6152777589703575  0.9833434169710173  1.0000
  N   N1        1.0  0.024611130272425903  0.0324796910495522  0.8756685674210232  1.0000
  N   N2        1.0  0.8841222637053291  0.0341833901500408  0.6243009113332434  1.0000
  N   N3        1.0  0.009183069197391097  0.9579034669493109  0.11364557886932398  1.0000
  N   N4        1.0  0.9000929258818855  0.9578263178557547  0.3864876638268129  1.0000
  O   O1        1.0  0.5069998817670152  0.8349126988566694  0.5041253587637299  1.0000
  O   O2        1.0  0.17988745058693206  0.8524668579699934  0.4929976376556339  1.0000
  O   O3        1.0  0.3567622758313219  0.9959166713530507  0.5539378871211085  1.0000
  O   O4        1.0  0.687915375182257  0.9979666221707932  0.5567123692486433  1.0000
  O   O5        1.0  0.19564863875536528  0.15328460068647592  0.4927391747951332  1.0000
  O   O6        1.0  0.5241704518679738  0.154050080810741  0.5020286617522485  1.0000
  O   O7        1.0  0.708602133108627  0.9869986795134694  0.4502343012339551  1.0000
  O   O8        1.0  0.3794580516959484  0.9969912323814539  0.4429158976363325  1.0000
  O   O9        1.0  0.4020471765102015  0.8334558309549535  0.9959951582036622  1.0000
  O   O10       1.0  0.7292401429455566  0.8518499524508701  0.0069918293539715  1.0000
  O   O11       1.0  0.5520791380215399  0.994677609490708  0.9459439030081356  1.0000
  O   O12       1.0  0.22092882003866518  0.9962724083286287  0.9432593949007425  1.0000
  O   O13       1.0  0.7137159186472742  0.152664438414206  0.0070018040796072  1.0000
  O   O14       1.0  0.3852888949036243  0.1525511105639339  0.997624694900047  1.0000
  O   O15       1.0  0.200832956321868  0.9855561119966509  0.04974443750688099  1.0000
  O   O16       1.0  0.5300842542369466  0.9955067139073607  0.056951206216659486  1.0000
  O   O17       1.0  0.7841954746778653  0.2794638579716064  0.5335141843344643  1.0000
  O   O18       1.0  0.7977594972326685  0.45501649301929364  0.5426837640005359  1.0000
  O   O19       1.0  0.9041601512120536  0.7260145912258906  0.46462296697283273  1.0000
  O   O20       1.0  0.8758958243547711  0.5507766834222068  0.45533592336120415  1.0000
  O   O21       1.0  0.12474872591570825  0.2776646510957618  0.9663901771289287  1.0000
  O   O22       1.0  0.11093896103397324  0.45329073056630154  0.9572750094325  1.0000
  O   O23       1.0  0.005198762089406699  0.7256656359538167  0.0352749224004327  1.0000
  O   O24       1.0  0.03328831435994319  0.5503388824346942  0.044476191499406084  1.0000
