data_image0
_chemical_formula_structural       Cs2U2H30C20O22
_chemical_formula_sum              "Cs2 U2 H30 C20 O22"
_cell_length_a       8.282668334347962
_cell_length_b       10.38042360672391
_cell_length_c       10.681454608170672
_cell_angle_alpha    68.18452306490676
_cell_angle_beta     71.02527339259126
_cell_angle_gamma    79.99164080607892

_space_group_name_H-M_alt    "P 1"
_space_group_IT_number       1

loop_
  _space_group_symop_operation_xyz
  'x, y, z'

loop_
  _atom_site_type_symbol
  _atom_site_label
  _atom_site_symmetry_multiplicity
  _atom_site_fract_x
  _atom_site_fract_y
  _atom_site_fract_z
  _atom_site_occupancy
  Cs  Cs1       1.0  0.3461715748464017  0.5337126606655787  0.20690531770991072  1.0000
  Cs  Cs2       1.0  0.6538272868071362  0.46628843446002577  0.7930940914431374  1.0000
  U   U1        1.0  0.8207870406190666  0.3451260673272927  0.3897271133235236  1.0000
  U   U2        1.0  0.17921324022151458  0.6548729437464331  0.6102726890977976  1.0000
  H   H1        1.0  0.8974244387069564  0.14643176509141406  0.7152293993159304  1.0000
  H   H2        1.0  0.10257577106146702  0.8535682855186836  0.28477004939817613  1.0000
  H   H3        1.0  0.36123890589242097  0.8063676255126637  0.916989927735237  1.0000
  H   H4        1.0  0.6387598926355554  0.1936345133336204  0.08300818802096893  1.0000
  H   H5        1.0  0.3211891975061507  0.7343669250039825  0.8275179636185114  1.0000
  H   H6        1.0  0.6788097352195381  0.2656331305852504  0.17248179924174425  1.0000
  H   H7        1.0  0.21854357546485667  0.28803791509720617  0.6327363856593776  1.0000
  H   H8        1.0  0.7814592515145976  0.711961081833934  0.3672637281592871  1.0000
  H   H9        1.0  0.3138266297042095  0.17901761692721857  0.7684666527137125  1.0000
  H   H10       1.0  0.686172350253834  0.820981386572697  0.23153628292266853  1.0000
  H   H11       1.0  0.39658173861359103  0.9964047138579915  0.6580668692904298  1.0000
  H   H12       1.0  0.6034173993819538  0.0035922189378113  0.34193489438109026  1.0000
  H   H13       1.0  0.17518549701958366  0.027674729625566392  0.7166792412724944  1.0000
  H   H14       1.0  0.8248135619572142  0.9723232385222929  0.28332310838145264  1.0000
  H   H15       1.0  0.3895451279958524  0.1495426276129805  0.4065193862104551  1.0000
  H   H16       1.0  0.6104537808900335  0.850457415423307  0.5934831957187185  1.0000
  H   H17       1.0  0.2744916212072043  0.997329064528422  0.4794177070748163  1.0000
  H   H18       1.0  0.725507224553127  0.002672022228544799  0.5205835814575082  1.0000
  H   H19       1.0  0.9992417407100976  0.705373660909288  0.9349263044370844  1.0000
  H   H20       1.0  0.0007573421065031988  0.29462431979151665  0.06507322614794481  1.0000
  H   H21       1.0  0.9341546448310968  0.7909897399387804  0.05887155204648297  1.0000
  H   H22       1.0  0.0658429477263027  0.20901136435027473  0.9411272315630725  1.0000
  H   H23       1.0  0.6235924636805239  0.7956287213671231  0.05796215357904801  1.0000
  H   H24       1.0  0.37640642181281  0.20437238631142662  0.9420344365050893  1.0000
  H   H25       1.0  0.6980025220441847  0.716257510383592  0.9271862892753474  1.0000
  H   H26       1.0  0.30199636344914893  0.2837435972949578  0.07281030080878284  1.0000
  H   H27       1.0  0.8817202574059311  0.9230296972597217  0.7704061087568024  1.0000
  H   H28       1.0  0.11828109520751443  0.07697243162829182  0.22959137870710586  1.0000
  H   H29       1.0  0.6591873290193604  0.9585633534824398  0.8043507306986938  1.0000
  H   H30       1.0  0.34081146950862273  0.0414387853638445  0.19564738505750506  1.0000
  C   C1        1.0  0.4898272424029387  0.2615858404797322  0.5690820218931663  1.0000
  C   C2        1.0  0.5101742916405743  0.7384131530619058  0.4309202854509237  1.0000
  C   C3        1.0  0.31821732672283803  0.2063147535974892  0.6580478134935818  1.0000
  C   C4        1.0  0.6817842152672784  0.793684244128471  0.3419535541608669  1.0000
  C   C5        1.0  0.2914784497592964  0.0737291569420364  0.6370776002300929  1.0000
  C   C6        1.0  0.7085206092175016  0.9262688112058227  0.36292474942386127  1.0000
  C   C7        1.0  0.27890006365793607  0.09805709931659122  0.49029806945220866  1.0000
  C   C8        1.0  0.7211014703855767  0.9019418942250468  0.5097042378918815  1.0000
  C   C9        1.0  0.120878768768641  0.18244073709597333  0.4602190731304674  1.0000
  C   C10       1.0  0.8791189103068577  0.8175582588301253  0.5397869957209807  1.0000
  C   C11       1.0  0.8647403380733397  0.5849980079472203  0.14005395335687607  1.0000
  C   C12       1.0  0.13526115668442174  0.41500204186806394  0.8599442415214468  1.0000
  C   C13       1.0  0.8905538441676771  0.7212952103191129  0.020990067593878357  1.0000
  C   C14       1.0  0.1094438905340311  0.2787038148972059  0.9790094234300993  1.0000
  C   C15       1.0  0.7331672612178013  0.7850916367330286  0.9698971918785444  1.0000
  C   C16       1.0  0.26683161632893626  0.21490946676120612  0.030100337895227376  1.0000
  C   C17       1.0  0.7636178983139603  0.9268135636399395  0.8546280095203612  1.0000
  C   C18       1.0  0.23638096333957756  0.07318753148566512  0.14537139963269397  1.0000
  C   C19       1.0  0.7661090894596969  0.04336088414094521  0.9061506495195744  1.0000
  C   C20       1.0  0.23389114414852957  0.9566391790221046  0.09384598012561449  1.0000
  O   O1        1.0  0.8101060695709139  0.2315625499167027  0.2971129167074693  1.0000
  O   O2        1.0  0.18989541724024417  0.7684374957142596  0.7028862178604954  1.0000
  O   O3        1.0  0.8347273683245293  0.4564636249894465  0.4817860788874172  1.0000
  O   O4        1.0  0.16527028735842467  0.543536435578922  0.5182139981189876  1.0000
  O   O5        1.0  0.5073491364994211  0.36342850686671824  0.452853277481772  1.0000
  O   O6        1.0  0.4926537615521768  0.6365694505280499  0.5471471900441003  1.0000
  O   O7        1.0  0.6249980103051345  0.2030286065524862  0.6061951838808851  1.0000
  O   O8        1.0  0.3750036897224903  0.7969683204693682  0.3938050118087021  1.0000
  O   O9        1.0  0.12948770577774846  0.27973732338491425  0.3426912725215345  1.0000
  O   O10       1.0  0.8705124483644726  0.720262697934963  0.6573147540200496  1.0000
  O   O11       1.0  0.9718612750655854  0.15678172113571523  0.5494919795144922  1.0000
  O   O12       1.0  0.028136577940628633  0.8432152124549075  0.4505110379928182  1.0000
  O   O13       1.0  0.7147488476934927  0.5443601041598711  0.2148668353622938  1.0000
  O   O14       1.0  0.28525134618172393  0.455639938081589  0.7851344927310961  1.0000
  O   O15       1.0  0.9941756748989907  0.5079990091397805  0.17239046829520532  1.0000
  O   O16       1.0  0.0058256618212624125  0.49200311137960273  0.8276088985479788  1.0000
  O   O17       1.0  0.6935443167836087  0.0417473709611897  0.027426423172748574  1.0000
  O   O18       1.0  0.3064533388993383  0.9582526896071711  0.9725736538336563  1.0000
  O   O19       1.0  0.8484170971058589  0.1558291928960713  0.8113469317183614  1.0000
  O   O20       1.0  0.1515830415904064  0.8441718972503979  0.18865216328854462  1.0000
  O   O21       1.0  0.3939736332684235  0.7231907552741462  0.8878085419243432  1.0000
  O   O22       1.0  0.6060265054278419  0.276810334872323  0.11219055308255585  1.0000
