data_image0
_chemical_formula_structural       Zn6H108C138N6O36
_chemical_formula_sum              "Zn6 H108 C138 N6 O36"
_cell_length_a       12.835330461317385
_cell_length_b       18.929982090378402
_cell_length_c       18.928049622147228
_cell_angle_alpha    115.04337434725988
_cell_angle_beta     103.05699552243324
_cell_angle_gamma    103.06298947012226

_space_group_name_H-M_alt    "P 1"
_space_group_IT_number       1

loop_
  _space_group_symop_operation_xyz
  'x, y, z'

loop_
  _atom_site_type_symbol
  _atom_site_label
  _atom_site_symmetry_multiplicity
  _atom_site_fract_x
  _atom_site_fract_y
  _atom_site_fract_z
  _atom_site_occupancy
  Zn  Zn1       1.0  0.821082937510383  0.7231654153971124  0.32498641607440965  1.0000
  Zn  Zn2       1.0  0.4961211853625116  0.6749967522976732  0.39815143871665976  1.0000
  Zn  Zn3       1.0  0.09791741944999191  0.6018788021001599  0.2767964213353693  1.0000
  Zn  Zn4       1.0  0.17891455488966557  0.2768338529043604  0.6750113023422272  1.0000
  Zn  Zn5       1.0  0.5038780772169317  0.3250012635204413  0.6018486633718609  1.0000
  Zn  Zn6       1.0  0.9020808709014148  0.39812046610639146  0.7232030046269599  1.0000
  H   H1        1.0  0.014889062468839198  0.8616026594594574  0.3440843952275827  1.0000
  H   H2        1.0  0.22939034606638845  0.8428531329902783  0.3041628459640505  1.0000
  H   H3        1.0  0.1757407073886625  0.1501502647073707  0.41695437995744555  1.0000
  H   H4        1.0  0.35371950283831677  0.19326328656409691  0.39003775432882287  1.0000
  H   H5        1.0  0.44256509808828076  0.08890412049112942  0.32885300342162793  1.0000
  H   H6        1.0  0.3515008247584461  0.941649381670736  0.2947937026577064  1.0000
  H   H7        1.0  0.8850905050118172  0.019630776074897903  0.4892779999085093  1.0000
  H   H8        1.0  0.7342601882190678  0.9302219921506635  0.30232981538324555  1.0000
  H   H9        1.0  0.6080379922129496  0.1499039550264598  0.3012752993837751  1.0000
  H   H10       1.0  0.7542568147299847  0.2804135994965976  0.423708847163681  1.0000
  H   H11       1.0  0.9176586616892237  0.2740306940440434  0.5207124724812076  1.0000
  H   H12       1.0  0.9314531588699567  0.13784970286381787  0.49196216600378756  1.0000
  H   H13       1.0  0.8156246739327245  0.5846885652768705  0.17073796181391285  1.0000
  H   H14       1.0  0.6829637735034738  0.48741337255569317  0.024820636388064095  1.0000
  H   H15       1.0  0.42609891751101964  0.5878788036011287  0.09318744842030913  1.0000
  H   H16       1.0  0.5696930675288172  0.6800318173048082  0.23551386506729693  1.0000
  H   H17       1.0  0.0697520309921131  0.04862415346783421  0.44021640207695606  1.0000
  H   H18       1.0  0.5436802472773081  0.008473842999016799  0.23278461910707895  1.0000
  H   H19       1.0  0.6707989607261454  0.6557223198597272  0.5173820080950904  1.0000
  H   H20       1.0  0.9252454093345008  0.6958199969145441  0.5385948241557372  1.0000
  H   H21       1.0  0.7586992071849821  0.5829407100006706  0.7330429411800239  1.0000
  H   H22       1.0  0.9635772171064971  0.6100446278321885  0.8032801543368819  1.0000
  H   H23       1.0  0.11371473397836947  0.6713288274437019  0.7602286239946705  1.0000
  H   H24       1.0  0.05676747241872712  0.7052202455307326  0.6468739829127087  1.0000
  H   H25       1.0  0.3954212253205683  0.5105460680241763  0.5302068726665894  1.0000
  H   H26       1.0  0.4318834223317296  0.6975380575677692  0.6278257731969176  1.0000
  H   H27       1.0  0.307046863675339  0.6986977553456485  0.8487928876638476  1.0000
  H   H28       1.0  0.33099113942336805  0.5762918238616807  0.8568821841568592  1.0000
  H   H29       1.0  0.3970953260038216  0.47918798080186786  0.7533123457330004  1.0000
  H   H30       1.0  0.4393034745453832  0.5078830881441618  0.6457569265632869  1.0000
  H   H31       1.0  0.6449870054875789  0.8293152829297626  0.41397532874215404  1.0000
  H   H32       1.0  0.6582016842865033  0.9752259537032871  0.4626392748301455  1.0000
  H   H33       1.0  0.3329814928192718  0.9068169782523655  0.4947652844138232  1.0000
  H   H34       1.0  0.33425683229086905  0.7644657498342087  0.4444915431689154  1.0000
  H   H35       1.0  0.6295103674332054  0.5598164235778428  0.608321756488685  1.0000
  H   H36       1.0  0.31091747452326496  0.7671257969924524  0.7758015096781319  1.0000
  H   H37       1.0  0.15339943885427942  0.48271689390003303  0.13835107533199675  1.0000
  H   H38       1.0  0.38664454911459245  0.4615473276732374  0.15722186286174625  1.0000
  H   H39       1.0  0.0257048634586923  0.26706717880506403  0.849929895578512  1.0000
  H   H40       1.0  0.1604036624235405  0.19684023839362652  0.8068588052050174  1.0000
  H   H41       1.0  0.35346864606735556  0.2398476304569641  0.911232557903169  1.0000
  H   H42       1.0  0.4098452383577965  0.3532141178165063  0.058434643548558554  1.0000
  H   H43       1.0  0.8652867436629776  0.469701234212927  0.9803152315673457  1.0000
  H   H44       1.0  0.8042609795276334  0.3720069426303283  0.06967188228998819  1.0000
  H   H45       1.0  0.45803643078259876  0.1514715771978388  0.8500692788983244  1.0000
  H   H46       1.0  0.4738625496959941  0.14330594358356313  0.7195311925717148  1.0000
  H   H47       1.0  0.6436790845924634  0.24662492797602203  0.7258599804121104  1.0000
  H   H48       1.0  0.7936792845420869  0.3539970187529705  0.8620387097299014  1.0000
  H   H49       1.0  0.23098476366373435  0.5860779883976264  0.41532505953861687  1.0000
  H   H50       1.0  0.19547700474747404  0.537306367441268  0.512516863418604  1.0000
  H   H51       1.0  0.8382908380541564  0.505610211494492  0.41229439592080297  1.0000
  H   H52       1.0  0.8898146579755563  0.5557806721457227  0.3201398036606022  1.0000
  H   H53       1.0  0.021143741336658146  0.39174147201178033  0.9515024087391238  1.0000
  H   H54       1.0  0.5351157401738648  0.22439744405780007  0.9914735026419735  1.0000
  H   H55       1.0  0.9851107931101878  0.13839973947145984  0.6559165960066764  1.0000
  H   H56       1.0  0.7706093695356131  0.157147387456682  0.6958378572245322  1.0000
  H   H57       1.0  0.8242612332275672  0.8498515079534459  0.5830477233607426  1.0000
  H   H58       1.0  0.6462826114504878  0.8067372337804244  0.6099638457839658  1.0000
  H   H59       1.0  0.5574347936026668  0.9110951477306912  0.6711450837051058  1.0000
  H   H60       1.0  0.6484982671688684  0.0583498865776306  0.7052042615656617  1.0000
  H   H61       1.0  0.11490955853943761  0.9803672397622522  0.5107211686551592  1.0000
  H   H62       1.0  0.2657408144687636  0.06977790212111053  0.6976702923435738  1.0000
  H   H63       1.0  0.3919644357254697  0.8500971914857303  0.6987260855692908  1.0000
  H   H64       1.0  0.24574703906312584  0.7195887992787888  0.5762932868015155  1.0000
  H   H65       1.0  0.08234505152275777  0.7259698262245922  0.4792899016524288  1.0000
  H   H66       1.0  0.06854975639066636  0.8621508174997315  0.5080385005841491  1.0000
  H   H67       1.0  0.18437090166590056  0.4153100767732953  0.8292628952403831  1.0000
  H   H68       1.0  0.3170324299984699  0.512586521852583  0.9751792621326627  1.0000
  H   H69       1.0  0.5738971147347057  0.41212234321461233  0.9068108404493812  1.0000
  H   H70       1.0  0.4303040769219706  0.3199699556064673  0.764485387974254  1.0000
  H   H71       1.0  0.9302511973140354  0.9513769930405972  0.5597845775653667  1.0000
  H   H72       1.0  0.4563228067521621  0.9915285558029154  0.7672173919547518  1.0000
  H   H73       1.0  0.329198217420192  0.34427632225128957  0.4826164536953853  1.0000
  H   H74       1.0  0.07475082846708864  0.3041767667162604  0.4614037548998056  1.0000
  H   H75       1.0  0.2413006808814231  0.41705855808440623  0.2669583152313777  1.0000
  H   H76       1.0  0.03642281093694073  0.3899565187368524  0.1967213901201958  1.0000
  H   H77       1.0  0.8862862332016377  0.3286741975599626  0.23977385962555792  1.0000
  H   H78       1.0  0.9432322443914528  0.2947802749618021  0.3531256638476492  1.0000
  H   H79       1.0  0.6045770632185635  0.4894532001140065  0.4697941379380808  1.0000
  H   H80       1.0  0.5681162950825397  0.3024624629475597  0.37217334534932434  1.0000
  H   H81       1.0  0.6929544520580109  0.3013027650710001  0.1512075331173577  1.0000
  H   H82       1.0  0.6690092371734125  0.4237068181203441  0.14311729746119534  1.0000
  H   H83       1.0  0.6029059921458924  0.5208125397059433  0.24668596219176198  1.0000
  H   H84       1.0  0.5606989552053108  0.49211805843639683  0.3542428737474452  1.0000
  H   H85       1.0  0.35501159730526405  0.17068461139887606  0.5860249384886771  1.0000
  H   H86       1.0  0.3417985168254204  0.024773940526664304  0.5373622946356419  1.0000
  H   H87       1.0  0.6670188831734195  0.09318166370687211  0.5052347254183402  1.0000
  H   H88       1.0  0.6657441685846878  0.235534144369197  0.5555101492002379  1.0000
  H   H89       1.0  0.37048809538260485  0.44018159226682485  0.3916782226964698  1.0000
  H   H90       1.0  0.6890841536515211  0.2328753495462763  0.22419975237156817  1.0000
  H   H91       1.0  0.8465988521012234  0.5172823743293052  0.8616478224162235  1.0000
  H   H92       1.0  0.6133540542823399  0.5384525666781814  0.842777876154976  1.0000
  H   H93       1.0  0.9742934262886248  0.7329320893786999  0.15007005859794012  1.0000
  H   H94       1.0  0.8395946261155984  0.8031590297445563  0.19314220539965277  1.0000
  H   H95       1.0  0.6465296442840512  0.76015163774958  0.08876686805916732  1.0000
  H   H96       1.0  0.5901533650391358  0.6467857765349195  0.9415650954681566  1.0000
  H   H97       1.0  0.13471328800499552  0.5302999124928576  0.019683143605064433  1.0000
  H   H98       1.0  0.19573936397768682  0.6279948301747497  0.9303278623650257  1.0000
  H   H99       1.0  0.5419648855548475  0.8485289432416041  0.1499306136687721  1.0000
  H   H100      1.0  0.5261393921284067  0.8566958291228417  0.28046985431826216  1.0000
  H   H101      1.0  0.3563204591492237  0.7533768448556019  0.2741396413395377  1.0000
  H   H102      1.0  0.20632105835914427  0.6460047540293204  0.13796156313922128  1.0000
  H   H103      1.0  0.7690143264513055  0.4139212797823717  0.5846744893270852  1.0000
  H   H104      1.0  0.8045251107495089  0.4626941529488349  0.4874836802659672  1.0000
  H   H105      1.0  0.16170985219223877  0.49438905665519434  0.5877048705375216  1.0000
  H   H106      1.0  0.11018523250720591  0.4442185960305239  0.6798593398943567  1.0000
  H   H107      1.0  0.9788554887554142  0.6082596746521818  0.048497428172254345  1.0000
  H   H108      1.0  0.46488637532311833  0.7756030763323026  0.008527041042590612  1.0000
  C   C1        1.0  0.05916968713408718  0.7497944083147347  0.3150851652593616  1.0000
  C   C2        1.0  0.07914558818244889  0.8350652507602234  0.32979678247735217  1.0000
  C   C3        1.0  0.1732941242143441  0.8772892375774007  0.32262785220408563  1.0000
  C   C4        1.0  0.21270545292959048  0.9616410064384271  0.3366630772081932  1.0000
  C   C5        1.0  0.16333932388258182  0.022152801116085606  0.3717263070741481  1.0000
  C   C6        1.0  0.21470675659653443  0.10474893014399811  0.3898607162277585  1.0000
  C   C7        1.0  0.3138385505513099  0.12844801288221674  0.3741155606956923  1.0000
  C   C8        1.0  0.36341037657622627  0.06965678264776902  0.3392657664499055  1.0000
  C   C9        1.0  0.31288819720052174  0.9878390976002367  0.3208017988219111  1.0000
  C   C10       1.0  0.8483463948829311  0.8879137396354866  0.4072587308289782  1.0000
  C   C11       1.0  0.839720104859431  0.9693649887618675  0.42451704683519137  1.0000
  C   C12       1.0  0.781356415393809  0.983164150570339  0.3658526257907226  1.0000
  C   C13       1.0  0.7755045861343747  0.06432844937352662  0.38230706346821824  1.0000
  C   C14       1.0  0.6851912948424114  0.06969002978648581  0.32844823384832017  1.0000
  C   C15       1.0  0.678080568644681  0.14703241373032228  0.34383052661911506  1.0000
  C   C16       1.0  0.7607760822222859  0.2206274898804779  0.4130396238590208  1.0000
  C   C17       1.0  0.851360035988712  0.21711433947985634  0.4670586181429925  1.0000
  C   C18       1.0  0.8583678310979084  0.13997171559891095  0.4514412491515714  1.0000
  C   C19       1.0  0.7281102411225362  0.5827988717900114  0.15026429563081928  1.0000
  C   C20       1.0  0.6524592421071134  0.5284950984555365  0.06840827265963868  1.0000
  C   C21       1.0  0.5407200047804963  0.5281810384761984  0.04374710614739294  1.0000
  C   C22       1.0  0.5108740056983481  0.583838481983378  0.10585561513786966  1.0000
  C   C23       1.0  0.5912378372072736  0.6365060025333236  0.18664628017056367  1.0000
  C   C24       1.0  0.7440559015236586  0.6848231672825875  0.4346031234061555  1.0000
  C   C25       1.0  0.7493453151980204  0.6701063147036308  0.50517081836783  1.0000
  C   C26       1.0  0.8507007394670155  0.677320565821809  0.5545665772296572  1.0000
  C   C27       1.0  0.8760805292053535  0.6632738149929054  0.6248833390298073  1.0000
  C   C28       1.0  0.7916289325530741  0.6282177648145933  0.6503128607682171  1.0000
  C   C29       1.0  0.8248042978125198  0.6100865738650612  0.7147845859458143  1.0000
  C   C30       1.0  0.9396765369204945  0.6259325986145259  0.7543459111294908  1.0000
  C   C31       1.0  0.024141084367478458  0.6608116392979895  0.7304513720778089  1.0000
  C   C32       1.0  0.9921022129280388  0.6792054823478963  0.6670318138500233  1.0000
  C   C33       1.0  0.4409193409309393  0.5925980097765516  0.48055971860711805  1.0000
  C   C34       1.0  0.4149900675778825  0.5753281279710054  0.5447451693330762  1.0000
  C   C35       1.0  0.4153715670276411  0.6339980607723203  0.617234035722582  1.0000
  C   C36       1.0  0.3931231273426406  0.6175821477065143  0.6819957293536588  1.0000
  C   C37       1.0  0.35677420853298975  0.6714728435019596  0.7412784207966326  1.0000
  C   C38       1.0  0.33444675508181376  0.6561171505813732  0.8033114407799502  1.0000
  C   C39       1.0  0.34799990197031144  0.586912031032  0.8076894164900067  1.0000
  C   C40       1.0  0.38443889660019454  0.532853448022941  0.75007765357104  1.0000
  C   C41       1.0  0.406834618359653  0.5484264005722678  0.6884709135409323  1.0000
  C   C42       1.0  0.5779349868113288  0.8497768850265149  0.43255478293662725  1.0000
  C   C43       1.0  0.5841387430260099  0.9316292935917545  0.4601355550774001  1.0000
  C   C44       1.0  0.4969902496095316  0.956245797814262  0.4844533631160318  1.0000
  C   C45       1.0  0.4050577441190911  0.894140920558712  0.47801490122293416  1.0000
  C   C46       1.0  0.40466909354265823  0.8133478565111646  0.4498572430870523  1.0000
  C   C47       1.0  0.3094132150663498  0.5654877843451728  0.25022726524872496  1.0000
  C   C48       1.0  0.24416409505251835  0.49496240837115135  0.16493555090384865  1.0000
  C   C49       1.0  0.2961176407151029  0.4455783336134544  0.12275965516649014  1.0000
  C   C50       1.0  0.2511714540738481  0.375245862804924  0.03841926735801587  1.0000
  C   C51       1.0  0.1412896432944706  0.3497964939142975  0.9779265055732791  1.0000
  C   C52       1.0  0.11004131156988711  0.28532387799737796  0.8953342914954162  1.0000
  C   C53       1.0  0.1853741099662471  0.24577358372498986  0.8716637659028094  1.0000
  C   C54       1.0  0.2936918476594386  0.2696695775045228  0.9304582296951621  1.0000
  C   C55       1.0  0.3250556845654415  0.33309148764006125  0.012248206847296182  1.0000
  C   C56       1.0  0.9604449186347351  0.5192947871053235  0.11199978917768047  1.0000
  C   C57       1.0  0.8703158159563318  0.45513989982836744  0.030553971228044947  1.0000
  C   C58       1.0  0.7982663875460928  0.38264232423706795  0.01673621249607744  1.0000
  C   C59       1.0  0.7111851812922368  0.317963897187326  0.9355930629406756  1.0000
  C   C60       1.0  0.6154409472860324  0.2588114496409589  0.9302560278104791  1.0000
  C   C61       1.0  0.5309555914831704  0.1968703603329089  0.8529235935523614  1.0000
  C   C62       1.0  0.5401265214660853  0.1924444179325349  0.7793106379346779  1.0000
  C   C63       1.0  0.6342596623956426  0.24991447874168674  0.7827852991731489  1.0000
  C   C64       1.0  0.7183955810011752  0.3114222783574689  0.859923483181653  1.0000
  C   C65       1.0  0.14536551530554936  0.5674899180149994  0.4172057555370117  1.0000
  C   C66       1.0  0.12394806802388553  0.5398741924602531  0.47146488968441946  1.0000
  C   C67       1.0  0.01252433226089516  0.5155931393622951  0.4718228968501633  1.0000
  C   C68       1.0  0.9270758345608598  0.5221954642006706  0.41626102869492587  1.0000
  C   C69       1.0  0.9548233738828812  0.5503269140868812  0.363597668631634  1.0000
  C   C70       1.0  0.940828742590263  0.2502067383529862  0.6849150769627598  1.0000
  C   C71       1.0  0.9208547535105965  0.16493652197648606  0.6702045468199955  1.0000
  C   C72       1.0  0.8267070172423344  0.1227125351327558  0.6773735999966275  1.0000
  C   C73       1.0  0.7872950630401263  0.03835951400476741  0.6633372206696464  1.0000
  C   C74       1.0  0.8366634158931846  0.9778489714953978  0.6282764473615285  1.0000
  C   C75       1.0  0.7852978963561128  0.8952534685820484  0.6101420688549196  1.0000
  C   C76       1.0  0.6861665891194448  0.871553759672409  0.6258870342359656  1.0000
  C   C77       1.0  0.6365893402339537  0.9303437378447728  0.6607338803104524  1.0000
  C   C78       1.0  0.6871112059600434  0.0121607967246433  0.6791980630981698  1.0000
  C   C79       1.0  0.1516568340272997  0.11208740689573203  0.5927417205992356  1.0000
  C   C80       1.0  0.16028121268619341  0.030635531723156403  0.5754817893036729  1.0000
  C   C81       1.0  0.2186457001031741  0.016836369819763802  0.6341479178938484  1.0000
  C   C82       1.0  0.2244980166848052  0.9356714448679356  0.6176927618512237  1.0000
  C   C83       1.0  0.31481210774040147  0.9303098644284307  0.6715517143744876  1.0000
  C   C84       1.0  0.32192519832530314  0.8529706111596269  0.6561716379930898  1.0000
  C   C85       1.0  0.23922617325173687  0.7793749089935885  0.5869612078712193  1.0000
  C   C86       1.0  0.14864496491318843  0.7828855546363869  0.5329426323147713  1.0000
  C   C87       1.0  0.14163651062148833  0.8600300570506363  0.548559638234387  1.0000
  C   C88       1.0  0.2718856499379712  0.4172003964961917  0.8497347616214128  1.0000
  C   C89       1.0  0.3475391888254221  0.47150604825776543  0.9315909131342578  1.0000
  C   C90       1.0  0.45927794064211014  0.4718207344541129  0.9562512133692991  1.0000
  C   C91       1.0  0.4891250531374994  0.4161639170880492  0.8941426121224652  1.0000
  C   C92       1.0  0.408760906166691  0.36349577030206603  0.8133537468918277  1.0000
  C   C93       1.0  0.2559427367770013  0.3151735963141533  0.5653947679312663  1.0000
  C   C94       1.0  0.25065217418157454  0.32989295348388487  0.4948295411193654  1.0000
  C   C95       1.0  0.14929629809820708  0.32267619778244955  0.4454321247292512  1.0000
  C   C96       1.0  0.1239182478641609  0.3367248270422182  0.37511589678150864  1.0000
  C   C97       1.0  0.2083706454882517  0.3717808772395586  0.3496854415182469  1.0000
  C   C98       1.0  0.17519381886630472  0.3899139466577851  0.2852153432219282  1.0000
  C   C99       1.0  0.06032522881496763  0.37407042631701176  0.2456577518223284  1.0000
  C   C100      1.0  0.97585654438506  0.3391895073507031  0.26954980366916453  1.0000
  C   C101      1.0  0.007895278867913228  0.32079378593077484  0.3329664327807222  1.0000
  C   C102      1.0  0.5590773492891188  0.40740125846030395  0.5194399897625955  1.0000
  C   C103      1.0  0.585007422405802  0.4246711402393046  0.45525466194000336  1.0000
  C   C104      1.0  0.5846281491784496  0.36600245969743395  0.38276613925189207  1.0000
  C   C105      1.0  0.6068783277636527  0.3824202511713111  0.31800550768733155  1.0000
  C   C106      1.0  0.6432306186963287  0.3285283029305787  0.25872333286653765  1.0000
  C   C107      1.0  0.6655561595747131  0.3438833697593893  0.1966897540220955  1.0000
  C   C108      1.0  0.6520017286208387  0.41308911559789857  0.19230973270324359  1.0000
  C   C109      1.0  0.6155640204726964  0.46714707240898445  0.24992142837456302  1.0000
  C   C110      1.0  0.5931682975050592  0.45157411981407597  0.3115292248328884  1.0000
  C   C111      1.0  0.42206538978545194  0.15022175695551002  0.5674446986814203  1.0000
  C   C112      1.0  0.4158630594254475  0.0683706006534734  0.539864675552792  1.0000
  C   C113      1.0  0.5030117240981511  0.04375284402350129  0.5155484771652041  1.0000
  C   C114      1.0  0.5949410299299699  0.10585772136246162  0.5219869756589404  1.0000
  C   C115      1.0  0.595328881346866  0.18665078545934927  0.5501439826773407  1.0000
  C   C116      1.0  0.6905833333644011  0.4345096053393505  0.7497737397176465  1.0000
  C   C117      1.0  0.7558335698119336  0.5050356075684377  0.8350627207356067  1.0000
  C   C118      1.0  0.7038814481917584  0.5544209345209697  0.8772409501274367  1.0000
  C   C119      1.0  0.748827634228924  0.6247534053067058  0.9615818661500198  1.0000
  C   C120      1.0  0.8587092731479871  0.6502040265820028  0.022073546497828875  1.0000
  C   C121      1.0  0.8899569769692519  0.7146753901408048  0.10466671910925374  1.0000
  C   C122      1.0  0.8146246658950886  0.7542250582645523  0.12833652633673148  1.0000
  C   C123      1.0  0.7063053286746308  0.7303290645381182  0.06954181673764731  1.0000
  C   C124      1.0  0.6749429182274015  0.6669084066885704  0.9877520603835349  1.0000
  C   C125      1.0  0.03955319864817854  0.4807057334403099  0.887999611775946  1.0000
  C   C126      1.0  0.1296824743950752  0.5448593683781839  0.9694454547342914  1.0000
  C   C127      1.0  0.20173315800786165  0.617359448662931  0.9832618246132367  1.0000
  C   C128      1.0  0.288813423312881  0.6820359972096811  0.06440561964782172  1.0000
  C   C129      1.0  0.38455685695135594  0.7411884447598069  0.06974306008876134  1.0000
  C   C130      1.0  0.4690439859540732  0.8031282816984558  0.14707523694821137  1.0000
  C   C131      1.0  0.45987399571181714  0.807556102556241  0.22068860351493666  1.0000
  C   C132      1.0  0.3657392552549937  0.7500860418001951  0.2172136964697343  1.0000
  C   C133      1.0  0.2816044488545301  0.6885788682799471  0.14007647663309078  1.0000
  C   C134      1.0  0.8546362871459152  0.43250997623022885  0.5827944750931735  1.0000
  C   C135      1.0  0.8760545353993906  0.46012570180400303  0.5285344074209064  1.0000
  C   C136      1.0  0.9874771559368581  0.484406128692477  0.5281780771538606  1.0000
  C   C137      1.0  0.07292294371683285  0.4778031778800341  0.5837371506881722  1.0000
  C   C138      1.0  0.045175890508829745  0.44967110179960906  0.6364008488145599  1.0000
  N   N1        1.0  0.6985833407038484  0.6364170334000931  0.20886295850419853  1.0000
  N   N2        1.0  0.4898016945752062  0.7911520796086792  0.4275477532820345  1.0000
  N   N3        1.0  0.06225091136273151  0.572556996295276  0.3636381590315663  1.0000
  N   N4        1.0  0.3014131764477099  0.363583487175852  0.7911367248568054  1.0000
  N   N5        1.0  0.5101983671637811  0.20884593616010252  0.5724529999239677  1.0000
  N   N6        1.0  0.9377489785159409  0.4274422718581761  0.6363615127375083  1.0000
  O   O1        1.0  0.1403775185120182  0.7211065181499947  0.31008315986266405  1.0000
  O   O2        1.0  0.9616097419295357  0.703730001626944  0.30700495700779123  1.0000
  O   O3        1.0  0.7979425157242374  0.82513762543212  0.33144552934513877  1.0000
  O   O4        1.0  0.9046585345048331  0.8806918503795135  0.46678060692708107  1.0000
  O   O5        1.0  0.06873194606540525  0.9993146517973771  0.38869005374419874  1.0000
  O   O6        1.0  0.6039806186115796  0.996039219527006  0.26138894468147805  1.0000
  O   O7        1.0  0.8302618474682576  0.6898569066875382  0.4109171573811564  1.0000
  O   O8        1.0  0.6545452096373907  0.6928546429761938  0.39659581038828395  1.0000
  O   O9        1.0  0.46623655222957433  0.6683867429758906  0.4935329077389098  1.0000
  O   O10       1.0  0.43788986104705435  0.5330919635884116  0.41388817005985595  1.0000
  O   O11       1.0  0.6801038979438233  0.6113059260755023  0.6105048595706605  1.0000
  O   O12       1.0  0.3425566568068347  0.7385353330154132  0.7347051160969612  1.0000
  O   O13       1.0  0.41932184300670616  0.5891865411360512  0.2789097039745199  1.0000
  O   O14       1.0  0.2579016203256259  0.6034240990495406  0.29630792369350445  1.0000
  O   O15       1.0  0.9728787479749316  0.5062969074095065  0.1748076067117735  1.0000
  O   O16       1.0  0.02400472674720083  0.5859948342639854  0.11915942679477352  1.0000
  O   O17       1.0  0.06951309795419294  0.3895577160293799  0.0008155972198409323  1.0000
  O   O18       1.0  0.607877368180901  0.26542013430879063  0.003928261256142225  1.0000
  O   O19       1.0  0.8596186843858361  0.27889337623549443  0.6899172668721789  1.0000
  O   O20       1.0  0.03838917511701112  0.29627051889214334  0.6929945668492009  1.0000
  O   O21       1.0  0.2020616890385725  0.17486226884741285  0.6685524289245919  1.0000
  O   O22       1.0  0.0953456690497987  0.11930804385443142  0.5332184077708675  1.0000
  O   O23       1.0  0.9312696815052918  0.0006864947185719  0.6113117365196102  1.0000
  O   O24       1.0  0.3960230970167658  0.003961300832784801  0.7386113165957156  1.0000
  O   O25       1.0  0.16973661776391688  0.3101411092482922  0.5890807089475488  1.0000
  O   O26       1.0  0.3454502651165684  0.30713898999485423  0.603399213442259  1.0000
  O   O27       1.0  0.5337606241044952  0.3316118990667505  0.5064671386938996  1.0000
  O   O28       1.0  0.5621058557367818  0.4669085569912924  0.5861119186118913  1.0000
  O   O29       1.0  0.3198974539014472  0.38869146363204277  0.38949265710301967  1.0000
  O   O30       1.0  0.6574484828639201  0.2614664395392126  0.2652974788346967  1.0000
  O   O31       1.0  0.5806761324869072  0.4108121008572497  0.7210909935757641  1.0000
  O   O32       1.0  0.7420952405465613  0.3965739167570705  0.703693922541369  1.0000
  O   O33       1.0  0.0271222559210784  0.49370298690784864  0.8251914445868207  1.0000
  O   O34       1.0  0.9759937378808843  0.41400318164905064  0.8808389677480477  1.0000
  O   O35       1.0  0.9304827931063145  0.6104415522568161  0.9991834600323982  1.0000
  O   O36       1.0  0.3921236002072845  0.7345828907404552  0.9960731659358614  1.0000
