data_image0
_chemical_formula_structural       Al2H8C8Br6N4
_chemical_formula_sum              "Al2 H8 C8 Br6 N4"
_cell_length_a       6.537623719951839
_cell_length_b       6.537367125013416
_cell_length_c       11.881795585768488
_cell_angle_alpha    77.2553941221257
_cell_angle_beta     77.25274982558896
_cell_angle_gamma    61.66164255550134

_space_group_name_H-M_alt    "P 1"
_space_group_IT_number       1

loop_
  _space_group_symop_operation_xyz
  'x, y, z'

loop_
  _atom_site_type_symbol
  _atom_site_label
  _atom_site_symmetry_multiplicity
  _atom_site_fract_x
  _atom_site_fract_y
  _atom_site_fract_z
  _atom_site_occupancy
  Al  Al1       1.0  0.7104182749510529  0.289593193832225  0.7500031584723175  1.0000
  Al  Al2       1.0  0.28958222394933825  0.7104237914630505  0.2500001437343187  1.0000
  H   H1        1.0  0.5769544311978125  0.6452742736618758  0.5294034858822484  1.0000
  H   H2        1.0  0.35476984718627597  0.42299603731392926  0.9706060690027841  1.0000
  H   H3        1.0  0.4230351530994271  0.3547497917621953  0.47058260153255566  1.0000
  H   H4        1.0  0.6452997186532982  0.5769332361003024  0.029406198266521227  1.0000
  H   H5        1.0  0.21946575187128306  0.21741561825534464  0.6526195264622175  1.0000
  H   H6        1.0  0.7826602096496631  0.780458282025613  0.8473790713920408  1.0000
  H   H7        1.0  0.7804932927182123  0.7826067113039983  0.34736201072718137  1.0000
  H   H8        1.0  0.2173975977196747  0.21948679452342645  0.1526276618582756  1.0000
  C   C1        1.0  0.7667213268465572  0.5789567110856738  0.516264003783334  1.0000
  C   C2        1.0  0.4210594505004011  0.23326655970262777  0.9837455849204275  1.0000
  C   C3        1.0  0.2332054793830096  0.42109888171930276  0.48373171883722677  1.0000
  C   C4        1.0  0.5789661591211798  0.7666942560066446  0.01627237795833033  1.0000
  C   C5        1.0  0.12038475018216843  0.3440507506365478  0.5846274199017856  1.0000
  C   C6        1.0  0.6559936004599579  0.8795915669015031  0.9153695845714863  1.0000
  C   C7        1.0  0.8796243706055265  0.6559398911617436  0.4153864209557625  1.0000
  C   C8        1.0  0.3440556058381503  0.1203623097171729  0.08462870868644502  1.0000
  Br  Br1       1.0  0.3620010086468568  0.6379718965096401  0.7500046446343165  1.0000
  Br  Br2       1.0  0.6379619996564543  0.36199954275600277  0.24998672097085964  1.0000
  Br  Br3       1.0  0.7503915190526131  0.0236904540487259  0.6324750181700907  1.0000
  Br  Br4       1.0  0.9763396575477188  0.2495848553534259  0.8675202139822318  1.0000
  Br  Br5       1.0  0.24956112637130448  0.9763668757279405  0.3675249759596326  1.0000
  Br  Br6       1.0  0.023647471741092715  0.7504759921838867  0.13247691148039561  1.0000
  N   N1        1.0  0.8861285249571155  0.4232521603691096  0.6014243673495872  1.0000
  N   N2        1.0  0.5768148569481114  0.1138173940561913  0.8985707260754837  1.0000
  N   N3        1.0  0.11383826419078252  0.5767946690432026  0.39857014043208494  1.0000
  N   N4        1.0  0.4232272700254356  0.8861452382064744  0.10143073303497371  1.0000
