data_image0
_chemical_formula_structural       Ca6H18C42N6O24
_chemical_formula_sum              "Ca6 H18 C42 N6 O24"
_cell_length_a       11.464430733236007
_cell_length_b       11.464404263864694
_cell_length_c       11.464416610711178
_cell_angle_alpha    108.76041896911664
_cell_angle_beta     108.76046364208398
_cell_angle_gamma    108.76064317491185

_space_group_name_H-M_alt    "P 1"
_space_group_IT_number       1

loop_
  _space_group_symop_operation_xyz
  'x, y, z'

loop_
  _atom_site_type_symbol
  _atom_site_label
  _atom_site_symmetry_multiplicity
  _atom_site_fract_x
  _atom_site_fract_y
  _atom_site_fract_z
  _atom_site_occupancy
  Ca  Ca1       1.0  0.02266541883214748  0.9508006960565465  0.3149891649405916  1.0000
  Ca  Ca2       1.0  0.31499070128020185  0.022665422397317093  0.9507985110502376  1.0000
  Ca  Ca3       1.0  0.9507989761559656  0.3149883166422001  0.02266626933332811  1.0000
  Ca  Ca4       1.0  0.9773351544277278  0.049199697734408694  0.6850104241106366  1.0000
  Ca  Ca5       1.0  0.6850107342133639  0.9773328876539504  0.04920068722742586  1.0000
  Ca  Ca6       1.0  0.049200187971180774  0.6850110328193181  0.9773342793643993  1.0000
  H   H1        1.0  0.5458883240587441  0.17240477702474516  0.7695669355918399  1.0000
  H   H2        1.0  0.7695726449338948  0.5458918557410186  0.1724099656529105  1.0000
  H   H3        1.0  0.17240794799565867  0.7695699721099629  0.5458924987506252  1.0000
  H   H4        1.0  0.454112674028309  0.8275945686076724  0.23043070950957664  1.0000
  H   H5        1.0  0.2304284204787522  0.45410958429392434  0.8275901155499741  1.0000
  H   H6        1.0  0.8275926252642166  0.23043042168099248  0.4541070903006031  1.0000
  H   H7        1.0  0.6872296208682515  0.25403958775792285  0.6582787649662409  1.0000
  H   H8        1.0  0.6582818214323324  0.6872317755088061  0.25404187845033727  1.0000
  H   H9        1.0  0.25404226061907303  0.6582793658180818  0.6872327734531042  1.0000
  H   H10       1.0  0.3127709461019563  0.7459607997443385  0.34171907552196507  1.0000
  H   H11       1.0  0.34171733954998734  0.3127675708083615  0.7459577959658718  1.0000
  H   H12       1.0  0.7459592422000867  0.34172103863571823  0.31276886092602757  1.0000
  H   H13       1.0  0.5605376215726495  0.18670984245575536  0.4013952746721757  1.0000
  H   H14       1.0  0.4013980937375052  0.5605378573699723  0.18670670034760659  1.0000
  H   H15       1.0  0.1867082681956589  0.4013949430270216  0.5605384601086812  1.0000
  H   H16       1.0  0.4394625174255537  0.8132915900606931  0.5986036354843235  1.0000
  H   H17       1.0  0.598601006208888  0.4394594008333639  0.8132922865301567  1.0000
  H   H18       1.0  0.8132918192011046  0.5986044108086475  0.439462385353913  1.0000
  C   C1        1.0  0.25488315955129087  0.039336616862002  0.6449758614883053  1.0000
  C   C2        1.0  0.6449744023544852  0.25488056069936244  0.03933895032170645  1.0000
  C   C3        1.0  0.039337213453272644  0.6449782442386791  0.25488691766850746  1.0000
  C   C4        1.0  0.7451201835174361  0.9606637900513846  0.3550246178575521  1.0000
  C   C5        1.0  0.3550261803398839  0.7451198425246374  0.9606632615740694  1.0000
  C   C6        1.0  0.9606637972131081  0.3550211139711266  0.7451142245589681  1.0000
  C   C7        1.0  0.3495432864537378  0.0814397220842125  0.5835219322170104  1.0000
  C   C8        1.0  0.5835266436355724  0.34954493496089606  0.08144113885828821  1.0000
  C   C9        1.0  0.08143984457698386  0.583523833112423  0.349546144019719  1.0000
  C   C10       1.0  0.6504582069309279  0.9185606729365359  0.41647707931758765  1.0000
  C   C11       1.0  0.4164748591835803  0.6504554694928969  0.9185604955208435  1.0000
  C   C12       1.0  0.9185611629445702  0.41647552195303916  0.6504541239262451  1.0000
  C   C13       1.0  0.4953963948621266  0.15122525470253118  0.6615441004947726  1.0000
  C   C14       1.0  0.6615467494785321  0.49539909573063307  0.15122770832968505  1.0000
  C   C15       1.0  0.15122582080262248  0.6615452909232288  0.4953997409760333  1.0000
  C   C16       1.0  0.5046051048121996  0.8487751466069111  0.3384566596028478  1.0000
  C   C17       1.0  0.3384509992262323  0.504599203112754  0.8487720514514977  1.0000
  C   C18       1.0  0.8487738354773031  0.33845510478227686  0.5046012998733431  1.0000
  C   C19       1.0  0.5735972864672974  0.19450380178095367  0.5980216127050256  1.0000
  C   C20       1.0  0.5980261489823135  0.5735978572764893  0.19450560459786465  1.0000
  C   C21       1.0  0.19450418519706142  0.5980205381303418  0.5735982785130033  1.0000
  C   C22       1.0  0.4264051333318122  0.805496600758289  0.40197856987595765  1.0000
  C   C23       1.0  0.40197436953129545  0.42640045468932897  0.8054950454779475  1.0000
  C   C24       1.0  0.8054954069020965  0.401977766316989  0.42640120051642333  1.0000
  C   C25       1.0  0.5047444147847173  0.15872840907245936  0.4571777265520538  1.0000
  C   C26       1.0  0.4571815949444088  0.5047470252859442  0.15872809549141217  1.0000
  C   C27       1.0  0.15872980228186856  0.4571802701428566  0.5047475469187219  1.0000
  C   C28       1.0  0.4952547336182748  0.8412709246673201  0.5428184507380962  1.0000
  C   C29       1.0  0.542818492452362  0.49525232854971785  0.8412727499711822  1.0000
  C   C30       1.0  0.8412712631307783  0.542821169892086  0.4952525342841696  1.0000
  C   C31       1.0  0.358833532744285  0.080465422059568  0.3846924085526737  1.0000
  C   C32       1.0  0.3846937194115726  0.3588333083283501  0.08046232614930202  1.0000
  C   C33       1.0  0.0804648510865746  0.38469317202395803  0.35883553555027  1.0000
  C   C34       1.0  0.6411670405155903  0.9195349717313873  0.6153071804985545  1.0000
  C   C35       1.0  0.6153063069492646  0.6411639573934806  0.9195378317748536  1.0000
  C   C36       1.0  0.919536217470899  0.615308271155328  0.6411654199341329  1.0000
  C   C37       1.0  0.27660260173902884  0.019556783864530303  0.2279502415869459  1.0000
  C   C38       1.0  0.22795080955059893  0.27660021122066064  0.019551317062372685  1.0000
  C   C39       1.0  0.01955565161654253  0.22795104948278322  0.27660371143620216  1.0000
  C   C40       1.0  0.7233970513960559  0.9804436086966251  0.7720499249809196  1.0000
  C   C41       1.0  0.7720506290877935  0.7233981019749577  0.9804487554968021  1.0000
  C   C42       1.0  0.980444493671321  0.7720503893223664  0.7233969472833194  1.0000
  N   N1        1.0  0.28329176445765114  0.047452689440781605  0.4482509440652579  1.0000
  N   N2        1.0  0.4482529314635357  0.2832928638966692  0.04745114704837762  1.0000
  N   N3        1.0  0.04745199202261572  0.4482527855654368  0.28329371305651563  1.0000
  N   N4        1.0  0.7167097320718412  0.9525477087243175  0.5517489417508517  1.0000
  N   N5        1.0  0.5517480792028522  0.7167064943131364  0.9525499951790977  1.0000
  N   N6        1.0  0.952549076534865  0.5517486576138566  0.7167072424278943  1.0000
  O   O1        1.0  0.2982561060990889  0.0076772640245792  0.7402504520924184  1.0000
  O   O2        1.0  0.7402524402408942  0.298253182274749  0.007675842530652124  1.0000
  O   O3        1.0  0.007680958408798204  0.7402555581855167  0.2982635769801334  1.0000
  O   O4        1.0  0.7017448982776314  0.9923220878965322  0.2597489415720274  1.0000
  O   O5        1.0  0.2597467175965915  0.701746160898075  0.9923229576040457  1.0000
  O   O6        1.0  0.9923206054462883  0.25974693438210755  0.701738744937444  1.0000
  O   O7        1.0  0.1377128379235728  0.03809173258567709  0.5931980984804285  1.0000
  O   O8        1.0  0.5931974806485131  0.1377144421400303  0.03809574607012679  1.0000
  O   O9        1.0  0.0380901586365212  0.5932011835110274  0.13771667996778084  1.0000
  O   O10       1.0  0.8622853966442959  0.9619076062130033  0.4068004048893884  1.0000
  O   O11       1.0  0.4068054470275231  0.8622870223649387  0.9619093000700901  1.0000
  O   O12       1.0  0.9619090054906251  0.4067981659504979  0.8622838687299464  1.0000
  O   O13       1.0  0.3372154069007536  0.07094529680091449  0.1688560994093962  1.0000
  O   O14       1.0  0.16885614940252944  0.33721472218518767  0.0709413970627679  1.0000
  O   O15       1.0  0.07094561413942557  0.16885831498382228  0.337216840197499  1.0000
  O   O16       1.0  0.6627818981078376  0.929054031334928  0.8311403586325172  1.0000
  O   O17       1.0  0.8311420272742468  0.6627825316440122  0.9290572930501213  1.0000
  O   O18       1.0  0.9290544669676777  0.8311410325631456  0.662782256702073  1.0000
  O   O19       1.0  0.15338803044148358  0.9171939887040352  0.16876900423132912  1.0000
  O   O20       1.0  0.16877115916107502  0.1533903200047533  0.9171909188032858  1.0000
  O   O21       1.0  0.9171942564993502  0.16877114179771976  0.1533914337804987  1.0000
  O   O22       1.0  0.846610207271219  0.0828053532389958  0.8312303734199987  1.0000
  O   O23       1.0  0.8312302731876571  0.8466079869021713  0.08280740519286672  1.0000
  O   O24       1.0  0.0828063809412853  0.8312313432514101  0.8466097170906864  1.0000
