data_image0
_chemical_formula_structural       Cd3H26C40S6N16O4
_chemical_formula_sum              "Cd3 H26 C40 S6 N16 O4"
_cell_length_a       11.384050876717282
_cell_length_b       11.686725680001809
_cell_length_c       15.148408052868389
_cell_angle_alpha    94.59519606150938
_cell_angle_beta     108.05403384083837
_cell_angle_gamma    117.30748894691656

_space_group_name_H-M_alt    "P 1"
_space_group_IT_number       1

loop_
  _space_group_symop_operation_xyz
  'x, y, z'

loop_
  _atom_site_type_symbol
  _atom_site_label
  _atom_site_symmetry_multiplicity
  _atom_site_fract_x
  _atom_site_fract_y
  _atom_site_fract_z
  _atom_site_occupancy
  Cd  Cd1       1.0  0.22411900132287602  0.2830033557127224  0.37835362122702787  1.0000
  Cd  Cd2       1.0  0.7758752663723313  0.7169953052209621  0.6216434858320881  1.0000
  Cd  Cd3       1.0  3.4847965793e-06  2.9685616028000003e-06  2.944724002e-07  1.0000
  H   H1        1.0  0.6786690767762663  0.6312009593278135  0.14192812230758287  1.0000
  H   H2        1.0  0.5104755205932605  0.2817827460023921  0.38894940345402074  1.0000
  H   H3        1.0  0.7406173304577521  0.36674605394375004  0.4691407791005774  1.0000
  H   H4        1.0  0.28972384666122514  0.4280533559605858  0.20857976499768682  1.0000
  H   H5        1.0  0.18770116672742887  0.23760629616216994  0.5793835971405201  1.0000
  H   H6        1.0  0.9631546672738979  0.32049008402584184  0.34650136109669927  1.0000
  H   H7        1.0  0.8189038497782023  0.7641696021368604  0.07261398501413643  1.0000
  H   H8        1.0  0.7002510719953038  0.5029124209782693  0.20963775833561024  1.0000
  H   H9        1.0  0.037101011463391786  0.24671636641590314  0.6697154564541564  1.0000
  H   H10       1.0  0.38004005581596095  0.6747594402501634  0.9892174311709284  1.0000
  H   H11       1.0  0.8511084587072232  0.30572108099556067  0.5953438396206323  1.0000
  H   H12       1.0  0.6764475561280676  0.9477004857914578  0.8791516517453462  1.0000
  H   H13       1.0  0.42802400743400426  0.8272762054443492  0.8814798231607526  1.0000
  H   H14       1.0  0.3213313318088993  0.36879372496824203  0.8580728047468682  1.0000
  H   H15       1.0  0.4895180566023285  0.718212961764003  0.6110493658605023  1.0000
  H   H16       1.0  0.2593738203486708  0.6332436298377148  0.5308557887095589  1.0000
  H   H17       1.0  0.7102760411415973  0.571950371908379  0.7914228584323483  1.0000
  H   H18       1.0  0.8122931160730998  0.76238737465534  0.4206139008193475  1.0000
  H   H19       1.0  0.036839062796239844  0.6795025887582683  0.6534959566188265  1.0000
  H   H20       1.0  0.18110673765823998  0.23583007757624588  0.9273915104570065  1.0000
  H   H21       1.0  0.2997480942285477  0.49708832303642936  0.7903651981391207  1.0000
  H   H22       1.0  0.9629002879836717  0.7532882930149398  0.3302848979711611  1.0000
  H   H23       1.0  0.6199644810120405  0.3252361142846497  0.010779860579845027  1.0000
  H   H24       1.0  0.148892809660495  0.6942835477482987  0.4046551855939811  1.0000
  H   H25       1.0  0.3235636777111567  0.0523052894756475  0.12085828530686635  1.0000
  H   H26       1.0  0.5719842607375085  0.1727243801903811  0.11852057280015771  1.0000
  C   C1        1.0  0.5118250422073771  0.34164285586049203  0.3371935418256342  1.0000
  C   C2        1.0  0.4711845119651769  0.6209334108760486  0.4418769693515189  1.0000
  C   C3        1.0  0.6248577154622056  0.39758367307617  0.3063965764495862  1.0000
  C   C4        1.0  0.013111892497747092  0.23029701725859308  0.1550131872276665  1.0000
  C   C5        1.0  0.7513877928959403  0.3781917428043188  0.33645388938951737  1.0000
  C   C6        1.0  0.5960288424102701  0.7079228429737158  0.0398691459702505  1.0000
  C   C7        1.0  0.1244254370612765  0.002753894020081301  0.23962092529519913  1.0000
  C   C8        1.0  0.38564639287917396  0.4202514552566683  0.2353165237060608  1.0000
  C   C9        1.0  0.10187833700245362  0.25889989387435725  0.5493757556630499  1.0000
  C   C10       1.0  0.4666389823340608  0.5468338903370907  0.1218637944968108  1.0000
  C   C11       1.0  0.8934164763127085  0.3204183587722227  0.4654394648312988  1.0000
  C   C12       1.0  0.9774979313265318  0.30755205759867726  0.41863972508010516  1.0000
  C   C13       1.0  0.4929111128661745  0.4785640450852002  0.19910944412180245  1.0000
  C   C14       1.0  0.7292625190355081  0.7760886037965092  0.03182367359360672  1.0000
  C   C15       1.0  0.6136692087818288  0.466190508594984  0.23572687218369032  1.0000
  C   C16       1.0  0.02055337661475682  0.2669106683751893  0.5993217719355499  1.0000
  C   C17       1.0  0.4847378838702382  0.7265122175154132  0.9850592540426462  1.0000
  C   C18       1.0  0.9159493668217351  0.2985444963760174  0.5575511183638114  1.0000
  C   C19       1.0  0.6489840851684505  0.8779777096023553  0.9231334210711426  1.0000
  C   C20       1.0  0.5130546175265067  0.8124641376072861  0.9258013535282573  1.0000
  C   C21       1.0  0.48817112979159555  0.6583558562520437  0.662806641999623  1.0000
  C   C22       1.0  0.5287967233796281  0.3790683717491562  0.5581193254988364  1.0000
  C   C23       1.0  0.37513902480683464  0.6024160524132541  0.6936044522253724  1.0000
  C   C24       1.0  0.986886075027286  0.7697016386283623  0.8449854211262605  1.0000
  C   C25       1.0  0.24861276986683128  0.6218149228884331  0.6635464071797585  1.0000
  C   C26       1.0  0.4039712885486041  0.29206974809704894  0.9601276421357668  1.0000
  C   C27       1.0  0.8755824006094031  0.997247633371643  0.7603767833162608  1.0000
  C   C28       1.0  0.6143509001202574  0.5797492682661557  0.764684685213233  1.0000
  C   C29       1.0  0.8981198615298424  0.7411008092074244  0.45062499782325466  1.0000
  C   C30       1.0  0.5333651735686473  0.45317084586204004  0.8781411750777368  1.0000
  C   C31       1.0  0.10657757591491192  0.6795782703101169  0.5345561617007918  1.0000
  C   C32       1.0  0.022503720923005146  0.6924515833577233  0.5813599936678955  1.0000
  C   C33       1.0  0.5070871322851361  0.5214367040270603  0.8008933031805656  1.0000
  C   C34       1.0  0.2707475161048905  0.2239150833428595  0.9681819153378015  1.0000
  C   C35       1.0  0.3863273626386317  0.533807231073574  0.7642746697803064  1.0000
  C   C36       1.0  0.9794409532391413  0.7330880539324552  0.4006779935449813  1.0000
  C   C37       1.0  0.5152685421562069  0.2734883783144255  0.014940723573531014  1.0000
  C   C38       1.0  0.0840493067425925  0.7014571280217085  0.4424464923400606  1.0000
  C   C39       1.0  0.3510273145628203  0.12202185760875747  0.0768676313348777  1.0000
  C   C40       1.0  0.4869621406601183  0.18754342411696712  0.07420201461020777  1.0000
  S   S1        1.0  0.29851542824038546  0.5620568819082338  0.39597324141692514  1.0000
  S   S2        1.0  0.2029084260069922  0.04255559414410471  0.3569327875350794  1.0000
  S   S3        1.0  0.9655363607963564  0.21252733090366863  0.039621086651557384  1.0000
  S   S4        1.0  0.701465298470879  0.43794076029684714  0.6040167693526115  1.0000
  S   S5        1.0  0.7970988123142816  0.9574448891837407  0.643062747015982  1.0000
  S   S6        1.0  0.03447252269859278  0.7874793195980774  0.9603824216797108  1.0000
  N   N1        1.0  0.07886224991872845  0.27827700943612416  0.4609718829546382  1.0000
  N   N2        1.0  0.3956421180336277  0.35400368585818853  0.3027124557709442  1.0000
  N   N3        1.0  0.5962814825755487  0.661003169967735  0.47314007277430653  1.0000
  N   N4        1.0  0.5856922771997404  0.6276107894815866  0.10400003082929034  1.0000
  N   N5        1.0  0.7874639151543334  0.35204086159072295  0.424451296799873  1.0000
  N   N6        1.0  0.7548869859630188  0.8593881271216831  0.9758928209697261  1.0000
  N   N7        1.0  0.047027705857829  0.24443393181678633  0.23923367675596552  1.0000
  N   N8        1.0  0.06717726263139655  0.9726286725783166  0.15478795320940716  1.0000
  N   N9        1.0  0.9211270898219652  0.721712715227426  0.5390255957214762  1.0000
  N   N10       1.0  0.6043553438143761  0.6459990234854941  0.6972882398593114  1.0000
  N   N11       1.0  0.4036964233694037  0.33899579753077813  0.5268625736571978  1.0000
  N   N12       1.0  0.41430937461544204  0.3723878460151583  0.8959994142140958  1.0000
  N   N13       1.0  0.21252554681591815  0.6479508028632212  0.57554367477114  1.0000
  N   N14       1.0  0.24512496902082148  0.14061562654003276  0.02411650933318301  1.0000
  N   N15       1.0  0.9529745768204592  0.7555707838904696  0.7607695452631377  1.0000
  N   N16       1.0  0.932834825077322  0.027370659382882006  0.8452033392886735  1.0000
  O   O1        1.0  0.3466279351867172  0.5308665391552765  0.07877669368908609  1.0000
  O   O2        1.0  0.8143766242162088  0.38428469108667684  0.2819082217129534  1.0000
  O   O3        1.0  0.6533727959902792  0.46913710689867844  0.9212228158865444  1.0000
  O   O4        1.0  0.1856234013558407  0.6157209919161702  0.7180925592173325  1.0000
