data_image0
_chemical_formula_structural       CuH8C12N2O4
_chemical_formula_sum              "Cu1 H8 C12 N2 O4"
_cell_length_a       5.269427797091016
_cell_length_b       7.886123509142332
_cell_length_c       8.032899394800559
_cell_angle_alpha    62.048107964315975
_cell_angle_beta     70.73260121391584
_cell_angle_gamma    69.60178465526964

_space_group_name_H-M_alt    "P 1"
_space_group_IT_number       1

loop_
  _space_group_symop_operation_xyz
  'x, y, z'

loop_
  _atom_site_type_symbol
  _atom_site_label
  _atom_site_symmetry_multiplicity
  _atom_site_fract_x
  _atom_site_fract_y
  _atom_site_fract_z
  _atom_site_occupancy
  Cu  Cu1       1.0  0.4999908863477673  0.5000009608374397  0.4999959384846593  1.0000
  H   H1        1.0  0.3974695334303321  0.06288681176946648  0.3570756366906664  1.0000
  H   H2        1.0  0.6025246379496212  0.9371167756406888  0.6429355507978158  1.0000
  H   H3        1.0  0.31972232332505973  0.0709935596143509  0.06092803092040105  1.0000
  H   H4        1.0  0.6802974486061117  0.9290056682264165  0.9390786614745823  1.0000
  H   H5        1.0  0.878159665899773  0.2722287758990944  0.9480298023472002  1.0000
  H   H6        1.0  0.1218587684756613  0.7277578247310148  0.05197114998667015  1.0000
  H   H7        1.0  0.5218781621298806  0.46210115972928617  0.14078819525543199  1.0000
  H   H8        1.0  0.4781276025608394  0.5378890324196419  0.8592025496741302  1.0000
  C   C1        1.0  0.01635721007681919  0.2670100623419173  0.5806140520392946  1.0000
  C   C2        1.0  0.9836302421401303  0.7329969726082053  0.4193883076226615  1.0000
  C   C3        1.0  0.0016206876685274305  0.26126725660510886  0.3988370599626593  1.0000
  C   C4        1.0  0.9983698166273816  0.7387369712114805  0.6011633639105655  1.0000
  C   C5        1.0  0.20855637815756015  0.15226158845425175  0.3026254937242571  1.0000
  C   C6        1.0  0.7914429331322169  0.8477393331930898  0.6973807938706715  1.0000
  C   C7        1.0  0.16401905891595456  0.15587182280908254  0.1389231711825403  1.0000
  C   C8        1.0  0.8359922288107315  0.8441231985695907  0.8610831923857706  1.0000
  C   C9        1.0  0.9166182016359912  0.26667733722577214  0.076065301626322  1.0000
  C   C10       1.0  0.08339227547881474  0.7333151623689319  0.9239347824706529  1.0000
  C   C11       1.0  0.7201587389107333  0.3723148482192258  0.1794591892839748  1.0000
  C   C12       1.0  0.27984634804913344  0.6276764631249493  0.8205374614201946  1.0000
  N   N1        1.0  0.7633548814495869  0.36864297317872996  0.3365186477052335  1.0000
  N   N2        1.0  0.23663726482527644  0.6313571869383592  0.6634768987094618  1.0000
  O   O1        1.0  0.7888319532952366  0.3606987627278926  0.6586507820327157  1.0000
  O   O2        1.0  0.21114717405188807  0.6393101041393621  0.34134622806557496  1.0000
  O   O3        1.0  0.2317030847309738  0.1867103598314799  0.6464882216844998  1.0000
  O   O4        1.0  0.7682814747416771  0.8133055206313954  0.35351105302920177  1.0000
