data_image0
_chemical_formula_structural       K4P4H20C30Cl4O18
_chemical_formula_sum              "K4 P4 H20 C30 Cl4 O18"
_cell_length_a       6.882852608449224
_cell_length_b       10.433020083396473
_cell_length_c       15.570554504249666
_cell_angle_alpha    73.16487297023077
_cell_angle_beta     83.21927945369167
_cell_angle_gamma    70.11198981077585

_space_group_name_H-M_alt    "P 1"
_space_group_IT_number       1

loop_
  _space_group_symop_operation_xyz
  'x, y, z'

loop_
  _atom_site_type_symbol
  _atom_site_label
  _atom_site_symmetry_multiplicity
  _atom_site_fract_x
  _atom_site_fract_y
  _atom_site_fract_z
  _atom_site_occupancy
  K   K1        1.0  0.6797258652319371  0.6349132471304985  0.48902857608837996  1.0000
  K   K2        1.0  0.32022457717442887  0.36507253371111403  0.510974528889072  1.0000
  K   K3        1.0  0.2645576576004062  0.9603980890866026  0.5580117884041229  1.0000
  K   K4        1.0  0.735433276337382  0.0395759085349283  0.4419942392097695  1.0000
  P   P1        1.0  0.9263742099602156  0.7355894461642265  0.6516065354375299  1.0000
  P   P2        1.0  0.07358591072203069  0.26441319299387095  0.34839670699935243  1.0000
  P   P3        1.0  0.685644258470056  0.03851329310619891  0.6588116890540192  1.0000
  P   P4        1.0  0.31431746443696074  0.961495653988408  0.3411851205455319  1.0000
  H   H1        1.0  0.9443438530528706  0.44052977370435564  0.8732446736752449  1.0000
  H   H2        1.0  0.05570720308463712  0.5594851194287004  0.12675059902161923  1.0000
  H   H3        1.0  0.032993174231897605  0.21648641142851235  0.9960296241026825  1.0000
  H   H4        1.0  0.9670859009535776  0.7835125009033634  0.003960982483093226  1.0000
  H   H5        1.0  0.146753499286703  0.9853603533459321  0.9587290026992931  1.0000
  H   H6        1.0  0.8533001293234078  0.0146365665380941  0.0412644816461949  1.0000
  H   H7        1.0  0.15364901697456224  0.9771626582979636  0.8005336463421171  1.0000
  H   H8        1.0  0.8463410856393307  0.022851434637580312  0.1994595370582104  1.0000
  H   H9        1.0  0.05856576660914215  0.20052390609627224  0.6784409224916741  1.0000
  H   H10       1.0  0.9413822916631392  0.7994924886197553  0.3215544549806495  1.0000
  H   H11       1.0  0.39361294346809217  0.5185532733906228  0.7480503637245377  1.0000
  H   H12       1.0  0.6064166401661241  0.4814438329063366  0.2519667060418128  1.0000
  H   H13       1.0  0.2957782886734466  0.5941860568761045  0.8891071405278337  1.0000
  H   H14       1.0  0.7043011302199742  0.4058266609496783  0.1109051893404001  1.0000
  H   H15       1.0  0.3554913698679059  0.4125717291636519  0.037324875266541796  1.0000
  H   H16       1.0  0.6445599658061096  0.5874168018026469  0.9626831840275399  1.0000
  H   H17       1.0  0.5126310285116487  0.1586985416087927  0.04380131839750592  1.0000
  H   H18       1.0  0.4873897046162696  0.8412932684022395  0.9562004955620012  1.0000
  H   H19       1.0  0.612768585669933  0.08333982564399631  0.9018345322775116  1.0000
  H   H20       1.0  0.3872111013406894  0.9166680011156532  0.09816613666637855  1.0000
  C   C1        1.0  0.7456277977904548  0.8471108373414397  0.7256363782043493  1.0000
  C   C2        1.0  0.25432794604041226  0.15290765191306835  0.27436336791971877  1.0000
  C   C3        1.0  0.9641713278316357  0.4621553263376796  0.6934701319952978  1.0000
  C   C4        1.0  0.03581443988279176  0.5378461108746038  0.306523132929115  1.0000
  C   C5        1.0  0.0009594738398562596  0.3334208657629246  0.7685694195331365  1.0000
  C   C6        1.0  0.9990356655702898  0.6665889623184924  0.23141856808131672  1.0000
  C   C7        1.0  0.9891357008991548  0.338649227932038  0.8582301545481243  1.0000
  C   C8        1.0  0.010907601617034919  0.661360413407664  0.14176393174221144  1.0000
  C   C9        1.0  0.03948973320127891  0.21328044476765484  0.9263856424523806  1.0000
  C   C10       1.0  0.960575527240053  0.786729102615766  0.0736087038843038  1.0000
  C   C11       1.0  0.10252863000481229  0.08337651290840851  0.9053552611616806  1.0000
  C   C12       1.0  0.897490404103337  0.9166289927208239  0.09463435365577764  1.0000
  C   C13       1.0  0.10858532919286291  0.07825887021031261  0.8164811986366728  1.0000
  C   C14       1.0  0.8914155729869789  0.9217477789656102  0.18351098308517777  1.0000
  C   C15       1.0  0.0571053383584257  0.20307909593946502  0.7479239534565848  1.0000
  C   C16       1.0  0.9428686352970743  0.7969287362225899  0.2520712052510205  1.0000
  C   C17       1.0  0.5580818399635632  0.2563603833302893  0.7310351931942094  1.0000
  C   C18       1.0  0.44189305918936145  0.7436421738471779  0.26896286739962966  1.0000
  C   C19       1.0  0.5096932910275597  0.2966867449710052  0.8166605999672853  1.0000
  C   C20       1.0  0.4903107091415039  0.7033062112981696  0.18334628304921813  1.0000
  C   C21       1.0  0.42180347296351073  0.4408131546266673  0.8131499760639966  1.0000
  C   C22       1.0  0.5782223518037599  0.5591828927951921  0.1868616962521088  1.0000
  C   C23       1.0  0.36663927301334803  0.4822985280571289  0.8923149418707721  1.0000
  C   C24       1.0  0.6334038075993859  0.5176984772995397  0.10768994552581995  1.0000
  C   C25       1.0  0.3996297411317398  0.3805748941112698  0.9751861005087504  1.0000
  C   C26       1.0  0.6004299185991046  0.6194114862591039  0.02482133669187187  1.0000
  C   C27       1.0  0.48923007229473103  0.23719274611121224  0.9788892075905266  1.0000
  C   C28       1.0  0.5107967786647832  0.7627980123990171  0.021121510862577977  1.0000
  C   C29       1.0  0.5442281084001763  0.19481320301382257  0.8999511085336991  1.0000
  C   C30       1.0  0.4557680598322305  0.8051935123052943  0.10005413072629925  1.0000
  Cl  Cl1       1.0  0.5148042808613128  0.7996364370775453  0.7518174151296719  1.0000
  Cl  Cl2       1.0  0.48518948737883244  0.20034706094325833  0.24819049630250586  1.0000
  Cl  Cl3       1.0  0.8683118226509449  0.8158804117602116  0.8288514436339296  1.0000
  Cl  Cl4       1.0  0.1316740112605288  0.1841178496278104  0.17113986253671234  1.0000
  O   O1        1.0  0.7928419076581503  0.7932000275798359  0.5702575772260372  1.0000
  O   O2        1.0  0.2071285391180098  0.20678989012258603  0.4297450632659972  1.0000
  O   O3        1.0  0.1341965483996789  0.7562625640741132  0.6794638953873003  1.0000
  O   O4        1.0  0.865773086625019  0.2437199462064044  0.32053379182728037  1.0000
  O   O5        1.0  0.9141559148770495  0.5821622577903298  0.720578288163189  1.0000
  O   O6        1.0  0.08580968250853968  0.4178413988520263  0.2794206440039416  1.0000
  O   O7        1.0  0.9785003113280697  0.4629347341479503  0.6136391739521939  1.0000
  O   O8        1.0  0.021473676311401818  0.5370635960742192  0.3863571773677137  1.0000
  O   O9        1.0  0.4985276699824084  0.08552554553719462  0.6024230025878622  1.0000
  O   O10       1.0  0.5014122262922529  0.9144666538562022  0.3975902819492487  1.0000
  O   O11       1.0  0.8836430635772102  0.056665623927550327  0.6153103419986438  1.0000
  O   O12       1.0  0.11632779996221389  0.94331473612683  0.38467806810872657  1.0000
  O   O13       1.0  0.6205421429044761  0.11354137139795031  0.7438375081823307  1.0000
  O   O14       1.0  0.37944994216552885  0.8864526533803104  0.2561581732286483  1.0000
  O   O15       1.0  0.5413886156729645  0.3407460866459716  0.6562270636699947  1.0000
  O   O16       1.0  0.4585818180520605  0.6592564995359141  0.3437737724640185  1.0000
  O   O17       1.0  0.8296341568607557  0.3304720885658413  0.39089161422924684  1.0000
  O   O18       1.0  0.17033704962227608  0.6695262339122509  0.6090990901605835  1.0000
