data_image0
_chemical_formula_structural       Li4H8C8O12
_chemical_formula_sum              "Li4 H8 C8 O12"
_cell_length_a       7.077672541356545
_cell_length_b       7.273437296253423
_cell_length_c       7.563837133021509
_cell_angle_alpha    96.82172397290671
_cell_angle_beta     94.54427187920895
_cell_angle_gamma    115.02344224345914

_space_group_name_H-M_alt    "P 1"
_space_group_IT_number       1

loop_
  _space_group_symop_operation_xyz
  'x, y, z'

loop_
  _atom_site_type_symbol
  _atom_site_label
  _atom_site_symmetry_multiplicity
  _atom_site_fract_x
  _atom_site_fract_y
  _atom_site_fract_z
  _atom_site_occupancy
  Li  Li1       1.0  0.11260952869834276  0.49880501886104855  0.7722966749776247  1.0000
  Li  Li2       1.0  0.8873892104477151  0.5011958655473308  0.22770741068585912  1.0000
  Li  Li3       1.0  0.8234064223119688  0.1005936552787361  0.9422266263114594  1.0000
  Li  Li4       1.0  0.17659303580906288  0.8994056758745543  0.057773371825661016  1.0000
  H   H1        1.0  0.40898549330665895  0.7390934932547706  0.9657697292147203  1.0000
  H   H2        1.0  0.5910160614819233  0.2609073765755667  0.0342292693891437  1.0000
  H   H3        1.0  0.9058257853077548  0.678580607742873  0.7418217257169883  1.0000
  H   H4        1.0  0.09417713495363245  0.32142334067894757  0.25817771432096487  1.0000
  H   H5        1.0  0.7755956860333342  0.47183877841673194  0.5964440932216987  1.0000
  H   H6        1.0  0.22440230969819205  0.5281636325654376  0.4035587868501052  1.0000
  H   H7        1.0  0.2661356189885284  0.6052158197255154  0.10907614059178168  1.0000
  H   H8        1.0  0.7338673134926382  0.3947881420369512  0.8909259460051969  1.0000
  C   C1        1.0  0.5068790340735134  0.7616954306150279  0.6612444782810342  1.0000
  C   C2        1.0  0.4931169619071626  0.23829928326973257  0.338756077955253  1.0000
  C   C3        1.0  0.8669325332228368  0.9033969597081679  0.25196643249172007  1.0000
  C   C4        1.0  0.13306976498027723  0.09660238354837251  0.7480337717038309  1.0000
  C   C5        1.0  0.6329881105167843  0.8226521330268355  0.5180262871357967  1.0000
  C   C6        1.0  0.3670036982386762  0.17733951017416413  0.4819775914465153  1.0000
  C   C7        1.0  0.7391319939365035  0.8594253388824669  0.3960098603088296  1.0000
  C   C8        1.0  0.2608695970906539  0.1405724383970295  0.6039848300516226  1.0000
  O   O1        1.0  0.8920224844806698  0.061972772633772884  0.18414622424752022  1.0000
  O   O2        1.0  0.107979027959459  0.9380311830770651  0.8158557593202359  1.0000
  O   O3        1.0  0.31866013018737505  0.6230436694091993  0.6150157986524789  1.0000
  O   O4        1.0  0.6813343789642377  0.37695409762314114  0.38498234640043444  1.0000
  O   O5        1.0  0.2679052786980948  0.6798613552208082  0.0066165801925209084  1.0000
  O   O6        1.0  0.7320962883102737  0.3201395279501682  0.9933850649703684  1.0000
  O   O7        1.0  0.9455429400317285  0.7802698440462378  0.20362702414577427  1.0000
  O   O8        1.0  0.054459364281278504  0.219729505880629  0.7963745033292964  1.0000
  O   O9        1.0  0.5924858633585688  0.8461115889986107  0.8220857412480311  1.0000
  O   O10       1.0  0.40751780031735063  0.1538908328494202  0.17791490438160196  1.0000
  O   O11       1.0  0.8501386600442017  0.5271943892273967  0.7235398609662622  1.0000
  O   O12       1.0  0.14986216354963494  0.4728080205173767  0.27646057860494005  1.0000
