data_image0
_chemical_formula_structural       Cd2H18C28N2O10
_chemical_formula_sum              "Cd2 H18 C28 N2 O10"
_cell_length_a       6.788843542887299
_cell_length_b       7.626363098997311
_cell_length_c       11.948074212248963
_cell_angle_alpha    102.2926088392991
_cell_angle_beta     93.85103936756265
_cell_angle_gamma    104.67973242360287

_space_group_name_H-M_alt    "P 1"
_space_group_IT_number       1

loop_
  _space_group_symop_operation_xyz
  'x, y, z'

loop_
  _atom_site_type_symbol
  _atom_site_label
  _atom_site_symmetry_multiplicity
  _atom_site_fract_x
  _atom_site_fract_y
  _atom_site_fract_z
  _atom_site_occupancy
  Cd  Cd1       1.0  0.20794556319591348  0.07707956432738432  0.1278500171379591  1.0000
  Cd  Cd2       1.0  0.7920516364920189  0.9229219114594683  0.872147840948422  1.0000
  H   H1        1.0  0.17719730347738505  0.2974832803796588  0.9719845076277879  1.0000
  H   H2        1.0  0.8228044027168337  0.7025182011834802  0.02801513085032073  1.0000
  H   H3        1.0  0.21673396188765545  0.5774390336038024  0.08093471521809903  1.0000
  H   H4        1.0  0.7832703583837599  0.4225610511945845  0.91906645813728  1.0000
  H   H5        1.0  0.4818359098122116  0.5991970068122755  0.08744762714040631  1.0000
  H   H6        1.0  0.5181668597587503  0.4008030860313028  0.9125518367126944  1.0000
  H   H7        1.0  0.47362538343487876  0.8147436744900817  0.2801896594094232  1.0000
  H   H8        1.0  0.526385226575634  0.18525784105951001  0.719811028765804  1.0000
  H   H9        1.0  0.4259174286869369  0.8342975127686217  0.4864332203186734  1.0000
  H   H10       1.0  0.5740910545700971  0.1657067802200913  0.5135678171065763  1.0000
  H   H11       1.0  0.1822035372665027  0.23326083391438598  0.3955658389793868  1.0000
  H   H12       1.0  0.8177839677435728  0.7667321961471883  0.6044347666088896  1.0000
  H   H13       1.0  0.38155169376083364  0.8384723104956677  0.6458378007232639  1.0000
  H   H14       1.0  0.6184507322894534  0.16153198476194316  0.35415974680797296  1.0000
  H   H15       1.0  0.11871800091773108  0.5602030796425054  0.8970370987898876  1.0000
  H   H16       1.0  0.8812921945665979  0.4397970402767797  0.10296337931560373  1.0000
  H   H17       1.0  0.09505870795893401  0.24166316001679897  0.5523129383100098  1.0000
  H   H18       1.0  0.9049375739473291  0.7583396745777763  0.44768844251650114  1.0000
  C   C1        1.0  0.335788803887894  0.5112464119315376  0.1034813718264473  1.0000
  C   C2        1.0  0.6642123990508468  0.4887578240696229  0.8965219994615197  1.0000
  C   C3        1.0  0.34009653671203216  0.5178785586542034  0.23021518482168096  1.0000
  C   C4        1.0  0.6599043040310519  0.48212013912629464  0.7697831964881843  1.0000
  C   C5        1.0  0.4074588742865544  0.6900941934334598  0.3105362354345474  1.0000
  C   C6        1.0  0.5925425265777874  0.3099058700654993  0.6894657040601687  1.0000
  C   C7        1.0  0.3793678952305513  0.6990075662062836  0.42501446658221914  1.0000
  C   C8        1.0  0.6206354344616613  0.30099389235574847  0.5749885554557252  1.0000
  C   C9        1.0  0.2882897059974567  0.5361603039795142  0.46074388691524604  1.0000
  C   C10       1.0  0.7117060885850891  0.46384114994068426  0.5392556097839646  1.0000
  C   C11       1.0  0.24247549260469736  0.36835009136916613  0.37611476963272145  1.0000
  C   C12       1.0  0.7575204999034497  0.631647190048831  0.623883295273238  1.0000
  C   C13       1.0  0.24468124959471285  0.539854962715758  0.5808944277137372  1.0000
  C   C14       1.0  0.7553193381490216  0.4601381744101971  0.41910147470436243  1.0000
  C   C15       1.0  0.30056039247932625  0.7084457113793617  0.6658275568426575  1.0000
  C   C16       1.0  0.6994356000288205  0.29155157003862797  0.3341705080633091  1.0000
  C   C17       1.0  0.2527784825974281  0.7160836856216832  0.778146513641019  1.0000
  C   C18       1.0  0.7472209894390434  0.2839149828141957  0.22185434331046147  1.0000
  C   C19       1.0  0.15572969400179204  0.552648750432148  0.809324595836472  1.0000
  C   C20       1.0  0.8442740502166045  0.4473541037601834  0.19067863627120832  1.0000
  C   C21       1.0  0.10394095104798852  0.38200498550914835  0.7276708071687281  1.0000
  C   C22       1.0  0.8960650273281558  0.618000681810436  0.27233120646558723  1.0000
  C   C23       1.0  0.144927954108276  0.37687369210701144  0.6139684763198829  1.0000
  C   C24       1.0  0.8550689038510058  0.6231263730936193  0.3860308457543199  1.0000
  C   C25       1.0  0.3060553219617859  0.8991165784079558  0.8661243048142708  1.0000
  C   C26       1.0  0.6939437701552436  0.10088629991992801  0.1338737987865599  1.0000
  C   C27       1.0  0.995472823925482  0.20661770454868392  0.7603233987126643  1.0000
  C   C28       1.0  0.004523619507615692  0.7933809650216473  0.2396757132918168  1.0000
  N   N1        1.0  0.26704983673098337  0.35987267609493767  0.2645760173549689  1.0000
  N   N2        1.0  0.7329474170795081  0.6401190441012828  0.7354204411327387  1.0000
  O   O1        1.0  0.2953939158187495  0.32625562083077153  0.034448862828490724  1.0000
  O   O2        1.0  0.7046060781481885  0.6737500338017952  0.9655513349693623  1.0000
  O   O3        1.0  0.48191068970427153  0.011903178394753399  0.8723855197220162  1.0000
  O   O4        1.0  0.518089989511985  0.9880996844099883  0.12761513040988606  1.0000
  O   O5        1.0  0.1662370979006695  0.9274958113227355  0.9289227999448572  1.0000
  O   O6        1.0  0.8337614722858999  0.07250008080846732  0.0710759628096014  1.0000
  O   O7        1.0  0.920218181979422  0.057515395775709514  0.6848578955211693  1.0000
  O   O8        1.0  0.07977925203287838  0.9424819000309765  0.31513936780073953  1.0000
  O   O9        1.0  0.9787581699830383  0.2192208591740581  0.8694453618847364  1.0000
  O   O10       1.0  0.021246186687143634  0.780779218146364  0.13055664849942872  1.0000
