data_image0
_chemical_formula_structural       Yb2CuH18C22N2O18
_chemical_formula_sum              "Yb2 Cu1 H18 C22 N2 O18"
_cell_length_a       6.583896539902748
_cell_length_b       7.951019160771259
_cell_length_c       13.053972935755997
_cell_angle_alpha    101.22112318982506
_cell_angle_beta     92.18221189283646
_cell_angle_gamma    102.38692051775601

_space_group_name_H-M_alt    "P 1"
_space_group_IT_number       1

loop_
  _space_group_symop_operation_xyz
  'x, y, z'

loop_
  _atom_site_type_symbol
  _atom_site_label
  _atom_site_symmetry_multiplicity
  _atom_site_fract_x
  _atom_site_fract_y
  _atom_site_fract_z
  _atom_site_occupancy
  Yb  Yb1       1.0  0.5605189197521484  0.9291129068205137  0.35295816685226106  1.0000
  Yb  Yb2       1.0  0.4394823496439459  0.07088518616026818  0.6470433454785862  1.0000
  Cu  Cu1       1.0  0.999998413978496  0.500003084329748  0.9999991463755225  1.0000
  H   H1        1.0  0.16016219844397733  0.7974736401062116  0.4255998809424852  1.0000
  H   H2        1.0  0.8398403564317009  0.20252388496983542  0.574400072265732  1.0000
  H   H3        1.0  0.10082381869526809  0.7271996823070239  0.3007050181759681  1.0000
  H   H4        1.0  0.89917429023177  0.2727981083400977  0.6992956943254143  1.0000
  H   H5        1.0  0.6722292985592377  0.24619113478896532  0.17066574099826679  1.0000
  H   H6        1.0  0.32776538734705707  0.7538061999493735  0.8293302449393565  1.0000
  H   H7        1.0  0.3724262357223297  0.0277936286254246  0.0648127193576045  1.0000
  H   H8        1.0  0.6275740593157622  0.9722087128673423  0.9351793295291486  1.0000
  H   H9        1.0  0.08314852451928803  0.13951690159386493  0.985862780180419  1.0000
  H   H10       1.0  0.9168536187605554  0.8604867318194279  0.014129268154007904  1.0000
  H   H11       1.0  0.37383832745443624  0.4880889283031776  0.4332887374417426  1.0000
  H   H12       1.0  0.6261638316620619  0.5119123090708655  0.5667143247998254  1.0000
  H   H13       1.0  0.20941339747852078  0.37502169101279736  0.5155152800395868  1.0000
  H   H14       1.0  0.790591477246835  0.6249782764982682  0.4844878070760786  1.0000
  H   H15       1.0  0.011526915407571834  0.44923349819050157  0.3652855606025298  1.0000
  H   H16       1.0  0.9884747076944723  0.5507654576761567  0.6347183025731482  1.0000
  H   H17       1.0  0.14186666854920565  0.3245508066926491  0.274206601400536  1.0000
  H   H18       1.0  0.8581348366508553  0.6754478615453864  0.7257964781602056  1.0000
  C   C1        1.0  0.3723299406465089  0.5198971105603221  0.11466745277576962  1.0000
  C   C2        1.0  0.6276677190259008  0.48010523574905045  0.8853316497501355  1.0000
  C   C3        1.0  0.5418874194051784  0.4703602858483151  0.15924149612041563  1.0000
  C   C4        1.0  0.45811078067612243  0.5296382141095606  0.8407576404915035  1.0000
  C   C5        1.0  0.5428946912292931  0.2904705401685135  0.1382406948670862  1.0000
  C   C6        1.0  0.4571022877789588  0.7095296586869749  0.8617560654735712  1.0000
  C   C7        1.0  0.3775592946666393  0.16802505021289696  0.0779371443323527  1.0000
  C   C8        1.0  0.6224390609754382  0.8319752900486037  0.9220564809962043  1.0000
  C   C9        1.0  0.21524163602556715  0.22696524648008415  0.03585286845630261  1.0000
  C   C10       1.0  0.7847576093369143  0.7730382381746779  0.9641423067829679  1.0000
  C   C11       1.0  0.3457698619107532  0.7049437658312243  0.12007276677853441  1.0000
  C   C12       1.0  0.6542336738395776  0.29505761294883115  0.879927160450933  1.0000
  C   C13       1.0  0.7233188358213313  0.5951422841916453  0.22917528151511854  1.0000
  C   C14       1.0  0.27667599473466714  0.4048549164931928  0.7708238475418697  1.0000
  C   C15       1.0  0.3779759003554802  0.21801018728409358  0.4152898129906433  1.0000
  C   C16       1.0  0.6220258139008193  0.7819894778933189  0.5847124742955644  1.0000
  C   C17       1.0  0.2631229777017552  0.3645564304316479  0.43659531000081137  1.0000
  C   C18       1.0  0.7368804936420406  0.6354438173555296  0.5634085526225406  1.0000
  C   C19       1.0  0.08431875735803367  0.33541189448625636  0.3522883858777988  1.0000
  C   C20       1.0  0.9156829836459938  0.6645873490090323  0.6477162609128229  1.0000
  C   C21       1.0  0.9153058070806782  0.174358918279097  0.3522533244860924  1.0000
  C   C22       1.0  0.08469701034668016  0.8256387603720726  0.647750555456426  1.0000
  N   N1        1.0  0.21595523091341562  0.3986462327102841  0.053957833641405314  1.0000
  N   N2        1.0  0.7840454445783467  0.6013565499862422  0.9460389255946  1.0000
  O   O1        1.0  0.21756103411571806  0.7852603103588222  0.355922480918487  1.0000
  O   O2        1.0  0.7824389230530787  0.2147387722088183  0.6440782310305764  1.0000
  O   O3        1.0  0.2003975672920646  0.7231188908741685  0.05783709888802951  1.0000
  O   O4        1.0  0.7996041425698055  0.27688690216211853  0.942164353378054  1.0000
  O   O5        1.0  0.4644047098576536  0.8335598604658186  0.18072660593098533  1.0000
  O   O6        1.0  0.5356001381199748  0.16644052872737095  0.819274121680266  1.0000
  O   O7        1.0  0.9044408832417121  0.5910439777630145  0.2035594871241031  1.0000
  O   O8        1.0  0.09555635831822684  0.4089563746675965  0.7964411999508558  1.0000
  O   O9        1.0  0.6813291463505992  0.687866167581312  0.31413107426887876  1.0000
  O   O10       1.0  0.31866505703668946  0.3121280422854015  0.6858704316116901  1.0000
  O   O11       1.0  0.4250073759418458  0.14155008369764494  0.4883309940692159  1.0000
  O   O12       1.0  0.5749856331201286  0.8584454033845501  0.5116704950445055  1.0000
  O   O13       1.0  0.42721614160576143  0.1661340452677607  0.32361396989963964  1.0000
  O   O14       1.0  0.5727930835195422  0.833871075220351  0.6763890987922069  1.0000
  O   O15       1.0  0.827360793499331  0.0759768509815828  0.2665767562637811  1.0000
  O   O16       1.0  0.17264136561716006  0.9240243863924534  0.7334263059777869  1.0000
  O   O17       1.0  0.8526876358046283  0.13811360650391447  0.43966438028380866  1.0000
  O   O18       1.0  0.14731614014409178  0.8618822196745126  0.5603379491956701  1.0000
