data_image0
_chemical_formula_structural       Cu4H16C28N12O2
_chemical_formula_sum              "Cu4 H16 C28 N12 O2"
_cell_length_a       9.250089908633957
_cell_length_b       9.249955676560178
_cell_length_c       9.434001909352611
_cell_angle_alpha    100.66735425692114
_cell_angle_beta     100.67000076435744
_cell_angle_gamma    115.98961348180929

_space_group_name_H-M_alt    "P 1"
_space_group_IT_number       1

loop_
  _space_group_symop_operation_xyz
  'x, y, z'

loop_
  _atom_site_type_symbol
  _atom_site_label
  _atom_site_symmetry_multiplicity
  _atom_site_fract_x
  _atom_site_fract_y
  _atom_site_fract_z
  _atom_site_occupancy
  Cu  Cu1       1.0  0.24454853397153906  0.15390928395974873  0.1533419085196499  1.0000
  Cu  Cu2       1.0  0.8460764382393932  0.7554193446942605  0.3466531579895288  1.0000
  Cu  Cu3       1.0  0.7554463336838425  0.8460851369205857  0.8466596796896723  1.0000
  Cu  Cu4       1.0  0.1539207999259062  0.2445776186238291  0.653352482230666  1.0000
  H   H1        1.0  0.06087399801501894  0.7636136303240092  0.04549123403905497  1.0000
  H   H2        1.0  0.2363711553357319  0.9391231547704352  0.45450611948967173  1.0000
  H   H3        1.0  0.9391242823247338  0.23638327148395896  0.9545082200429107  1.0000
  H   H4        1.0  0.7636250642874244  0.060876273510672305  0.5454912971334309  1.0000
  H   H5        1.0  0.14286722527371148  0.5349279256805701  0.019665488856638477  1.0000
  H   H6        1.0  0.465067916851325  0.8571460258332237  0.4803312636646452  1.0000
  H   H7        1.0  0.8571360554067837  0.4650701992020458  0.9803340097269383  1.0000
  H   H8        1.0  0.53493187487922  0.1428584223482972  0.5196655577281817  1.0000
  H   H9        1.0  0.4492482660067339  0.6178247843787477  0.0983605150816302  1.0000
  H   H10       1.0  0.38217556700906385  0.5507657661404438  0.4016392474784992  1.0000
  H   H11       1.0  0.5507585958338552  0.3821783694389466  0.901639451513823  1.0000
  H   H12       1.0  0.6178227094868092  0.44924001217134457  0.5983639012226476  1.0000
  H   H13       1.0  0.6629747741131381  0.9241798119777369  0.1963724675496933  1.0000
  H   H14       1.0  0.07582237110376155  0.3370260159428255  0.3036273337555854  1.0000
  H   H15       1.0  0.33702723775701326  0.07582464870343132  0.8036279301990774  1.0000
  H   H16       1.0  0.9241814007423699  0.6629708583889666  0.696374150142212  1.0000
  C   C1        1.0  0.1926029335278371  0.7931578058040073  0.07656806192346007  1.0000
  C   C2        1.0  0.20684143428851332  0.8074076460117608  0.4234302806544433  1.0000
  C   C3        1.0  0.807398804759849  0.20684162210489626  0.9234345742419521  1.0000
  C   C4        1.0  0.7931591712975816  0.1925917530606753  0.5765679092275988  1.0000
  C   C5        1.0  0.23886168406843206  0.667515591352867  0.06298304040773665  1.0000
  C   C6        1.0  0.3324812726129096  0.7611387747609654  0.4370139435212436  1.0000
  C   C7        1.0  0.76113908094068  0.3324863466923489  0.9370166883713792  1.0000
  C   C8        1.0  0.6675194742907777  0.2388631452149355  0.562983658773561  1.0000
  C   C9        1.0  0.40930895150831487  0.7130405093999171  0.10687470868526104  1.0000
  C   C10       1.0  0.286962916940766  0.5907012706768101  0.39312386779597835  1.0000
  C   C11       1.0  0.5906912081757056  0.28696018539663726  0.8931268120933495  1.0000
  C   C12       1.0  0.7130356460341645  0.4093006729380804  0.6068744111115194  1.0000
  C   C13       1.0  0.52882801522081  0.8837415476586867  0.1621286673747234  1.0000
  C   C14       1.0  0.11625436176694848  0.4711700186528418  0.3378683894698185  1.0000
  C   C15       1.0  0.4711737049614442  0.1162578621809018  0.8378718423063701  1.0000
  C   C16       1.0  0.8837484277479035  0.528829356780598  0.6621291237995308  1.0000
  C   C17       1.0  0.4719197166098467  0.0013151574805619006  0.1689122646325742  1.0000
  C   C18       1.0  0.998682898710541  0.5280755053252548  0.33108711115880135  1.0000
  C   C19       1.0  0.5280793194253022  0.9986855175141899  0.8310858731048257  1.0000
  C   C20       1.0  0.0013169330747260224  0.47192010249109023  0.6689102685834882  1.0000
  C   C21       1.0  0.5872246214648414  0.1808604538834331  0.2162467633858469  1.0000
  C   C22       1.0  0.8191373442177649  0.4127680537268644  0.28374848510915734  1.0000
  C   C23       1.0  0.41277377303435964  0.8191389417240202  0.7837489133824036  1.0000
  C   C24       1.0  0.18086309289259364  0.5872287973381349  0.7162471026336448  1.0000
  C   C25       1.0  0.19375016569188114  0.19908060182139306  0.9721020822907319  1.0000
  C   C26       1.0  0.8009041572852951  0.806245537659585  0.5279170927341993  1.0000
  C   C27       1.0  0.8062507768456796  0.8009238932659173  0.027901311869783153  1.0000
  C   C28       1.0  0.19909432774103658  0.1937539482944572  0.4720892164556503  1.0000
  N   N1        1.0  0.3062771050278385  0.9583298351419386  0.12804910123600874  1.0000
  N   N2        1.0  0.0416636152819052  0.6937112441784735  0.3719504788999117  1.0000
  N   N3        1.0  0.6937247745774399  0.04167211367042971  0.8719529473421659  1.0000
  N   N4        1.0  0.9583363487682418  0.3062868755066646  0.6280452500129812  1.0000
  N   N5        1.0  0.5479956962295206  0.302037502346387  0.2285952669253746  1.0000
  N   N6        1.0  0.6979583086918949  0.45199971449263626  0.2714080055919296  1.0000
  N   N7        1.0  0.4520050959377357  0.6979644628028085  0.7714076515802262  1.0000
  N   N8        1.0  0.30204622790235186  0.5480009420605895  0.7285932252034542  1.0000
  N   N9        1.0  0.17806758432443806  0.2181755221414718  0.8509763619740979  1.0000
  N   N10       1.0  0.7818278446697348  0.8219406196949066  0.649025256172031  1.0000
  N   N11       1.0  0.8219322436169563  0.7818289621786861  0.1490247123873658  1.0000
  N   N12       1.0  0.21816687782418137  0.17806015678579  0.35098061424371  1.0000
  O   O1        1.0  0.7576313639915992  0.2423597239924078  0.24999339731267867  1.0000
  O   O2        1.0  0.24236624765406137  0.7576358713242969  0.75000040607366  1.0000
