data_image0
_chemical_formula_structural       Co3H66C60N6O24
_chemical_formula_sum              "Co3 H66 C60 N6 O24"
_cell_length_a       8.292407597138121
_cell_length_b       17.46599328261295
_cell_length_c       17.46345131446836
_cell_angle_alpha    119.99431579196832
_cell_angle_beta     89.9990619462039
_cell_angle_gamma    89.983883138522

_space_group_name_H-M_alt    "P 1"
_space_group_IT_number       1

loop_
  _space_group_symop_operation_xyz
  'x, y, z'

loop_
  _atom_site_type_symbol
  _atom_site_label
  _atom_site_symmetry_multiplicity
  _atom_site_fract_x
  _atom_site_fract_y
  _atom_site_fract_z
  _atom_site_occupancy
  Co  Co1       1.0  0.9999900492686822  3.3489586925253698e-06  0.5267097502867841  1.0000
  Co  Co2       1.0  0.3333462266680911  0.5266581768695106  3.177347970669311e-06  1.0000
  Co  Co3       1.0  0.666671356974348  0.4733499109310983  0.47334970522771874  1.0000
  H   H1        1.0  0.176352680761994  0.5625989413584875  0.14052125113309447  1.0000
  H   H2        1.0  0.5102124697458024  0.5780437409443024  0.4374941670376416  1.0000
  H   H3        1.0  0.8430483460129568  0.8596252373909365  0.4219375157062972  1.0000
  H   H4        1.0  0.4897668540960682  0.4219362326880115  0.8594543415498705  1.0000
  H   H5        1.0  0.1569809585759216  0.14039025511945616  0.5623391898959298  1.0000
  H   H6        1.0  0.8236233031647018  0.4374287223534805  0.5779184582143841  1.0000
  H   H7        1.0  0.0034667472503287  0.7614049964840177  0.30588892293296527  1.0000
  H   H8        1.0  0.3373443771095523  0.5444259703934974  0.23842418047030395  1.0000
  H   H9        1.0  0.6703209568668885  0.6940923940851461  0.4554377983778366  1.0000
  H   H10       1.0  0.6626231175387507  0.4555638785865027  0.694003668949982  1.0000
  H   H11       1.0  0.3296959160317102  0.30590822733454087  0.7613454349490993  1.0000
  H   H12       1.0  0.9965395377352383  0.23859617683734777  0.5444692913002812  1.0000
  H   H13       1.0  0.21727871215453837  0.8050207801961874  0.10653785404209534  1.0000
  H   H14       1.0  0.5516556850807177  0.3015919487189436  0.19483310909200213  1.0000
  H   H15       1.0  0.8843308564923903  0.8933522648563539  0.6982758436285083  1.0000
  H   H16       1.0  0.4483308363338098  0.6984181511138629  0.893247274663807  1.0000
  H   H17       1.0  0.11565456880912711  0.10663674723814147  0.8049225449506067  1.0000
  H   H18       1.0  0.7827182921213024  0.1949684745743028  0.3015120169469583  1.0000
  H   H19       1.0  0.3097193545716195  0.9712398789253952  0.41562619123058653  1.0000
  H   H20       1.0  0.6431030186388682  0.44423861701641704  0.028707987520149993  1.0000
  H   H21       1.0  0.9762771279132495  0.5844683573726499  0.5557952214164814  1.0000
  H   H22       1.0  0.3568976965920854  0.555753566541881  0.5844503508633493  1.0000
  H   H23       1.0  0.023704266074346902  0.41553003296244384  0.971320014134804  1.0000
  H   H24       1.0  0.6902819376577514  0.02877252820866962  0.4443877062917493  1.0000
  H   H25       1.0  0.1376351658214574  0.9643319305100561  0.19410219805803322  1.0000
  H   H26       1.0  0.47155367103840035  0.22974879633633802  0.03562137113412696  1.0000
  H   H27       1.0  0.8044113550477053  0.8060161167598707  0.7701999723134492  1.0000
  H   H28       1.0  0.5284648281066994  0.7702435997349184  0.8058631867142197  1.0000
  H   H29       1.0  0.19557009905220474  0.19397101395357202  0.9641829468676448  1.0000
  H   H30       1.0  0.8623651835629645  0.035660141001613965  0.22977198784554528  1.0000
  H   H31       1.0  0.3216834084088519  0.777960473827811  0.4384737026341698  1.0000
  H   H32       1.0  0.6550928964945371  0.6602614261810302  0.22211037642647116  1.0000
  H   H33       1.0  0.9891003127283116  0.5613699690995871  0.3395331014381712  1.0000
  H   H34       1.0  0.3449229760194825  0.33972170592176104  0.561835443289688  1.0000
  H   H35       1.0  0.010906204363216406  0.4386272840552792  0.778154119880675  1.0000
  H   H36       1.0  0.6783137793520742  0.2220486024707356  0.6605057494998761  1.0000
  H   H37       1.0  0.5251067346839308  0.755228927516363  0.3984059256147179  1.0000
  H   H38       1.0  0.8586028517729434  0.6429428118210652  0.24465955565785452  1.0000
  H   H39       1.0  0.19244907607422596  0.6014591902656078  0.3569863885128798  1.0000
  H   H40       1.0  0.1414203889658125  0.35704319609342855  0.601708942833831  1.0000
  H   H41       1.0  0.8075563223623806  0.39854372311958025  0.755527875582402  1.0000
  H   H42       1.0  0.4748890265494411  0.24478299136902842  0.6431738490103385  1.0000
  H   H43       1.0  0.36001156091028724  0.7115186371814062  0.32217166197655456  1.0000
  H   H44       1.0  0.6937002302909506  0.6103745303356902  0.28847343002004794  1.0000
  H   H45       1.0  0.027233658507867603  0.6776346958890327  0.3893216519001968  1.0000
  H   H46       1.0  0.3063112981969597  0.38961168283346825  0.6780825853196859  1.0000
  H   H47       1.0  0.9727695273686694  0.32236268656286166  0.7116839630915379  1.0000
  H   H48       1.0  0.6399872749624863  0.2884925378214048  0.6106471348161406  1.0000
  H   H49       1.0  0.4805261974422309  0.909643171880738  0.30870024003797897  1.0000
  H   H50       1.0  0.8135382068660633  0.39878139577670885  0.09021755076008739  1.0000
  H   H51       1.0  0.14722874697461924  0.691112294399957  0.601092273177379  1.0000
  H   H52       1.0  0.18648735320235235  0.6011997451414357  0.6914226129173785  1.0000
  H   H53       1.0  0.8527577461317508  0.30888706378151887  0.9099749756119093  1.0000
  H   H54       1.0  0.5194752981415507  0.09037133283193548  0.3990549982065943  1.0000
  H   H55       1.0  0.4721456279595558  0.7922188580902799  0.2452290403864838  1.0000
  H   H56       1.0  0.8052723983821866  0.4527224600835211  0.20765313091407492  1.0000
  H   H57       1.0  0.13903672641359321  0.7546432024524634  0.5471949639294424  1.0000
  H   H58       1.0  0.1947488501249381  0.5472497809255898  0.7549051047513515  1.0000
  H   H59       1.0  0.8609599457361344  0.24535547302961194  0.7925494054337535  1.0000
  H   H60       1.0  0.5278512070021436  0.2077972700646028  0.45300768063770386  1.0000
  H   H61       1.0  0.6304041695968863  0.8451683171297616  0.32451081227687706  1.0000
  H   H62       1.0  0.9636819026416251  0.4788576037123846  0.154622165367492  1.0000
  H   H63       1.0  0.2973574538451373  0.6753654145892511  0.5209529612407807  1.0000
  H   H64       1.0  0.03634402476641441  0.5211280953881712  0.6757545949780592  1.0000
  H   H65       1.0  0.7026315211296607  0.32463771550743553  0.8455888631016747  1.0000
  H   H66       1.0  0.3695968810867783  0.15484562555408837  0.4793438580961791  1.0000
  C   C1        1.0  0.11470542587684923  0.7735419748660065  0.20086043752163388  1.0000
  C   C2        1.0  0.44883391928846095  0.42736989402165176  0.22637279456851195  1.0000
  C   C3        1.0  0.781769505417799  0.7990390530161946  0.5724924482241251  1.0000
  C   C4        1.0  0.5511428284632277  0.5726318864792715  0.7990017569192034  1.0000
  C   C5        1.0  0.21821861814393634  0.20096154663782775  0.7734560203536843  1.0000
  C   C6        1.0  0.8853094981625633  0.2264653357019597  0.4273139627413017  1.0000
  C   C7        1.0  0.023743246163654405  0.9529758378436809  0.29857786253177243  1.0000
  C   C8        1.0  0.3573584238689095  0.3454911449674114  0.04693271577221488  1.0000
  C   C9        1.0  0.6903892181590623  0.7015201001686932  0.6544402642749391  1.0000
  C   C10       1.0  0.6426459973645323  0.6545030604727343  0.7014436606517052  1.0000
  C   C11       1.0  0.30960526898847013  0.29847580207891855  0.9529205642150983  1.0000
  C   C12       1.0  0.9762605523042043  0.04702210804155972  0.3455990986658932  1.0000
  C   C13       1.0  0.03093282680710981  0.8055434027644635  0.28050630017367717  1.0000
  C   C14       1.0  0.36489602572670793  0.4749504189526376  0.1943396153949735  1.0000
  C   C15       1.0  0.6978667001328489  0.7194497236818337  0.5249413572831261  1.0000
  C   C16       1.0  0.6350850514682734  0.5250526552206408  0.71939509228541  1.0000
  C   C17       1.0  0.3021337496830371  0.2805491741539399  0.805492037222109  1.0000
  C   C18       1.0  0.9690787052554275  0.19446168958509702  0.47494932841052423  1.0000
  C   C19       1.0  0.982424225143227  0.8943368878426695  0.3297858141189922  1.0000
  C   C20       1.0  0.316088200540662  0.4353720626967714  0.10557427644805988  1.0000
  C   C21       1.0  0.6492113341110014  0.6702757893308231  0.5645534498886349  1.0000
  C   C22       1.0  0.6838964530041667  0.564629539978675  0.6702081681753  1.0000
  C   C23       1.0  0.3508170612291935  0.3297116994324084  0.8942720768992983  1.0000
  C   C24       1.0  0.017575080838128105  0.1056642598184609  0.4354471884943294  1.0000
  C   C25       1.0  0.15227957575049803  0.8307557177281879  0.16877270153867854  1.0000
  C   C26       1.0  0.4863921333655412  0.3380387405957421  0.16914707736462026  1.0000
  C   C27       1.0  0.8192847566885676  0.8311863115201631  0.6618327589657086  1.0000
  C   C28       1.0  0.513579016957948  0.6619605929692582  0.8311115067205749  1.0000
  C   C29       1.0  0.1806972327344526  0.1688104160430724  0.8306511203554405  1.0000
  C   C30       1.0  0.8477422597430434  0.16924336196012743  0.33801398874364  1.0000
  C   C31       1.0  0.1660219096756208  0.6799148510647227  0.15004859889226213  1.0000
  C   C32       1.0  0.500029654045868  0.4702615064096348  0.32003145304486225  1.0000
  C   C33       1.0  0.8328688765293821  0.8498214904754845  0.5296173067497136  1.0000
  C   C34       1.0  0.4999434095793235  0.5297299780475837  0.8497628161687416  1.0000
  C   C35       1.0  0.16713485885903626  0.15017504818478508  0.6798038677952789  1.0000
  C   C36       1.0  0.833982297397853  0.3200959065544495  0.47013320296985484  1.0000
  C   C37       1.0  0.30320969539327813  0.9154551421694066  0.42825738628163657  1.0000
  C   C38       1.0  0.6367395250297819  0.5126585553202716  0.08447999660499055  1.0000
  C   C39       1.0  0.9699978384484998  0.5717747596026185  0.48733872618761603  1.0000
  C   C40       1.0  0.36328094890203033  0.4873369364292798  0.5718125563082666  1.0000
  C   C41       1.0  0.02999413040629411  0.4282258993961889  0.9155587302986065  1.0000
  C   C42       1.0  0.6967877921449103  0.08455885817294727  0.512804268872422  1.0000
  C   C43       1.0  0.10699427105107165  0.9189600521410668  0.217794191798845  1.0000
  C   C44       1.0  0.44083777869774116  0.2988057932746742  0.08098056804890065  1.0000
  C   C45       1.0  0.7737924582067424  0.7822689799447389  0.7011098326159201  1.0000
  C   C46       1.0  0.5591682879541866  0.7011899817732185  0.7821753091042325  1.0000
  C   C47       1.0  0.22620422458093972  0.21772653627370883  0.9188420835629643  1.0000
  C   C48       1.0  0.8929972487480101  0.08103438020168602  0.2988266944996596  1.0000
  C   C49       1.0  0.40213301689288283  0.7680587857970876  0.38461583928832266  1.0000
  C   C50       1.0  0.7356656246691459  0.6162940925844609  0.2319220468580881  1.0000
  C   C51       1.0  0.06939239150051432  0.615246418113216  0.3835243494698021  1.0000
  C   C52       1.0  0.2643491532777277  0.3836962306979074  0.6156171462714966  1.0000
  C   C53       1.0  0.9306050972246995  0.3847539512655515  0.7682739844732039  1.0000
  C   C54       1.0  0.5978634392924962  0.23195073015537557  0.6165521785695915  1.0000
  C   C55       1.0  0.5023453212651604  0.848635872152343  0.3105031854314222  1.0000
  C   C56       1.0  0.8355781122314667  0.4615392878376454  0.15121044892569574  1.0000
  C   C57       1.0  0.16926011192717993  0.6893614104419826  0.5383248155326685  1.0000
  C   C58       1.0  0.16444643141991838  0.5384383207223988  0.6896510045474571  1.0000
  C   C59       1.0  0.830735743508406  0.31063705513017936  0.8489618602242643  1.0000
  C   C60       1.0  0.49765988833402036  0.15137708708768102  0.4618688419797293  1.0000
  N   N1        1.0  0.401235030915764  0.8478249595345346  0.3781146787856927  1.0000
  N   N2        1.0  0.7347085966328848  0.5300705902267638  0.15209927107018484  1.0000
  N   N3        1.0  0.06826995844482305  0.6217915749843782  0.4698341651704255  1.0000
  N   N4        1.0  0.26530262086080825  0.46991366894788195  0.6220101529059434  1.0000
  N   N5        1.0  0.9317270894660867  0.3782071472429606  0.8480373344729557  1.0000
  N   N6        1.0  0.5987618119436676  0.15218854801124584  0.5302865428392778  1.0000
  O   O1        1.0  0.23850234729013664  0.6513842156695658  0.0777745251812761  1.0000
  O   O2        1.0  0.5722039612704677  0.4264861721042976  0.3486379926311757  1.0000
  O   O3        1.0  0.9054803708888459  0.9220426767725983  0.5733834785387874  1.0000
  O   O4        1.0  0.4277649512594763  0.5735204552487615  0.9221438914655948  1.0000
  O   O5        1.0  0.09450018648386303  0.07796227096282836  0.6513525179318831  1.0000
  O   O6        1.0  0.7615038497045604  0.3486377528078534  0.4263941718565789  1.0000
  O   O7        1.0  0.8952159957330752  0.9222560137429384  0.4040766547076517  1.0000
  O   O8        1.0  0.22890060481234542  0.48178617843561966  0.07771570863906173  1.0000
  O   O9        1.0  0.5620835746890622  0.5959944810546177  0.5181523868398727  1.0000
  O   O10       1.0  0.7710870086032955  0.5182183183989436  0.5959261521424537  1.0000
  O   O11       1.0  0.43797167203361204  0.4039824625887221  0.9221572348347992  1.0000
  O   O12       1.0  0.10476073370067951  0.07775493808887296  0.4818255700003462  1.0000
  O   O13       1.0  0.13224899200931622  0.6304354990437773  0.18538994316786286  1.0000
  O   O14       1.0  0.4663884791593136  0.5550914790235381  0.36946156278071396  1.0000
  O   O15       1.0  0.7990638515916687  0.8145427310147682  0.44482666201648174  1.0000
  O   O16       1.0  0.5335698708949581  0.44490491163265483  0.8143672237684854  1.0000
  O   O17       1.0  0.20095907323426596  0.18545632539175463  0.6302961339532658  1.0000
  O   O18       1.0  0.8677326474608763  0.36958368738756764  0.5549631345512509  1.0000
  O   O19       1.0  0.20843956521366647  0.9173323558912615  0.48529295671529854  1.0000
  O   O20       1.0  0.5421229271523559  0.5678493012827842  0.08255308732240267  1.0000
  O   O21       1.0  0.8753029944260151  0.5147746021792301  0.4321697004560008  1.0000
  O   O22       1.0  0.4579154406998712  0.4321575588496884  0.5147038795399582  1.0000
  O   O23       1.0  0.12469953773619125  0.4852274030592054  0.9173917183031505  1.0000
  O   O24       1.0  0.7915463472776667  0.08268225603384848  0.5679632211947876  1.0000
