data_image0
_chemical_formula_structural       Zn4H44C56N16O5
_chemical_formula_sum              "Zn4 H44 C56 N16 O5"
_cell_length_a       15.640264218930337
_cell_length_b       15.89486170504735
_cell_length_c       17.587772775698472
_cell_angle_alpha    104.61821923690613
_cell_angle_beta     107.58290264851591
_cell_angle_gamma    110.84837490574539

_space_group_name_H-M_alt    "P 1"
_space_group_IT_number       1

loop_
  _space_group_symop_operation_xyz
  'x, y, z'

loop_
  _atom_site_type_symbol
  _atom_site_label
  _atom_site_symmetry_multiplicity
  _atom_site_fract_x
  _atom_site_fract_y
  _atom_site_fract_z
  _atom_site_occupancy
  Zn  Zn1       1.0  0.8723264409285532  0.8738403129986594  0.49742182897806936  1.0000
  Zn  Zn2       1.0  0.1334157207189719  0.1259681559999137  0.4995191048731372  1.0000
  Zn  Zn3       1.0  0.12069985839737284  0.9959279544758317  0.6230581305020735  1.0000
  Zn  Zn4       1.0  0.886826607698289  0.009159080911885598  0.3867847171144804  1.0000
  H   H1        1.0  0.7930966947265432  0.7633836572902412  0.6208544440893818  1.0000
  H   H2        1.0  0.8519548880548128  0.18051354485682936  0.32357537584437784  1.0000
  H   H3        1.0  0.6483592028195773  0.6749870684540157  0.352521871365312  1.0000
  H   H4        1.0  0.4482704836142446  0.244991754562129  0.5447303383275115  1.0000
  H   H5        1.0  0.2747842260578537  0.7354576352232485  0.6931632656253371  1.0000
  H   H6        1.0  0.2703413315870336  0.8387811664013541  0.7571996068105947  1.0000
  H   H7        1.0  0.19583747526303338  0.7193155726068027  0.7482529468321532  1.0000
  H   H8        1.0  0.08751807047601551  0.7710676707193401  0.6540009385136758  1.0000
  H   H9        1.0  0.08898809703224221  0.6671949303509875  0.5898637314621524  1.0000
  H   H10       1.0  0.2135303432857611  0.7703755823353547  0.5496640279609011  1.0000
  H   H11       1.0  0.22685053448640952  0.8790449136542762  0.6223108546399062  1.0000
  H   H12       1.0  0.864493979211872  0.847969736942943  0.2214621804868316  1.0000
  H   H13       1.0  0.22330212322654566  0.9783431340871972  0.31886566576700665  1.0000
  H   H14       1.0  0.3975231248233725  0.4269201274429051  0.08099874643873758  1.0000
  H   H15       1.0  0.806483101771768  0.7363216913712662  0.9084360049697937  1.0000
  H   H16       1.0  0.3796123779758389  0.5031329501905973  0.48360362245187377  1.0000
  H   H17       1.0  0.4128468811776357  0.4123019963788863  0.5035750551250686  1.0000
  H   H18       1.0  0.3986895187237209  0.42707299517008573  0.4042532882774098  1.0000
  H   H19       1.0  0.24507210637174373  0.27880502402100393  0.37900808669431296  1.0000
  H   H20       1.0  0.21206373630468525  0.3691519609003393  0.3594577045724847  1.0000
  H   H21       1.0  0.22182489259031968  0.4274010362717959  0.5106575595910385  1.0000
  H   H22       1.0  0.2518160293199614  0.33426266061955096  0.527978312164457  1.0000
  H   H23       1.0  0.8589593378996908  0.6979141459236899  0.34540422876925453  1.0000
  H   H24       1.0  0.29123902226412923  0.8700187655453179  0.9695151894500074  1.0000
  H   H25       1.0  0.350845267009305  0.9699861032828496  0.07259627472431872  1.0000
  H   H26       1.0  0.36400064443076713  0.8618701381291202  0.06406235272662295  1.0000
  H   H27       1.0  0.23629613192672852  0.8615125814666841  0.1231247726101686  1.0000
  H   H28       1.0  0.1761608183223514  0.7646237529700598  0.019267492401844704  1.0000
  H   H29       1.0  0.1242208690101093  0.8706316469963653  0.9519852261992271  1.0000
  H   H30       1.0  0.1809058251495442  0.9660316137524417  0.05726809101108186  1.0000
  H   H31       1.0  0.3796949651719003  0.24509820540066574  0.9807586661700897  1.0000
  H   H32       1.0  0.3591791095171786  0.1322386258966475  0.9072075329254974  1.0000
  H   H33       1.0  0.46954111097757323  0.24336719932241382  0.9388936237205031  1.0000
  H   H34       1.0  0.6642563530547321  0.8583140603056733  0.20675207299213846  1.0000
  H   H35       1.0  0.34195719863997454  0.1959827650772539  0.7887362282037672  1.0000
  H   H36       1.0  0.36265676946053554  0.3082352145767189  0.8613893751501892  1.0000
  H   H37       1.0  0.204969782108904  0.22601501624637876  0.8745678280618706  1.0000
  H   H38       1.0  0.18442446269899898  0.10833511191918177  0.8110923280484885  1.0000
  H   H39       1.0  0.12516505692949656  0.9338404070558538  0.8592161617702416  1.0000
  H   H40       1.0  0.36264992426362147  0.022327136832466  0.681743370293397  1.0000
  H   H41       1.0  0.34976421582717154  0.6005947510228464  0.9605268916583543  1.0000
  H   H42       1.0  0.824013577133435  0.1628707211833174  0.48807902144336884  1.0000
  H   H43       1.0  0.10842338664571824  0.3032861560238799  0.6075568666816907  1.0000
  H   H44       1.0  0.8265275760947687  0.9927966120214932  0.6462141983931107  1.0000
  C   C1        1.0  0.8743382340329473  0.8122853930516951  0.653233030017077  1.0000
  C   C2        1.0  0.9321116713577668  0.7399725742863339  0.4019683006619347  1.0000
  C   C3        1.0  0.6758728983640552  0.8270705558201213  0.25483725639362836  1.0000
  C   C4        1.0  0.10025204278782945  0.2822880312113156  0.43553524683635203  1.0000
  C   C5        1.0  0.3481505006237882  0.06596120729414423  0.6458221229894008  1.0000
  C   C6        1.0  0.6158009977982103  0.7324278499818107  0.2478572746519846  1.0000
  C   C7        1.0  0.41502416410777704  0.12870934302179654  0.6220193017511237  1.0000
  C   C8        1.0  0.006940324748555252  0.7118177591484595  0.43349594406956976  1.0000
  C   C9        1.0  0.0316337789822397  0.9030122936866147  0.2581460814202501  1.0000
  C   C10       1.0  0.742757471827922  0.12958847092560433  0.6153974617673799  1.0000
  C   C11       1.0  0.675794119981731  0.1450974675282097  0.6284217946980564  1.0000
  C   C12       1.0  0.016553866838101804  0.29547657041219827  0.3920040450677363  1.0000
  C   C13       1.0  0.5936892298370535  0.1504297071353378  0.6342122304788589  1.0000
  C   C14       1.0  0.5120568781509292  0.1444083453753464  0.6314206973323665  1.0000
  C   C15       1.0  0.017103598170265827  0.3819637723929858  0.38648633181261266  1.0000
  C   C16       1.0  0.16395414749490556  0.19624571986414446  0.7401188779770395  1.0000
  C   C17       1.0  0.014456920844487815  0.4582657554656394  0.38628725488110405  1.0000
  C   C18       1.0  0.010991824871901146  0.543308456926283  0.3932800487294017  1.0000
  C   C19       1.0  0.005915948027862127  0.6206789905885228  0.4054280060550113  1.0000
  C   C20       1.0  0.21191260537298715  0.3737086936644117  0.8049794453009016  1.0000
  C   C21       1.0  0.3299586792152667  0.5255171429398758  0.9549106818045063  1.0000
  C   C22       1.0  0.3776014204958926  0.5142613119206558  0.028222538230956225  1.0000
  C   C23       1.0  0.1653529895796737  0.2837806932814431  0.7329259697452886  1.0000
  C   C24       1.0  0.4550310044196805  0.5928807920345845  0.10671416552956703  1.0000
  C   C25       1.0  0.26340621091372896  0.4459814789107384  0.8746034967469783  1.0000
  C   C26       1.0  0.5281540364074715  0.6564550796427042  0.1746431270327307  1.0000
  C   C27       1.0  0.041274973855962474  0.8706417718092537  0.18086088530552044  1.0000
  C   C28       1.0  0.8321700192920504  0.11355970285571  0.5192747906284725  1.0000
  C   C29       1.0  0.043440777762185696  0.8411956854868806  0.027982978415195706  1.0000
  C   C30       1.0  0.9518751959865311  0.7986739315685866  0.9558921565298705  1.0000
  C   C31       1.0  0.9440648553666832  0.8013161997479373  0.8749013107568758  1.0000
  C   C32       1.0  0.04443453097972834  0.8522736297215514  0.10998703350807656  1.0000
  C   C33       1.0  0.9359611796719065  0.8111228351226173  0.8064687405696136  1.0000
  C   C34       1.0  0.8035339509080827  0.09710795577306189  0.5852452953904503  1.0000
  C   C35       1.0  0.12153698406279996  0.25842993177261764  0.642549623249593  1.0000
  C   C36       1.0  0.8337260266632428  0.026877732650945105  0.6006811007865454  1.0000
  C   C37       1.0  0.9315952619613127  0.20305010341078145  0.36072748117101855  1.0000
  C   C38       1.0  0.03751281266411865  0.9034769081114575  0.7433098292547485  1.0000
  C   C39       1.0  0.9445680817582199  0.8368650452722335  0.7378263402461374  1.0000
  C   C40       1.0  0.172764189142093  0.8014682527221667  0.5790373751732362  1.0000
  C   C41       1.0  0.13681426468625096  0.7458772238185177  0.6328381717600495  1.0000
  C   C42       1.0  0.22436313477427905  0.7606337062389698  0.7121184372256621  1.0000
  C   C43       1.0  0.21062841881940383  0.3529515897555058  0.4774772587407483  1.0000
  C   C44       1.0  0.2557589586366831  0.35333402937764186  0.41088703592794223  1.0000
  C   C45       1.0  0.667604876691506  0.733073143539144  0.3292134194886032  1.0000
  C   C46       1.0  0.3680132899301256  0.428053368017828  0.4528634937571497  1.0000
  C   C47       1.0  0.14228921852567553  0.8852835285226206  0.021078948135745117  1.0000
  C   C48       1.0  0.2155827758593176  0.8453682019300858  0.05351744571135707  1.0000
  C   C49       1.0  0.3106640719871335  0.8891362437507483  0.03932802290787409  1.0000
  C   C50       1.0  0.2162896229165625  0.1860098705460942  0.8206635282353859  1.0000
  C   C51       1.0  0.3311822614388475  0.2289202871724783  0.8458594816580743  1.0000
  C   C52       1.0  0.38806353154913614  0.2114058282716229  0.9224529983472326  1.0000
  C   C53       1.0  0.355620102730846  0.16582209696352382  0.5776626229935148  1.0000
  C   C54       1.0  0.08463298966024978  0.7956203235914291  0.5101844136400544  1.0000
  C   C55       1.0  0.9432672998863295  0.8928423179252006  0.2691818908042407  1.0000
  C   C56       1.0  0.11081864975084696  0.9700690681085078  0.34189848504076553  1.0000
  N   N1        1.0  0.9216631198194205  0.8598267459788927  0.6132429327383448  1.0000
  N   N2        1.0  0.12078714544660579  0.12567454383123078  0.659424802659757  1.0000
  N   N3        1.0  0.8730855610676828  0.05581722907267309  0.49680476018725295  1.0000
  N   N4        1.0  0.0961255561752665  0.1635453241744074  0.5991188644731766  1.0000
  N   N5        1.0  0.8742706025334286  0.0027386377950762006  0.5464244034662401  1.0000
  N   N6        1.0  0.9616287726452625  0.1403665876682396  0.38363366950397904  1.0000
  N   N7        1.0  0.024013455493943094  0.9176517077804505  0.6699531286547399  1.0000
  N   N8        1.0  0.7509164036821332  0.8205507171134981  0.379542224723977  1.0000
  N   N9        1.0  0.2632140727512251  0.1288512283270791  0.5753268339968756  1.0000
  N   N10       1.0  0.056854697650948076  0.8669951938837103  0.5202354092580279  1.0000
  N   N11       1.0  0.9688854583895221  0.95008543849368  0.3511162923115876  1.0000
  N   N12       1.0  0.07289440474696819  0.998119756479305  0.39683026155213247  1.0000
  N   N13       1.0  0.9627788255451009  0.8329422974292912  0.4554249464541798  1.0000
  N   N14       1.0  0.7557625861560454  0.8787417859756205  0.33327000890322017  1.0000
  N   N15       1.0  0.2585574235538672  0.06590226081767268  0.6179987611358655  1.0000
  N   N16       1.0  0.06577905211173632  0.18934772259828492  0.4300221080991237  1.0000
  O   O1        1.0  0.37980302591115844  0.2289933692091353  0.5393190886179513  1.0000
  O   O2        1.0  0.21224179722998568  0.007450942750615798  0.36861701418754234  1.0000
  O   O3        1.0  0.3529364618254859  0.4204517604345169  0.025026607606292772  1.0000
  O   O4        1.0  0.8628911372556587  0.7579607846600143  0.9641411335237537  1.0000
  O   O5        1.0  0.13145612241024904  0.9489607711510003  0.8099841769402192  1.0000
