data_image0
_chemical_formula_structural       Cu2H52C50S4Br2O4
_chemical_formula_sum              "Cu2 H52 C50 S4 Br2 O4"
_cell_length_a       11.140002224096198
_cell_length_b       11.638812456882926
_cell_length_c       12.9855
_cell_angle_alpha    85.06531685054732
_cell_angle_beta     64.97757270296499
_cell_angle_gamma    79.41242674951192

_space_group_name_H-M_alt    "P 1"
_space_group_IT_number       1

loop_
  _space_group_symop_operation_xyz
  'x, y, z'

loop_
  _atom_site_type_symbol
  _atom_site_label
  _atom_site_symmetry_multiplicity
  _atom_site_fract_x
  _atom_site_fract_y
  _atom_site_fract_z
  _atom_site_occupancy
  Cu  Cu1       1.0  0.9444564229740209  0.5135099817705466  0.4199496045205109  1.0000
  Cu  Cu2       1.0  0.05554839060904731  0.4864885233212206  0.5800471468899461  1.0000
  H   H1        1.0  0.43436795228361547  0.0226211730731407  0.36604638218081237  1.0000
  H   H2        1.0  0.565635043901139  0.9773764579055211  0.6339526362638069  1.0000
  H   H3        1.0  0.5399062131573586  0.999751131082732  0.2184415907313806  1.0000
  H   H4        1.0  0.46009447395032765  0.0002482481221335  0.7815573607087318  1.0000
  H   H5        1.0  0.5254544500404493  0.1994900930774861  0.2985273552646319  1.0000
  H   H6        1.0  0.47454441966892347  0.8005084120142811  0.7014730931199298  1.0000
  H   H7        1.0  0.6196430047017714  0.12460132682421939  0.3724503868397591  1.0000
  H   H8        1.0  0.38035966369714913  0.8753980523806533  0.6275463054893606  1.0000
  H   H9        1.0  0.8041572747635541  0.0488585520662781  0.18628081232646573  1.0000
  H   H10       1.0  0.19584341963224713  0.9511460718172273  0.8137146517499616  1.0000
  H   H11       1.0  0.7059491451975929  0.12218090763339258  0.11378615550300714  1.0000
  H   H12       1.0  0.2940480782944945  0.8778210939108034  0.8862123103854956  1.0000
  H   H13       1.0  0.9169988961877918  0.09970134088344199  0.9961893242402057  1.0000
  H   H14       1.0  0.0829978356255552  0.9003032830000705  0.0038106580581996246  1.0000
  H   H15       1.0  0.12911520375589447  0.1414384934742046  0.8407912957659249  1.0000
  H   H16       1.0  0.8708841649203406  0.8585626339568861  0.15921184974219943  1.0000
  H   H17       1.0  0.2330400601364033  0.3077953292644153  0.8554563260750144  1.0000
  H   H18       1.0  0.7669591446469184  0.6922066722797737  0.14454758159965309  1.0000
  H   H19       1.0  0.1195686784965986  0.4343144602434492  0.026263825801230226  1.0000
  H   H20       1.0  0.8804250813798973  0.5656901636400562  0.9737372348945216  1.0000
  H   H21       1.0  0.7809398320793118  0.43262217727001223  0.2462835630964764  1.0000
  H   H22       1.0  0.21905342883031412  0.5673798242741768  0.7537178808345787  1.0000
  H   H23       1.0  0.9233843712197896  0.5042216559049706  0.1865923232912082  1.0000
  H   H24       1.0  0.07660377256883778  0.4957812197523239  0.8134109100455689  1.0000
  H   H25       1.0  0.7683103340781086  0.3201605332635111  0.5008962095724244  1.0000
  H   H26       1.0  0.2316934888593493  0.6798379718282561  0.4991032115729582  1.0000
  H   H27       1.0  0.7304612415754264  0.3034142743765642  0.3837469095609763  1.0000
  H   H28       1.0  0.2695392743512315  0.6965807342627741  0.6162555213196513  1.0000
  H   H29       1.0  0.9898440842167489  0.1338328353378984  0.2412540378968374  1.0000
  H   H30       1.0  0.010163701303170593  0.8661656697538688  0.7587462556545718  1.0000
  H   H31       1.0  0.7327311523292153  0.143141265804914  0.5982550186353848  1.0000
  H   H32       1.0  0.26727085320992217  0.8568563651737477  0.40174512936473417  1.0000
  H   H33       1.0  0.04811726458297021  0.918525918923244  0.2530140376490593  1.0000
  H   H34       1.0  0.9518916754754796  0.0814717120554178  0.7469866744494524  1.0000
  H   H35       1.0  0.7969553614838032  0.92790864900428  0.6114254255196131  1.0000
  H   H36       1.0  0.20304648016241336  0.0720898560874872  0.38857471455732207  1.0000
  H   H37       1.0  0.9255935822543504  0.7484374942830243  0.530700640969947  1.0000
  H   H38       1.0  0.07440660588647319  0.2515592625825249  0.4693010039746143  1.0000
  H   H39       1.0  0.06910868283548413  0.7471717785053755  0.39933993288789793  1.0000
  H   H40       1.0  0.9308928237367908  0.2528232301339699  0.6006621385269499  1.0000
  H   H41       1.0  0.6877040289562472  0.6981480190620388  0.5390341597541948  1.0000
  H   H42       1.0  0.31229698593728017  0.301849611916623  0.460965577621984  1.0000
  H   H43       1.0  0.6968548133027281  0.8400314361072532  0.47047019792719896  1.0000
  H   H44       1.0  0.3031440564066442  0.1599670689845141  0.5295317906367957  1.0000
  H   H45       1.0  0.6392579840639669  0.5391686978874333  0.4504168076159303  1.0000
  H   H46       1.0  0.3607415485051888  0.4608315554305449  0.5495855757256507  1.0000
  H   H47       1.0  0.5078068383842335  0.4900496601155311  0.34870134333010594  1.0000
  H   H48       1.0  0.49219054900077447  0.5099514673155525  0.6513017510198651  1.0000
  H   H49       1.0  0.42703553852391  0.644271183653558  0.2380922629170072  1.0000
  H   H50       1.0  0.5729633311854626  0.3557273214382093  0.7619104957367  1.0000
  H   H51       1.0  0.4752743951324163  0.8449701751568028  0.2280663383663112  1.0000
  H   H52       1.0  0.5247264558681906  0.1550283299349644  0.7719341611764039  1.0000
  C   C1        1.0  0.5389032965433174  0.0136685066403146  0.30182559520157076  1.0000
  C   C2        1.0  0.4610995357485236  0.9863299984514526  0.6981726452301589  1.0000
  C   C3        1.0  0.5995337270336449  0.12187059748071499  0.29681119194218303  1.0000
  C   C4        1.0  0.4004669600740414  0.8781287817241505  0.7031869894082164  1.0000
  C   C5        1.0  0.7272604108923844  0.1246773746644507  0.1892267338830038  1.0000
  C   C6        1.0  0.27273879389093736  0.8753246268797383  0.8107710130739393  1.0000
  C   C7        1.0  0.8964121850315507  0.2458871426369456  0.09884890228525484  1.0000
  C   C8        1.0  0.10358108316619051  0.7541201035858761  0.901150594461548  1.0000
  C   C9        1.0  0.9605640604912793  0.1733934462944333  0.0034163106595742005  1.0000
  C   C10       1.0  0.03943184456936416  0.8266103034759666  0.9965840390277948  1.0000
  C   C11       1.0  0.08132535324465097  0.1961291281844808  0.916126652508247  1.0000
  C   C12       1.0  0.9186725331072195  0.8038746215859263  0.08387451842698834  1.0000
  C   C13       1.0  0.13932367467662488  0.2897431453969332  0.9235767245156197  1.0000
  C   C14       1.0  0.8606712397384014  0.7102606043734667  0.07642552481696195  1.0000
  C   C15       1.0  0.0753820661823497  0.3606345924159413  0.019311450401630705  1.0000
  C   C16       1.0  0.9246105391556156  0.6393709055806767  0.980689191747004  1.0000
  C   C17       1.0  0.9540604454107748  0.3409032372716112  0.10778414932791246  1.0000
  C   C18       1.0  0.045932323820103704  0.6591013866118942  0.8922118802056148  1.0000
  C   C19       1.0  0.8909150115374516  0.41858566901202465  0.20933686850764124  1.0000
  C   C20       1.0  0.1090746218636625  0.5814198289845933  0.7906648520383401  1.0000
  C   C21       1.0  0.8092169080645846  0.2830972634511468  0.4154307416892425  1.0000
  C   C22       1.0  0.19078592422725646  0.7169012416406205  0.5845682688322  1.0000
  C   C23       1.0  0.8535632140082895  0.1531533573223527  0.4187552054789025  1.0000
  C   C24       1.0  0.14644275411330906  0.846844273656309  0.5812435046580903  1.0000
  C   C25       1.0  0.9442023805971118  0.08855115410184308  0.3220529876642075  1.0000
  C   C26       1.0  0.05580474206302449  0.9114456027637132  0.6779476811993279  1.0000
  C   C27       1.0  0.8011606637972832  0.0935991572896526  0.5222907306717064  1.0000
  C   C28       1.0  0.19884249628039186  0.9063975995759036  0.4777106059652283  1.0000
  C   C29       1.0  0.9782448941922366  0.9678765966682618  0.32901531230947983  1.0000
  C   C30       1.0  0.021762727434762003  0.0321227825366108  0.6709849733187525  1.0000
  C   C31       1.0  0.836022892821191  0.9727742524018268  0.5294246382354615  1.0000
  C   C32       1.0  0.16398076622334656  0.0272251268030459  0.4705763151661699  1.0000
  C   C33       1.0  0.924875805200351  0.9082043913662402  0.433004604924868  1.0000
  C   C34       1.0  0.0751313174597854  0.091792365499316  0.5669952938489545  1.0000
  C   C35       1.0  0.9606535331803413  0.7787438697851314  0.4418244676816627  1.0000
  C   C36       1.0  0.039348472358796  0.22125376119353038  0.558176450408169  1.0000
  C   C37       1.0  0.7112033552368332  0.7457146319574832  0.457686559824495  1.0000
  C   C38       1.0  0.2887986503023043  0.2542829990211786  0.5423128180859039  1.0000
  C   C39       1.0  0.6308031850694036  0.7188391503968816  0.39779715414622535  1.0000
  C   C40       1.0  0.36919832879098646  0.2811611029210965  0.6022021999946504  1.0000
  C   C41       1.0  0.6026665025955111  0.6058206963417803  0.40133329796410794  1.0000
  C   C42       1.0  0.3973330299736446  0.3941795569761979  0.5986683152877603  1.0000
  C   C43       1.0  0.5304172874026418  0.5780579899784755  0.34407002266042513  1.0000
  C   C44       1.0  0.46958141841381  0.4219413892263972  0.6559327280701128  1.0000
  C   C45       1.0  0.48503768002206005  0.6648303239093707  0.281873044128588  1.0000
  C   C46       1.0  0.5149611896873124  0.3351681811823966  0.7181289444354068  1.0000
  C   C47       1.0  0.5110055119949876  0.7785638024852659  0.2774069082609501  1.0000
  C   C48       1.0  0.48899600186539505  0.2214364508327122  0.7225924458799255  1.0000
  C   C49       1.0  0.583866082805855  0.8060616525774265  0.3348230084581161  1.0000
  C   C50       1.0  0.41613691337889946  0.19393597840123528  0.6651760099865031  1.0000
  S   S1        1.0  0.9439688172395151  0.3631782615547293  0.3238189447748497  1.0000
  S   S2        1.0  0.05602972468403069  0.6368219917632487  0.676176867225074  1.0000
  S   S3        1.0  0.8906857766353439  0.7002485128560352  0.3696339279574802  1.0000
  S   S4        1.0  0.1093159011179594  0.2997508663488375  0.6303654341065725  1.0000
  Br  Br1       1.0  0.19326559533386234  0.5014323609833582  0.37311835799594933  1.0000
  Br  Br2       1.0  0.8067372369579715  0.498566144108409  0.6268783422563475  1.0000
  O   O1        1.0  0.6167077787433044  0.9147611137752065  0.3321743470905573  1.0000
  O   O2        1.0  0.3832960441941466  0.0852373913165607  0.6678227637856792  1.0000
  O   O3        1.0  0.7772144694046828  0.23013300212544147  0.18782527507232777  1.0000
  O   O4        1.0  0.22278044501034333  0.7698707476449584  0.812173893901381  1.0000
