data_image0
_chemical_formula_structural       Zn6H48C72N24Cl12
_chemical_formula_sum              "Zn6 H48 C72 N24 Cl12"
_cell_length_a       5.8249392685439325
_cell_length_b       25.251916308922482
_cell_length_c       26.22778455022763
_cell_angle_alpha    89.25417356615148
_cell_angle_beta     83.63828780828007
_cell_angle_gamma    83.41308708111168

_space_group_name_H-M_alt    "P 1"
_space_group_IT_number       1

loop_
  _space_group_symop_operation_xyz
  'x, y, z'

loop_
  _atom_site_type_symbol
  _atom_site_label
  _atom_site_symmetry_multiplicity
  _atom_site_fract_x
  _atom_site_fract_y
  _atom_site_fract_z
  _atom_site_occupancy
  Zn  Zn1       1.0  0.5790208821474747  0.2506982715540218  0.2760918729156786  1.0000
  Zn  Zn2       1.0  0.10581131944753927  0.7491792114020938  0.7237028013560973  1.0000
  Zn  Zn3       1.0  0.6050752970600325  0.7507190502157141  0.2238785414501337  1.0000
  Zn  Zn4       1.0  0.5801171312075152  0.24916019530791536  0.7762088447697764  1.0000
  Zn  Zn5       1.0  0.14353643229666338  0.49995997034176304  0.50015829433913  1.0000
  Zn  Zn6       1.0  0.39376023225210577  6.122629612549999e-05  2.4096295334225392e-05  1.0000
  H   H1        1.0  0.9637514064643751  0.2718245300848778  0.3414307791578751  1.0000
  H   H2        1.0  0.19019169958906454  0.34731208444057415  0.35505529484503034  1.0000
  H   H3        1.0  0.8529991096932074  0.4321253297257142  0.23454820967697296  1.0000
  H   H4        1.0  0.6440495217206459  0.3512999161507864  0.22424445705564727  1.0000
  H   H5        1.0  0.6096610789581615  0.40515778948419967  0.3955801115741481  1.0000
  H   H6        1.0  0.9245935088041431  0.4115275528825251  0.4530997274531431  1.0000
  H   H7        1.0  0.9155425430101183  0.5738968489416011  0.4282807364615382  1.0000
  H   H8        1.0  0.5981591444235547  0.5744950952751253  0.3700457406523797  1.0000
  H   H9        1.0  0.2429005828756131  0.6359519309469022  0.3131941023800948  1.0000
  H   H10       1.0  0.0315177068548778  0.7202878134307794  0.2835823719637673  1.0000
  H   H11       1.0  0.5908701798780168  0.6377559672383128  0.20865264714168325  1.0000
  H   H12       1.0  0.7816215059932927  0.5490788805857747  0.23745369430622537  1.0000
  H   H13       1.0  0.576684193424285  0.7281530026144833  0.6581525592258687  1.0000
  H   H14       1.0  0.892204045581472  0.6527226047384644  0.6446076163602187  1.0000
  H   H15       1.0  0.5194863958967915  0.5679034602282725  0.7651544251575545  1.0000
  H   H16       1.0  0.22014629019443507  0.64879344102345  0.7756011103823612  1.0000
  H   H17       1.0  0.41058457779136853  0.5949120930244475  0.6044225465441431  1.0000
  H   H18       1.0  0.7903564307461645  0.5885278627282844  0.5472966045443428  1.0000
  H   H19       1.0  0.9169847655364401  0.42611152689159576  0.572017900241754  1.0000
  H   H20       1.0  0.5418159748519354  0.42560919025349625  0.6302112951392261  1.0000
  H   H21       1.0  0.1917479841092341  0.3642883969880515  0.686835141477225  1.0000
  H   H22       1.0  0.03596198060150609  0.2798230892102467  0.7165588976625444  1.0000
  H   H23       1.0  0.4376684426344965  0.3620649611448102  0.7914594866602158  1.0000
  H   H24       1.0  0.5674278265221915  0.45082455542843997  0.7624485039503526  1.0000
  H   H25       1.0  0.05486169174295696  0.7718906091565215  0.15844373164060951  1.0000
  H   H26       1.0  0.2947610597949079  0.8474323059092298  0.14482556730923332  1.0000
  H   H27       1.0  0.8367820553194105  0.9322176790017023  0.26517983573630494  1.0000
  H   H28       1.0  0.6186990279075957  0.8511972599760113  0.27577527591874684  1.0000
  H   H29       1.0  0.7551656559415741  0.9051737964793602  0.10456308607914626  1.0000
  H   H30       1.0  0.12798239090492547  0.9115046454986953  0.04720594930678601  1.0000
  H   H31       1.0  0.09359910542004705  0.0739228832964258  0.07171458211674062  1.0000
  H   H32       1.0  0.7179356255974054  0.07454348026106318  0.12989540158147866  1.0000
  H   H33       1.0  0.30480315592598817  0.13588199383760013  0.18639771965599292  1.0000
  H   H34       1.0  0.06431248675958287  0.2202462722501082  0.2161765602779155  1.0000
  H   H35       1.0  0.5499413668945576  0.1376657256208844  0.29152559524032995  1.0000
  H   H36       1.0  0.7686882552888291  0.04901019995338629  0.2624871149686997  1.0000
  H   H37       1.0  0.9854092989501876  0.22801570467706972  0.8416983511423128  1.0000
  H   H38       1.0  0.2870095500035599  0.15253950762970447  0.8553492313815881  1.0000
  H   H39       1.0  0.035598403878424174  0.0679061970927961  0.7345848973293628  1.0000
  H   H40       1.0  0.7461618647436832  0.14872408339218174  0.7242424620308016  1.0000
  H   H41       1.0  0.7648538722613052  0.0948707090677132  0.8956286662526409  1.0000
  H   H42       1.0  0.0867598137606432  0.0885406800526809  0.9529910685927379  1.0000
  H   H43       1.0  0.23952046641028304  0.9261902985363761  0.928193004269609  1.0000
  H   H44       1.0  0.9228437272988399  0.9255953825858751  0.8699074917448542  1.0000
  H   H45       1.0  0.6278504624344516  0.8639760670703751  0.8135065951163227  1.0000
  H   H46       1.0  0.5012497221281859  0.7796358703245118  0.7836876830386785  1.0000
  H   H47       1.0  0.9786654434943068  0.8621171046227402  0.7086628359376379  1.0000
  H   H48       1.0  0.08048423708514436  0.9508021571520189  0.7375568603130134  1.0000
  C   C1        1.0  0.9431672204742649  0.3080217661345301  0.3185250114189487  1.0000
  C   C2        1.0  0.06968969132198306  0.3503185280378389  0.3259837119862823  1.0000
  C   C3        1.0  0.03500212533653255  0.3963332503448384  0.2962413133742174  1.0000
  C   C4        1.0  0.8819089606446152  0.39705757418704474  0.25853443441378243  1.0000
  C   C5        1.0  0.7657977240570444  0.35301450864715633  0.25281587366002617  1.0000
  C   C6        1.0  0.1442529053688018  0.4449798592285533  0.30537114813890304  1.0000
  C   C7        1.0  0.3976893966890174  0.48882702108571857  0.3437323432564697  1.0000
  C   C8        1.0  0.14082138794849888  0.5346269278555766  0.29560888287078774  1.0000
  C   C9        1.0  0.5850350371564657  0.4894037336472295  0.3773297353015011  1.0000
  C   C10       1.0  0.6757833317819215  0.44296615099434417  0.4012162199506762  1.0000
  C   C11       1.0  0.8484916631325274  0.4463548791783439  0.4332612894489999  1.0000
  C   C12       1.0  0.8429077278755553  0.5376108852303645  0.4192588581598359  1.0000
  C   C13       1.0  0.6699683087583564  0.5376115377497398  0.3869983425448425  1.0000
  C   C14       1.0  0.0283275741214694  0.5858468795623963  0.27722803355663933  1.0000
  C   C15       1.0  0.09890897068459018  0.6345985588967977  0.29028235112149053  1.0000
  C   C16       1.0  0.979659914145422  0.6816768471781814  0.27416223295790604  1.0000
  C   C17       1.0  0.7337552700396723  0.6349176687787831  0.23254969743423012  1.0000
  C   C18       1.0  0.8413380098885522  0.5863499948945686  0.24778667366783952  1.0000
  C   C19       1.0  0.5694547369622919  0.6919728256687492  0.6810919700436531  1.0000
  C   C20       1.0  0.7456441469422044  0.649699056825071  0.6736602429303105  1.0000
  C   C21       1.0  0.7271582550035304  0.6037118607145259  0.7034511024651879  1.0000
  C   C22       1.0  0.5372874122101335  0.6029838639707564  0.7411766181763967  1.0000
  C   C23       1.0  0.37179296489604446  0.6470402276924858  0.7469390906867305  1.0000
  C   C24       1.0  0.8940826798802914  0.5550905982993513  0.6944319505613169  1.0000
  C   C25       1.0  0.22990109725358793  0.5112817753341687  0.6562846178593774  1.0000
  C   C26       1.0  0.9704015407234576  0.46547843977813835  0.7043635546647382  1.0000
  C   C27       1.0  0.4514804558255959  0.5106836951838571  0.6227601741508766  1.0000
  C   C28       1.0  0.5200575311969682  0.5571028499553989  0.5988773852101233  1.0000
  C   C29       1.0  0.7286258620654915  0.5536930719459078  0.5670211044001335  1.0000
  C   C30       1.0  0.7993777994760762  0.46241800153586615  0.581025994995727  1.0000
  C   C31       1.0  0.5940356083017309  0.4624589403050691  0.613204394364331  1.0000
  C   C32       1.0  0.8908932862902568  0.41422664124329606  0.722752608583086  1.0000
  C   C33       1.0  0.023592201729023314  0.3655320032765275  0.7097563202845836  1.0000
  C   C34       1.0  0.9358160181381331  0.3183915520263909  0.7259346966773564  1.0000
  C   C35       1.0  0.6013895096786684  0.3649867035159389  0.7675235805878131  1.0000
  C   C36       1.0  0.6750783260834935  0.41360736173508883  0.7521897522322478  1.0000
  C   C37       1.0  0.011397894036164662  0.808064555675486  0.1813640356867552  1.0000
  C   C38       1.0  0.14525486157906195  0.8503788057618775  0.17389143550744282  1.0000
  C   C39       1.0  0.08066350421220377  0.8963867763051709  0.2035938870772966  1.0000
  C   C40       1.0  0.8899271080478285  0.8971089841676088  0.24128860633102536  1.0000
  C   C41       1.0  0.768589838434003  0.8529895593147501  0.24712127081836147  1.0000
  C   C42       1.0  0.19909668863538577  0.9450135925050419  0.19446563469711012  1.0000
  C   C43       1.0  0.4912072289947246  0.9888531250605794  0.15625238698995506  1.0000
  C   C44       1.0  0.18581595610806528  0.034639478466686996  0.20421000619606394  1.0000
  C   C45       1.0  0.7122075610834313  0.9894390126388896  0.12270183349195929  1.0000
  C   C46       1.0  0.8269165506464659  0.9429883527763181  0.09890076742375709  1.0000
  C   C47       1.0  0.03185036168149949  0.9463495299708027  0.0669370550552273  1.0000
  C   C48       1.0  0.011968928901985995  0.0376384114410655  0.08076059848607998  1.0000
  C   C49       1.0  0.8067229605183001  0.037655786849228386  0.11298311981311578  1.0000
  C   C50       1.0  0.05470854693409419  0.08581724761285871  0.222548171859998  1.0000
  C   C51       1.0  0.13817882129451678  0.1345627450321771  0.20940997767587533  1.0000
  C   C52       1.0  0.0031564237017391128  0.18163273449646772  0.22562598488254082  1.0000
  C   C53       1.0  0.7162292821046066  0.1348526118868278  0.26747060401059036  1.0000
  C   C54       1.0  0.8386843771155766  0.0862886125026279  0.25213005070310873  1.0000
  C   C55       1.0  0.0010695270669527788  0.1918477062038662  0.818761766488251  1.0000
  C   C56       1.0  0.16973012046960886  0.1495615768861285  0.8262282478887429  1.0000
  C   C57       1.0  0.1811947277275575  0.1035994935624913  0.7964167737510551  1.0000
  C   C58       1.0  0.02926083904481661  0.10293424522861729  0.7586198531978923  1.0000
  C   C59       1.0  0.8692858995137197  0.14696926812326438  0.752887418747278  1.0000
  C   C60       1.0  0.33894558685539505  0.054960965821173616  0.8055230852508615  1.0000
  C   C61       1.0  0.6364401091419789  0.0111785098968866  0.8437938292471615  1.0000
  C   C62       1.0  0.4251363542612695  0.9653313491627101  0.7957276693319031  1.0000
  C   C63       1.0  0.8244762374698803  0.0106418341106362  0.8773441538097944  1.0000
  C   C64       1.0  0.8688203795524738  0.057080015221543996  0.9012336330390199  1.0000
  C   C65       1.0  0.04521256785712746  0.0537102623855432  0.9331962965442032  1.0000
  C   C66       1.0  0.13065941255259578  0.962464959760851  0.9191749768154908  1.0000
  C   C67       1.0  0.9577189513177579  0.9624583899414106  0.8869310969469526  1.0000
  C   C68       1.0  0.3636531217008563  0.9140830169387683  0.777420368563675  1.0000
  C   C69       1.0  0.4827266348655991  0.8653314858165185  0.7905204764272045  1.0000
  C   C70       1.0  0.41079535963828534  0.818246475809481  0.7743067169674235  1.0000
  C   C71       1.0  0.11847132524554366  0.8649742088925763  0.7326195720611324  1.0000
  C   C72       1.0  0.17736948745123673  0.913547738175197  0.7479205201298316  1.0000
  N   N1        1.0  0.05258359843021046  0.49009911113103755  0.28397264926444177  1.0000
  N   N2        1.0  0.3166165266839015  0.44215970855061937  0.335705156873459  1.0000
  N   N3        1.0  0.31586762099657745  0.5360372934329618  0.324480450006412  1.0000
  N   N4        1.0  0.9306320338175239  0.4927196120195704  0.44193452288212864  1.0000
  N   N5        1.0  0.7923884020106583  0.3096374296869655  0.2830241907242908  1.0000
  N   N6        1.0  0.8004955401829927  0.6817235913807805  0.24585078251706002  1.0000
  N   N7        1.0  0.8259097993653407  0.5099801648139675  0.7158529272146981  1.0000
  N   N8        1.0  0.09416235176983175  0.5579285642146274  0.6641903918980887  1.0000
  N   N9        1.0  0.1759423838471647  0.4640972574760268  0.6756040583035415  1.0000
  N   N10       1.0  0.8654626209865621  0.5073083691715892  0.5584045791927751  1.0000
  N   N11       1.0  0.3851068102940184  0.6903696590758344  0.7166604630388208  1.0000
  N   N12       1.0  0.7285419121852069  0.3182330929225543  0.7542721721496761  1.0000
  N   N13       1.0  0.08583887641216131  0.9901247839351511  0.21578376393434703  1.0000
  N   N14       1.0  0.4020469552544199  0.9421888200123334  0.16424492723314904  1.0000
  N   N15       1.0  0.3900364297392611  0.0360567145259978  0.17547005905797167  1.0000
  N   N16       1.0  0.12258850618461979  0.9927218283672798  0.05820922085887051  1.0000
  N   N17       1.0  0.825406241599168  0.809630537934744  0.21691379818925338  1.0000
  N   N18       1.0  0.7961566189876588  0.18166479127581428  0.25410653211384476  1.0000
  N   N19       1.0  0.29229111383977346  0.009835078539858  0.7841327930401363  1.0000
  N   N20       1.0  0.5085825881913305  0.05780670950471029  0.8358330667534234  1.0000
  N   N21       1.0  0.6018817143966538  0.9639672068642324  0.8245201140494988  1.0000
  N   N22       1.0  0.1736600745714867  0.007356697234392598  0.94183428798911  1.0000
  N   N23       1.0  0.8522453791675271  0.19027503184373978  0.7831815765258201  1.0000
  N   N24       1.0  0.2319995965753414  0.8181760542632122  0.7459011032864994  1.0000
  Cl  Cl1       1.0  0.38524986951667006  0.2778966692276086  0.20972923129979656  1.0000
  Cl  Cl2       1.0  0.411602693257478  0.2283429360089073  0.352228847541909  1.0000
  Cl  Cl3       1.0  0.2656572711713563  0.5795337781822028  0.48887683507759766  1.0000
  Cl  Cl4       1.0  0.8731674911381117  0.7218808278572127  0.7900785941880528  1.0000
  Cl  Cl5       1.0  0.9915181094683159  0.7716622026471854  0.6476455238773512  1.0000
  Cl  Cl6       1.0  0.33312507434406735  0.42034400694537055  0.511437155757598  1.0000
  Cl  Cl7       1.0  0.34539357664506504  0.7778954028625409  0.29028911806494057  1.0000
  Cl  Cl8       1.0  0.5129133643951673  0.7282987481074129  0.14783207028026626  1.0000
  Cl  Cl9       1.0  0.5038879787905656  0.07973822555612739  0.011131121319010642  1.0000
  Cl  Cl10      1.0  0.41376923041724417  0.2220617362076425  0.7097640315631112  1.0000
  Cl  Cl11      1.0  0.3898297227504413  0.27148888849369257  0.8522811785760213  1.0000
  Cl  Cl12      1.0  0.5948748988011723  0.920473855020731  0.9888071018325278  1.0000
