data_image0
_chemical_formula_structural       Cd2Ni2H32C32N24
_chemical_formula_sum              "Cd2 Ni2 H32 C32 N24"
_cell_length_a       7.370540360524885
_cell_length_b       9.777376849078491
_cell_length_c       15.531336305102558
_cell_angle_alpha    90.00013585678236
_cell_angle_beta     90.00034407371201
_cell_angle_gamma    105.29327924565219

_space_group_name_H-M_alt    "P 1"
_space_group_IT_number       1

loop_
  _space_group_symop_operation_xyz
  'x, y, z'

loop_
  _atom_site_type_symbol
  _atom_site_label
  _atom_site_symmetry_multiplicity
  _atom_site_fract_x
  _atom_site_fract_y
  _atom_site_fract_z
  _atom_site_occupancy
  Cd  Cd1       1.0  0.49999722456918505  0.49999870683162567  0.4999986276405293  1.0000
  Cd  Cd2       1.0  4.303973853281526e-07  0.49999928392617937  1.6574234678e-06  1.0000
  Ni  Ni1       1.0  0.9999907010072135  0.9999957180163791  0.4999964924617898  1.0000
  Ni  Ni2       1.0  0.499996621557784  0.9999962985298223  3.385406216699999e-06  1.0000
  H   H1        1.0  0.6912062454214905  0.22157027191479975  0.4425174852178983  1.0000
  H   H2        1.0  0.8087979454579822  0.7784346709578642  0.9425226909596416  1.0000
  H   H3        1.0  0.3087998001253496  0.7784292760045872  0.5574804139409152  1.0000
  H   H4        1.0  0.1912047657028992  0.2215669924945445  0.057478427493975894  1.0000
  H   H5        1.0  0.7422260518037332  0.3540238379690166  0.1820655017417891  1.0000
  H   H6        1.0  0.7577708998314491  0.6459814538867406  0.6820697219396692  1.0000
  H   H7        1.0  0.25776925288280955  0.6459799358858832  0.8179323974047958  1.0000
  H   H8        1.0  0.2422303360742291  0.3540159683062711  0.3179320403683049  1.0000
  H   H9        1.0  0.6259483993176289  0.5522223053864506  0.28118187302157327  1.0000
  H   H10       1.0  0.8740565741279268  0.44778684648071726  0.781182913123949  1.0000
  H   H11       1.0  0.37405541829793515  0.44778253901650084  0.7188205331551814  1.0000
  H   H12       1.0  0.1259471255742993  0.5522137583635566  0.2188194930495015  1.0000
  H   H13       1.0  0.5880127808558981  0.8068554612711338  0.360414081903933  1.0000
  H   H14       1.0  0.9119872285300303  0.1931404421884935  0.8604142099829062  1.0000
  H   H15       1.0  0.41198512061554726  0.1931440764330645  0.6395844611028351  1.0000
  H   H16       1.0  0.08801672206422499  0.8068569834081317  0.13958690846934724  1.0000
  H   H17       1.0  0.0005144669990358344  0.7391716420821056  0.3301138034345214  1.0000
  H   H18       1.0  0.49948714867871047  0.26082964631554967  0.8301155693754366  1.0000
  H   H19       1.0  0.9994892326790673  0.2608289627512547  0.6698853834409206  1.0000
  H   H20       1.0  0.5005130986904404  0.7391688344877777  0.1698855490723048  1.0000
  H   H21       1.0  0.0709676105087809  0.5239353998839178  0.4306942725613325  1.0000
  H   H22       1.0  0.429030334627896  0.4760633846496845  0.9306948677364986  1.0000
  H   H23       1.0  0.9290299221621297  0.4760630775114334  0.5693062020229291  1.0000
  H   H24       1.0  0.5709715209992865  0.5239319186176203  0.0693075384303938  1.0000
  H   H25       1.0  0.778770924097735  0.16505698794659196  0.291485490307835  1.0000
  H   H26       1.0  0.721226310671426  0.834949044356378  0.791489885519489  1.0000
  H   H27       1.0  0.22122463147600505  0.83494360665847  0.7085104772579598  1.0000
  H   H28       1.0  0.27877603167444676  0.1650515587806396  0.20851123293282103  1.0000
  H   H29       1.0  0.3276511078295954  0.8926521987733906  0.2870479033420991  1.0000
  H   H30       1.0  0.1723487557143457  0.1073456165698019  0.7870465758690341  1.0000
  H   H31       1.0  0.6723488886330529  0.10734946127104188  0.7129525712480387  1.0000
  H   H32       1.0  0.8276522292655173  0.8926549848555752  0.21295196714292788  1.0000
  C   C1        1.0  0.6885950184073338  0.2866576586752955  0.38632017589790724  1.0000
  C   C2        1.0  0.8114106757874849  0.7133458461139597  0.8863220735525345  1.0000
  C   C3        1.0  0.3114093009826249  0.7133408272279879  0.6136783671172523  1.0000
  C   C4        1.0  0.18859585650700683  0.2866590016882355  0.1136784010492917  1.0000
  C   C5        1.0  0.7151432702152717  0.3580228312605697  0.25044464337182853  1.0000
  C   C6        1.0  0.7848575391919255  0.6419871673423359  0.7504476473403585  1.0000
  C   C7        1.0  0.2848535097312989  0.6419851838559082  0.7495532557800075  1.0000
  C   C8        1.0  0.21514689813549376  0.35801555813053904  0.24955411497611374  1.0000
  C   C9        1.0  0.6592753902850674  0.455377749370079  0.3007358651228103  1.0000
  C   C10       1.0  0.8407318534019765  0.54462941790527  0.800738884782362  1.0000
  C   C11       1.0  0.34072805849135074  0.5446260347065672  0.6992633217546211  1.0000
  C   C12       1.0  0.1592704889632017  0.45537118524047315  0.19926480910834946  1.0000
  C   C13       1.0  0.43881823517905616  0.7561663236519467  0.36602635539082223  1.0000
  C   C14       1.0  0.061178740413311054  0.24383202226179168  0.8660255559282035  1.0000
  C   C15       1.0  0.561180654833734  0.24383215544411743  0.6339734753357787  1.0000
  C   C16       1.0  0.9388185413559285  0.756169634376846  0.13397491865804764  1.0000
  C   C17       1.0  0.13123783345461254  0.7196881664707107  0.35110251109387036  1.0000
  C   C18       1.0  0.3687621198255613  0.28031538150612073  0.851103288417967  1.0000
  C   C19       1.0  0.8687608056516751  0.28031349186645826  0.6488966757751198  1.0000
  C   C20       1.0  0.6312398536908219  0.7196841613089476  0.14889589845422785  1.0000
  C   C21       1.0  0.1684111647901148  0.6144449674332861  0.40123339494363813  1.0000
  C   C22       1.0  0.3315884336279424  0.3855557396119238  0.9012335778104585  1.0000
  C   C23       1.0  0.8315847596179394  0.3855566874959067  0.5987651480618651  1.0000
  C   C24       1.0  0.6684161366781751  0.6144395670546176  0.0987668967815125  1.0000
  C   C25       1.0  0.8582695669039849  0.8156664323519464  0.5113969756275623  1.0000
  C   C26       1.0  0.6417279095254925  0.18433876566795956  0.0114057383533108  1.0000
  C   C27       1.0  0.1417301785604508  0.18433840689210257  0.4885906217725377  1.0000
  C   C28       1.0  0.3582698740905386  0.8156565325037589  0.9886005309653638  1.0000
  C   C29       1.0  0.07142950155225238  0.00040752464231989983  0.6134843391921192  1.0000
  C   C30       1.0  0.42856578284295205  0.9995912307477821  0.11349190793519168  1.0000
  C   C31       1.0  0.928550134603647  0.9995941098106372  0.3865019704576794  1.0000
  C   C32       1.0  0.5714352022286137  0.00040937071909040006  0.8865188684091903  1.0000
  N   N1        1.0  0.6427179026952459  0.4097210658310857  0.38529582071479496  1.0000
  N   N2        1.0  0.8572893843706239  0.5902792544611091  0.8852950920460427  1.0000
  N   N3        1.0  0.35728641672367434  0.590277420085293  0.6147065854579736  1.0000
  N   N4        1.0  0.14271739884002696  0.4097224141043582  0.1147073141326018  1.0000
  N   N5        1.0  0.7324412877448978  0.2524473578552673  0.305904724496436  1.0000
  N   N6        1.0  0.7675622122888727  0.7475566601222353  0.8059065474393063  1.0000
  N   N7        1.0  0.2675600660354931  0.7475543038789567  0.6940918869380325  1.0000
  N   N8        1.0  0.23244247592574402  0.252442886100809  0.1940932832963682  1.0000
  N   N9        1.0  0.36075841303803463  0.6382192805652737  0.4099946849525722  1.0000
  N   N10       1.0  0.13924218734766208  0.3617761877309036  0.9099942829871209  1.0000
  N   N11       1.0  0.6392451687315628  0.3617770847115906  0.5900051457791662  1.0000
  N   N12       1.0  0.8607569535861187  0.6382191121306063  0.0900081231758918  1.0000
  N   N13       1.0  0.30381050589692643  0.8084468128286133  0.3296474898117906  1.0000
  N   N14       1.0  0.196186912824075  0.19155022773339433  0.8296476427076342  1.0000
  N   N15       1.0  0.696184680885942  0.19155272147197164  0.6703516970506982  1.0000
  N   N16       1.0  0.8038119771887224  0.8084482513626695  0.1703521880189669  1.0000
  N   N17       1.0  0.767022653018188  0.6982326464815928  0.5184315684206949  1.0000
  N   N18       1.0  0.7329702521747805  0.3017630547000961  0.01843754625483029  1.0000
  N   N19       1.0  0.23297142728103634  0.3017637068553469  0.48156246756104787  1.0000
  N   N20       1.0  0.26702567225741086  0.6982386002400174  0.9815642160486816  1.0000
  N   N21       1.0  0.1197554041442643  0.0005690834911575998  0.6857157977268642  1.0000
  N   N22       1.0  0.3802420696734643  0.9994333427819271  0.18572966673163185  1.0000
  N   N23       1.0  0.8802400184169983  0.9994389299049544  0.3142769505462154  1.0000
  N   N24       1.0  0.6197592842179347  0.0005683190025181001  0.814281753473665  1.0000
