data_image0
_chemical_formula_structural       Ag2H22C52S2N6O6F6
_chemical_formula_sum              "Ag2 H22 C52 S2 N6 O6 F6"
_cell_length_a       9.834697312242664
_cell_length_b       13.382253018013392
_cell_length_c       13.526509486048495
_cell_angle_alpha    109.08141599022382
_cell_angle_beta     93.39457373856544
_cell_angle_gamma    93.50187529058238

_space_group_name_H-M_alt    "P 1"
_space_group_IT_number       1

loop_
  _space_group_symop_operation_xyz
  'x, y, z'

loop_
  _atom_site_type_symbol
  _atom_site_label
  _atom_site_symmetry_multiplicity
  _atom_site_fract_x
  _atom_site_fract_y
  _atom_site_fract_z
  _atom_site_occupancy
  Ag  Ag1       1.0  0.2981538037237428  0.4267292507439676  0.6616439937434819  1.0000
  Ag  Ag2       1.0  0.7018483814376424  0.5732726911313435  0.338352905658354  1.0000
  H   H1        1.0  0.6105989869560345  0.4405517883771495  0.9905815552549981  1.0000
  H   H2        1.0  0.3893986911605865  0.5594470527462647  0.009414112648649149  1.0000
  H   H3        1.0  0.8123404883332839  0.49184385297306227  0.12290276977527982  1.0000
  H   H4        1.0  0.1876565051802643  0.5081573864862888  0.8770936273065715  1.0000
  H   H5        1.0  0.9735695381116402  0.7106217154913562  0.9754365552629382  1.0000
  H   H6        1.0  0.026424377817391997  0.2893795835727389  0.024561174781176493  1.0000
  H   H7        1.0  0.7754135215556132  0.6600243116310479  0.843790621989406  1.0000
  H   H8        1.0  0.2245836038633655  0.3399705625874673  0.15620374959827638  1.0000
  H   H9        1.0  0.4975497329457426  0.6908586660698929  0.5085686098020759  1.0000
  H   H10       1.0  0.5024481032723216  0.30914258535084826  0.4914367086691485  1.0000
  H   H11       1.0  0.8814116016637001  0.1990724993418098  0.42146246787760333  1.0000
  H   H12       1.0  0.11859296892550472  0.8009246276686213  0.5785330217791653  1.0000
  H   H13       1.0  0.6889699960327248  0.0578859009773183  0.3578629452054471  1.0000
  H   H14       1.0  0.31103064399031405  0.9421129006442825  0.6421373049212704  1.0000
  H   H15       1.0  0.7934707033251343  0.9448086628029343  0.615220578988044  1.0000
  H   H16       1.0  0.20652703681315637  0.05519179272395998  0.3847837408218239  1.0000
  H   H17       1.0  0.9873910906966614  0.0848076463319671  0.6781968792535052  1.0000
  H   H18       1.0  0.012609755945675313  0.9151927445644574  0.32180462879776434  1.0000
  H   H19       1.0  0.3252172703396852  0.7999780447979746  0.2649290759472579  1.0000
  H   H20       1.0  0.674788989029544  0.20002463527637096  0.7350734529503811  1.0000
  H   H21       1.0  0.12984508119938448  0.5265513193955157  0.319013956575823  1.0000
  H   H22       1.0  0.8701606306107691  0.4734465802900302  0.6809811015573288  1.0000
  C   C1        1.0  0.31518722393001036  0.6004789028327764  0.41814077360800883  1.0000
  C   C2        1.0  0.6848080976783137  0.39952474812978517  0.5818548252443705  1.0000
  C   C3        1.0  0.6776522490716701  0.5497872434266498  0.9114398002794175  1.0000
  C   C4        1.0  0.32235270342154365  0.45020510007917375  0.08855270361322448  1.0000
  C   C5        1.0  0.6890193566029055  0.5011573471851776  0.9893634066011571  1.0000
  C   C6        1.0  0.3109790205765606  0.4988390930894226  0.010630792726097129  1.0000
  C   C7        1.0  0.800867745369601  0.5295379205135191  0.06289805617282698  1.0000
  C   C8        1.0  0.19912983666725378  0.47046012471604837  0.9370966130694498  1.0000
  C   C9        1.0  0.9034804576787893  0.6069925411183945  0.05967773762640152  1.0000
  C   C10       1.0  0.09651671353452683  0.3930102926415132  0.9403213961763369  1.0000
  C   C11       1.0  0.8925740923958614  0.6536314929688912  0.9801688499299459  1.0000
  C   C12       1.0  0.10742189935577774  0.34636976217059595  0.01982675914238286  1.0000
  C   C13       1.0  0.7806734667887055  0.6254966877839789  0.9063790975835673  1.0000
  C   C14       1.0  0.21932400470861776  0.37450056406460414  0.09361531239552079  1.0000
  C   C15       1.0  0.5623360603901234  0.5196349430983175  0.8369633882851915  1.0000
  C   C16       1.0  0.4376704083219209  0.48036054568694914  0.16302724367890428  1.0000
  C   C17       1.0  0.016740511889317095  0.633665602621484  0.13534463509453326  1.0000
  C   C18       1.0  0.9832494548311672  0.36633574911169825  0.8646469853188067  1.0000
  C   C19       1.0  0.1115583398691342  0.6507579033977606  0.2025618556225481  1.0000
  C   C20       1.0  0.8884539614060785  0.349252644650022  0.7974509029454779  1.0000
  C   C21       1.0  0.41952301632858985  0.6832701088375258  0.44552859007625045  1.0000
  C   C22       1.0  0.5804714233785616  0.3167351621571938  0.554471915080164  1.0000
  C   C23       1.0  0.9468428516542813  0.14867575661553895  0.5524556631460484  1.0000
  C   C24       1.0  0.053160647289267615  0.8513293657193515  0.4475497159015944  1.0000
  C   C25       1.0  0.8627821520585923  0.1418526863814975  0.46210520719692033  1.0000
  C   C26       1.0  0.13722274501063234  0.8581476342557793  0.537897234697951  1.0000
  C   C27       1.0  0.7547637326522647  0.063779186755113  0.42758525480725507  1.0000
  C   C28       1.0  0.2452359583093511  0.9362204339790665  0.5724174241657991  1.0000
  C   C29       1.0  0.7287143576465381  0.9917223237447955  0.4820917861285778  1.0000
  C   C30       1.0  0.2712787290818  0.008281398783900298  0.5179140670754236  1.0000
  C   C31       1.0  0.8132725340039072  0.0006310082655715969  0.5734164857986528  1.0000
  C   C32       1.0  0.186724454371074  0.9993710446776872  0.426586085731735  1.0000
  C   C33       1.0  0.921425266988031  0.0782657443558321  0.608421637754887  1.0000
  C   C34       1.0  0.0785748423507471  0.9217362414440868  0.3915773826187418  1.0000
  C   C35       1.0  0.05907147855811699  0.22681487812726428  0.5875397305527059  1.0000
  C   C36       1.0  0.9409283136218322  0.773184725016847  0.4124577726331751  1.0000
  C   C37       1.0  0.6203146540144218  0.9109079001970385  0.44674789825646133  1.0000
  C   C38       1.0  0.3796724748429908  0.08909671984492455  0.5532564437462497  1.0000
  C   C39       1.0  0.5284598637108147  0.8396176960735175  0.41849729518740025  1.0000
  C   C40       1.0  0.47153645693590107  0.16039471977281028  0.5815122465326041  1.0000
  C   C41       1.0  0.42333573202196106  0.755891461152515  0.3901557489029486  1.0000
  C   C42       1.0  0.5766544888797256  0.24411309677184076  0.6098465207393389  1.0000
  C   C43       1.0  0.32237325829279934  0.7441075673835155  0.308105698487914  1.0000
  C   C44       1.0  0.6776232954776802  0.2558984656319153  0.6918966419507413  1.0000
  C   C45       1.0  0.2160910319630176  0.6624036850145104  0.2828580759106528  1.0000
  C   C46       1.0  0.7839108818338828  0.3376038337463996  0.7171420685185055  1.0000
  C   C47       1.0  0.2121545989487217  0.5898974979872377  0.3385250216404501  1.0000
  C   C48       1.0  0.7878447875462554  0.4101060802033132  0.6614707716573632  1.0000
  C   C49       1.0  0.3177479903872751  0.5238737426735227  0.4701428912744348  1.0000
  C   C50       1.0  0.6822495338105341  0.47612431260750293  0.5298547355605194  1.0000
  C   C51       1.0  0.21704056469516084  0.7506914978116371  0.8130624406543916  1.0000
  C   C52       1.0  0.7829646744339342  0.24929136160954357  0.18694849184952736  1.0000
  S   S1        1.0  0.09184451868379281  0.6522430826182487  0.7132296787248933  1.0000
  S   S2        1.0  0.9081603112251811  0.3477564370994486  0.2867702857122865  1.0000
  N   N1        1.0  0.4654173891301027  0.49332531095627974  0.7776042136874253  1.0000
  N   N2        1.0  0.5345869510588487  0.5066694183211522  0.22238532239258998  1.0000
  N   N3        1.0  0.15257605446797837  0.2897762094574147  0.6172124331954905  1.0000
  N   N4        1.0  0.8474243602933669  0.7102193809472794  0.3827756889059515  1.0000
  N   N5        1.0  0.32600823208444746  0.4593290013696957  0.510324329564753  1.0000
  N   N6        1.0  0.6739795992067955  0.5406787469645947  0.4896677403237106  1.0000
  O   O1        1.0  0.11594511921214953  0.5521219777905557  0.731851436654317  1.0000
  O   O2        1.0  0.8840478503789768  0.44787135982222276  0.2681355673780388  1.0000
  O   O3        1.0  0.95977256523895  0.6908386966402132  0.7417658370975673  1.0000
  O   O4        1.0  0.0402346431917024  0.3091631643215536  0.2582342629537351  1.0000
  O   O5        1.0  0.13589529478198864  0.6590035586111751  0.614542477882722  1.0000
  O   O6        1.0  0.8641160914898973  0.34100699003954554  0.3854650562867761  1.0000
  F   F1        1.0  0.20896233354194746  0.8499944022983854  0.8072806744459697  1.0000
  F   F2        1.0  0.7910438374652954  0.14999642108698194  0.19274172346787566  1.0000
  F   F3        1.0  0.19352978492923967  0.7554739124233975  0.9129140587241977  1.0000
  F   F4        1.0  0.8064654528081832  0.2445027586612412  0.08709288337561823  1.0000
  F   F5        1.0  0.34787998247793434  0.7251863860265643  0.7980069301382855  1.0000
  F   F6        1.0  0.6521273348888313  0.274804396550003  0.20200886180340658  1.0000
