data_image0
_chemical_formula_structural       Cd4H16C28N16O12
_chemical_formula_sum              "Cd4 H16 C28 N16 O12"
_cell_length_a       8.894131510384142
_cell_length_b       9.650951725751574
_cell_length_c       10.743983897004936
_cell_angle_alpha    89.99998082931755
_cell_angle_beta     89.99990593752747
_cell_angle_gamma    111.03705780104043

_space_group_name_H-M_alt    "P 1"
_space_group_IT_number       1

loop_
  _space_group_symop_operation_xyz
  'x, y, z'

loop_
  _atom_site_type_symbol
  _atom_site_label
  _atom_site_symmetry_multiplicity
  _atom_site_fract_x
  _atom_site_fract_y
  _atom_site_fract_z
  _atom_site_occupancy
  Cd  Cd1       1.0  0.8496352133527695  0.6955460219243933  0.2764247142188765  1.0000
  Cd  Cd2       1.0  0.6503665720094247  0.30445463725462935  0.7764247266802754  1.0000
  Cd  Cd3       1.0  0.1503660457287523  0.30445437743079407  0.7235750247038695  1.0000
  Cd  Cd4       1.0  0.34963468707208983  0.6955457621005579  0.22357501224247045  1.0000
  H   H1        1.0  0.8613203740453912  0.5831599480934458  0.9757965828577324  1.0000
  H   H2        1.0  0.6386800595174904  0.4168382548097257  0.4757960096585733  1.0000
  H   H3        1.0  0.1386811445928231  0.4168382309699368  0.024203156065162497  1.0000
  H   H4        1.0  0.36132007521636916  0.5831621445153985  0.5242027985114888  1.0000
  H   H5        1.0  0.2842298177886846  0.22083512725482282  0.3489131783495907  1.0000
  H   H6        1.0  0.21577060884860808  0.7791648639412828  0.8489120295409762  1.0000
  H   H7        1.0  0.7157696249912886  0.7791663822003514  0.651086560574221  1.0000
  H   H8        1.0  0.784230217836864  0.220834425252697  0.1510877093822316  1.0000
  H   H9        1.0  0.07567819929149519  0.039040413165359715  0.0881236786678983  1.0000
  H   H10       1.0  0.4243228643785528  0.9609598866710628  0.5881231227648982  1.0000
  H   H11       1.0  0.9243226273939767  0.960958876028613  0.9118760602553021  1.0000
  H   H12       1.0  0.5756783947018249  0.0390405126835773  0.4118775469112919  1.0000
  H   H13       1.0  0.08687215059342891  0.0483303510314173  0.25269297812749864  1.0000
  H   H14       1.0  0.4131265219404129  0.9516675336865321  0.7526924402208338  1.0000
  H   H15       1.0  0.9131271193472016  0.9516678279707378  0.747306760796924  1.0000
  H   H16       1.0  0.5868720560463387  0.048331755445673315  0.2473082294573459  1.0000
  C   C1        1.0  0.7518639589863129  0.5113164323816122  0.0213313506377233  1.0000
  C   C2        1.0  0.7481364603546793  0.48868230834386134  0.521331175190049  1.0000
  C   C3        1.0  0.2481368676980225  0.4886828568118133  0.9786693190389215  1.0000
  C   C4        1.0  0.2518643663307927  0.5113169808501113  0.47866856373315153  1.0000
  C   C5        1.0  0.5717007948127915  0.4112048284012886  0.1627362048534025  1.0000
  C   C6        1.0  0.9283001439105265  0.5887959652966757  0.6627348237720483  1.0000
  C   C7        1.0  0.4282997723148442  0.5887966810839416  0.8372644648230859  1.0000
  C   C8        1.0  0.07170068277608273  0.41120332389785125  0.3372639843977154  1.0000
  C   C9        1.0  0.52514622824188  0.3316003614048669  0.051554026641135  1.0000
  C   C10       1.0  0.9748534253215339  0.668399453683314  0.5515534892601223  1.0000
  C   C11       1.0  0.4748532145380934  0.6684011480503073  0.9484457122826767  1.0000
  C   C12       1.0  0.025148093316687433  0.3315987253800686  0.4484462496627727  1.0000
  C   C13       1.0  0.37829828096251816  0.2069832045878002  0.0426673112097333  1.0000
  C   C14       1.0  0.1217015098405342  0.7930193693076079  0.5426653554515966  1.0000
  C   C15       1.0  0.6216989131221453  0.7930183048072478  0.9573305662087249  1.0000
  C   C16       1.0  0.87830087359319  0.206981030079838  0.4573315912100566  1.0000
  C   C17       1.0  0.3571296911339915  0.26012312964925144  0.2654208160987181  1.0000
  C   C18       1.0  0.14286825835841205  0.739875850136933  0.7654188473997648  1.0000
  C   C19       1.0  0.6428681949000037  0.739877269613551  0.7345798535797596  1.0000
  C   C20       1.0  0.8571314439782609  0.26012343902643664  0.23458089152420306  1.0000
  C   C21       1.0  0.15440311915971713  0.044906318557743  0.1680157767636743  1.0000
  C   C22       1.0  0.3455973169619568  0.9550927765667936  0.6680143989243489  1.0000
  C   C23       1.0  0.845597707524618  0.9550929706356827  0.8319848929129706  1.0000
  C   C24       1.0  0.6544023853747233  0.04490651259657601  0.3319853399996191  1.0000
  C   C25       1.0  0.19595419095102073  0.9047459391250072  0.1722924323697654  1.0000
  C   C26       1.0  0.30404441842208746  0.0952542610379652  0.672291367457376  1.0000
  C   C27       1.0  0.8040470681282272  0.09525446022907863  0.8277091680598686  1.0000
  C   C28       1.0  0.6959541595646571  0.9047450280942401  0.3277093022207964  1.0000
  N   N1        1.0  0.6411083020848449  0.3962392097886251  0.963110591051503  1.0000
  N   N2        1.0  0.8588903461651468  0.6037601182284293  0.4631096626189829  1.0000
  N   N3        1.0  0.3588907082979418  0.6037611895047874  0.0368900786262074  1.0000
  N   N4        1.0  0.141110480521462  0.3962391709660977  0.5368891455507807  1.0000
  N   N5        1.0  0.7144705628889484  0.5260614580988731  0.1416210180427058  1.0000
  N   N6        1.0  0.7855288706664113  0.47393825039610965  0.6416207961370688  1.0000
  N   N7        1.0  0.2855306961914295  0.47393894125576  0.8583796516334771  1.0000
  N   N8        1.0  0.21447013971637574  0.5260621488973031  0.3583798735406488  1.0000
  N   N9        1.0  0.4902391218265548  0.37670021123505393  0.2725754099144666  1.0000
  N   N10       1.0  0.009761058886567853  0.6232987601448627  0.7725736570099286  1.0000
  N   N11       1.0  0.509761012905031  0.6233001880889688  0.7274252597624836  1.0000
  N   N12       1.0  0.9902375191013133  0.3767005289878966  0.22742608191479968  1.0000
  N   N13       1.0  0.29768885942048945  0.17866768932785257  0.15994602703559477  1.0000
  N   N14       1.0  0.20230978011255735  0.8213325254475166  0.6599439532043476  1.0000
  N   N15       1.0  0.7023105833583473  0.8213338201267676  0.840054642641661  1.0000
  N   N16       1.0  0.7976906141780019  0.1786656535858029  0.3400548549658708  1.0000
  O   O1        1.0  0.3195181422770617  0.1288720629989726  0.9503679042183321  1.0000
  O   O2        1.0  0.18048220937449597  0.8711311385796847  0.45036713869200895  1.0000
  O   O3        1.0  0.6804825976910535  0.8711327769398239  0.0496318347041012  1.0000
  O   O4        1.0  0.8195186173121131  0.1288681506148421  0.5496316694777548  1.0000
  O   O5        1.0  0.34319296356217416  0.9206894674856086  0.1823072369118677  1.0000
  O   O6        1.0  0.15680787004272645  0.07931072088498331  0.6823082385066568  1.0000
  O   O7        1.0  0.6568082955182105  0.0793109318690242  0.817693432764315  1.0000
  O   O8        1.0  0.8431922646888597  0.9206896784390397  0.31769243117029317  1.0000
  O   O9        1.0  0.08284084228381529  0.778339027749226  0.16673220706947228  1.0000
  O   O10       1.0  0.4171589050180772  0.22166117902381902  0.6667328121308953  1.0000
  O   O11       1.0  0.9171588600517282  0.2216602614135894  0.8332684626079396  1.0000
  O   O12       1.0  0.5828412297123722  0.7783392202996569  0.33326878829949885  1.0000
