data_image0
_chemical_formula_structural       CoH50C40N2O4
_chemical_formula_sum              "Co1 H50 C40 N2 O4"
_cell_length_a       8.39630223925013
_cell_length_b       11.109531293228308
_cell_length_c       11.579995828374239
_cell_angle_alpha    104.5193725053395
_cell_angle_beta     97.97974964396761
_cell_angle_gamma    96.13481101691774

_space_group_name_H-M_alt    "P 1"
_space_group_IT_number       1

loop_
  _space_group_symop_operation_xyz
  'x, y, z'

loop_
  _atom_site_type_symbol
  _atom_site_label
  _atom_site_symmetry_multiplicity
  _atom_site_fract_x
  _atom_site_fract_y
  _atom_site_fract_z
  _atom_site_occupancy
  Co  Co1       1.0  0.9999975418113534  0.4999989628015127  0.9999998676588858  1.0000
  H   H1        1.0  0.6592916746265302  0.42823415585829844  0.9839691768571226  1.0000
  H   H2        1.0  0.34071081081393834  0.5717669277314387  0.016039336298646775  1.0000
  H   H3        1.0  0.4769221411919631  0.2375452211643463  0.9856500595105401  1.0000
  H   H4        1.0  0.5230772937251231  0.7624587114711402  0.014362273159925158  1.0000
  H   H5        1.0  0.9078964448463437  0.0643478172020977  0.04697341546879836  1.0000
  H   H6        1.0  0.0920987677289489  0.9356467386622781  0.9530224080363678  1.0000
  H   H7        1.0  0.07222197729533518  0.2673562027443949  0.045815204821600675  1.0000
  H   H8        1.0  0.9277778390767111  0.7326373729809602  0.9541817279302974  1.0000
  H   H9        1.0  0.6535467909019348  0.9390485322232391  0.023362139335318846  1.0000
  H   H10       1.0  0.34645775612566604  0.06095065315986401  0.9766400885320009  1.0000
  H   H11       1.0  0.010972319144954695  0.2179804800834261  0.484421681744905  1.0000
  H   H12       1.0  0.9890280282155216  0.7820215664264932  0.5155773399221599  1.0000
  H   H13       1.0  0.6815253285682347  0.45634162515586507  0.6438951446498038  1.0000
  H   H14       1.0  0.31846705808704456  0.5436567211828346  0.35610042997593166  1.0000
  H   H15       1.0  0.1620596811959985  0.0757595383699368  0.5242862987581843  1.0000
  H   H16       1.0  0.8379410638545154  0.9242443888607282  0.47571148878888875  1.0000
  H   H17       1.0  0.3737605131192083  0.11521436300310475  0.5811223307629376  1.0000
  H   H18       1.0  0.6262377855333058  0.8847895822475422  0.41888125052550856  1.0000
  H   H19       1.0  0.2738776263352563  0.2118666896469391  0.5027609617390993  1.0000
  H   H20       1.0  0.7261278955986727  0.7881371967368763  0.49724076932884737  1.0000
  H   H21       1.0  0.20018460416520867  0.20078401265396195  0.8633181929008555  1.0000
  H   H22       1.0  0.7998195375820175  0.7992189441152958  0.136681443679798  1.0000
  H   H23       1.0  0.3252986504989153  0.10154385679034306  0.7816435526169343  1.0000
  H   H24       1.0  0.6747034940570558  0.8984610008560306  0.21835374091682513  1.0000
  H   H25       1.0  0.11028626866182378  0.07258921042394915  0.7364633053590023  1.0000
  H   H26       1.0  0.8897172829899419  0.9274109255312408  0.2635373195681082  1.0000
  H   H27       1.0  0.3853592331720463  0.40307169241643936  0.6853675194927644  1.0000
  H   H28       1.0  0.6146445237643262  0.5969293841661738  0.31463162554081947  1.0000
  H   H29       1.0  0.4915846854091015  0.2974113247117742  0.7471744659653509  1.0000
  H   H30       1.0  0.5084110915033122  0.7025860508984749  0.2528238205275031  1.0000
  H   H31       1.0  0.3676144757762572  0.39266605221222745  0.8334981499911646  1.0000
  H   H32       1.0  0.632388458870942  0.6073369142346434  0.16650222637633758  1.0000
  H   H33       1.0  0.8978953838691198  0.45648203373543345  0.37921037742822244  1.0000
  H   H34       1.0  0.10210339733881572  0.5435181433336496  0.620785441144477  1.0000
  H   H35       1.0  0.783387650110221  0.3429699779529257  0.24948182906541655  1.0000
  H   H36       1.0  0.21661333357357657  0.657029238866464  0.7505148526606432  1.0000
  H   H37       1.0  0.9560123125856634  0.3052367381217422  0.3333460228845054  1.0000
  H   H38       1.0  0.04399046185404389  0.6947652895670514  0.6666497935417935  1.0000
  H   H39       1.0  0.7812074109765916  0.1129328374669782  0.3644567016132925  1.0000
  H   H40       1.0  0.21879596758850547  0.8870663591960338  0.6355410890396769  1.0000
  H   H41       1.0  0.6124756839919385  0.14797199184812365  0.2744473865662442  1.0000
  H   H42       1.0  0.3875210882963103  0.8520244331900385  0.7255525028668186  1.0000
  H   H43       1.0  0.5979961900709441  0.132330590946772  0.4223229098045563  1.0000
  H   H44       1.0  0.4020099488675442  0.8676704649453624  0.5776790698229917  1.0000
  H   H45       1.0  0.5047874798566809  0.3475245327748978  0.4723791013637281  1.0000
  H   H46       1.0  0.4952170929292664  0.652474653676407  0.5276196751694612  1.0000
  H   H47       1.0  0.5265869178929066  0.3596914809701984  0.32499729140691597  1.0000
  H   H48       1.0  0.4734130575358789  0.6403086858871774  0.6749995130460034  1.0000
  H   H49       1.0  0.6272848981377237  0.48025367942201286  0.4543373576685211  1.0000
  H   H50       1.0  0.37272087530867276  0.5197454970846279  0.5456615419113502  1.0000
  C   C1        1.0  0.7071310689029318  0.3448927614290156  0.9980361449279226  1.0000
  C   C2        1.0  0.29286743618493466  0.6551064720751041  0.001970644707178254  1.0000
  C   C3        1.0  0.6077320704124317  0.23751581290083823  0.9985048316077181  1.0000
  C   C4        1.0  0.39226800726756755  0.7624852903111687  0.0015042982882178357  1.0000
  C   C5        1.0  0.67676557942643  0.1309966900756336  0.01315234770730459  1.0000
  C   C6        1.0  0.3232321355702085  0.869004434627996  0.9868513590940536  1.0000
  C   C7        1.0  0.8476199001088957  0.1425936336938705  0.03167409085427407  1.0000
  C   C8        1.0  0.15237966475068282  0.8574046519086593  0.9683256733856991  1.0000
  C   C9        1.0  0.939995047553552  0.25353654709889645  0.031314686131850115  1.0000
  C   C10       1.0  0.06000431846100441  0.7464607981432607  0.9686856951681263  1.0000
  C   C11       1.0  0.582126029345048  0.012464409428780198  0.009544842977590009  1.0000
  C   C12       1.0  0.4178748963824646  0.9875348049871628  0.9904596042502828  1.0000
  C   C13       1.0  0.8841124967850148  0.4293278551854627  0.7644304264292427  1.0000
  C   C14       1.0  0.11588189350111121  0.5706685905431712  0.2355666284098489  1.0000
  C   C15       1.0  0.02715012241530701  0.3716026038108565  0.77854571944777  1.0000
  C   C16       1.0  0.9728434520212376  0.6283957320490855  0.2214517038917164  1.0000
  C   C17       1.0  0.07537674141959631  0.2937484835803089  0.6760083932119157  1.0000
  C   C18       1.0  0.924618418488251  0.706251722521621  0.3239896447213367  1.0000
  C   C19       1.0  0.9762435566586732  0.27683748698986926  0.564448784434795  1.0000
  C   C20       1.0  0.02375401744922808  0.7231626997568339  0.43554777392475313  1.0000
  C   C21       1.0  0.8341510348903755  0.33293894672619473  0.5485904133668171  1.0000
  C   C22       1.0  0.16584956398256884  0.6670583899065434  0.45140577681216587  1.0000
  C   C23       1.0  0.78878346394513  0.4097123612145737  0.6498483272967875  1.0000
  C   C24       1.0  0.21121212700143843  0.5902840745693964  0.35014885058899375  1.0000
  C   C25       1.0  0.2302900924964746  0.23378193318048088  0.6888931414759156  1.0000
  C   C26       1.0  0.7697112631190066  0.7662191632914526  0.31110575746429686  1.0000
  C   C27       1.0  0.2604291835417172  0.15474687618293353  0.5668085362596216  1.0000
  C   C28       1.0  0.739572941695485  0.8452579806622962  0.43319134577473745  1.0000
  C   C29       1.0  0.2157443287354113  0.14695548732252917  0.7732047920707215  1.0000
  C   C30       1.0  0.7842584199459425  0.8530465392980701  0.22679447568970795  1.0000
  C   C31       1.0  0.37783191333630833  0.3380041764958008  0.7424823712354466  1.0000
  C   C32       1.0  0.6221670409582886  0.6619969398654603  0.25751628161139445  1.0000
  C   C33       1.0  0.7389406431903821  0.30907444139587165  0.42052212615122636  1.0000
  C   C34       1.0  0.26106274825389164  0.6909247558012409  0.579473938834674  1.0000
  C   C35       1.0  0.8510832661657445  0.3560589402221979  0.34116273540437436  1.0000
  C   C36       1.0  0.1489167092630481  0.6439412266351708  0.6588340690485451  1.0000
  C   C37       1.0  0.6794513072687282  0.16721711959173996  0.36741084813652947  1.0000
  C   C38       1.0  0.32054947113046955  0.8327811566002269  0.6325873134830644  1.0000
  C   C39       1.0  0.5909310961962432  0.3782451673988304  0.4185431917903272  1.0000
  C   C40       1.0  0.40907127411384175  0.6217549793021673  0.5814547215894945  1.0000
  N   N1        1.0  0.8702334263842957  0.35212589305222514  0.012658312363221588  1.0000
  N   N2        1.0  0.12976712097194817  0.6478714414441242  0.9873447804840365  1.0000
  O   O1        1.0  0.10896123462378429  0.3973951386805936  0.8915472651940419  1.0000
  O   O2        1.0  0.8910323269335904  0.602603196645255  0.10845188381252058  1.0000
  O   O3        1.0  0.8484817372623964  0.5027787702860278  0.8648958702132743  1.0000
  O   O4        1.0  0.15151182429497106  0.49721956503981335  0.13510327879328082  1.0000
