data_image0
_chemical_formula_structural       Zn4H5C17N3O13
_chemical_formula_sum              "Zn4 H5 C17 N3 O13"
_cell_length_a       10.866359598937445
_cell_length_b       10.877248522989598
_cell_length_c       13.222490893517195
_cell_angle_alpha    99.9923719467022
_cell_angle_beta     99.08198653894688
_cell_angle_gamma    95.96298837036804

_space_group_name_H-M_alt    "P 1"
_space_group_IT_number       1

loop_
  _space_group_symop_operation_xyz
  'x, y, z'

loop_
  _atom_site_type_symbol
  _atom_site_label
  _atom_site_symmetry_multiplicity
  _atom_site_fract_x
  _atom_site_fract_y
  _atom_site_fract_z
  _atom_site_occupancy
  Zn  Zn1       1.0  0.4231123891970299  0.6191025623345681  0.5785853142490396  1.0000
  Zn  Zn2       1.0  0.6038305394301062  0.4151902730723977  0.6038840522178643  1.0000
  Zn  Zn3       1.0  0.6196047555060036  0.5789805703809494  0.42764533923263304  1.0000
  Zn  Zn4       1.0  0.3807219750524311  0.36533793113981977  0.3982132906555691  1.0000
  H   H1        1.0  0.4916963907283929  0.40316798775001683  0.9075344727409913  1.0000
  H   H2        1.0  0.3786098474267661  0.9709151718161451  0.4742561911059794  1.0000
  H   H3        1.0  0.43774878843273507  0.3358559857644821  0.062123253340459365  1.0000
  H   H4        1.0  0.5354925294179226  0.6928788833020577  0.9287575774884756  1.0000
  H   H5        1.0  0.9771045941953602  0.45469008755332413  0.3938276284205101  1.0000
  C   C1        1.0  0.8378619462479623  0.49737745467214717  0.5396036760389435  1.0000
  C   C2        1.0  0.47976369936323954  0.16250611987180014  0.49388921769807576  1.0000
  C   C3        1.0  0.1734152258503769  0.4826815445585808  0.47710507932649887  1.0000
  C   C4        1.0  0.4779390097803856  0.4450597904726052  0.22229736694065133  1.0000
  C   C5        1.0  0.5232003768367619  0.5644224397914996  0.7789425498922  1.0000
  C   C6        1.0  0.5248365298542056  0.5933514594710376  0.892570447446829  1.0000
  C   C7        1.0  0.507066302443569  0.5016278904767832  0.9475602038101839  1.0000
  C   C8        1.0  0.5537110418869631  0.8235272924751558  0.5050706057782008  1.0000
  C   C9        1.0  0.4729652310759108  0.42957306425243763  0.10842094720332081  1.0000
  C   C10       1.0  0.5075322265662408  0.5246382505983503  0.05948523508700277  1.0000
  C   C11       1.0  0.03552023152938233  0.4796403299140836  0.4712734833820064  1.0000
  C   C12       1.0  0.47220755971353884  0.025104369721958605  0.4927293617270081  1.0000
  C   C13       1.0  0.5455827386067895  0.6523226446934204  0.11405779531929737  1.0000
  C   C14       1.0  0.04441986747132631  0.5297571153329271  0.6607423289545621  1.0000
  C   C15       1.0  0.7005928226957748  0.022924924094297708  0.5299020180895866  1.0000
  C   C16       1.0  0.9790200264932238  0.5027638368060183  0.5553589796259643  1.0000
  C   C17       1.0  0.5733396715363243  0.9639424525957243  0.5099730680613703  1.0000
  N   N1        1.0  0.5751428154662079  0.7595410459486516  0.14869952967706715  1.0000
  N   N2        1.0  0.0939022323238206  0.5531126633973145  0.7481854625026401  1.0000
  N   N3        1.0  0.8063400739081957  0.06665092612294642  0.5476807539449238  1.0000
  O   O1        1.0  0.504114674843315  0.4909002756582909  0.4994727923114936  1.0000
  O   O2        1.0  0.5716054084753921  0.2322560741146376  0.556331236825919  1.0000
  O   O3        1.0  0.6412272074985594  0.7631199916605101  0.47824611662835537  1.0000
  O   O4        1.0  0.7852079322565758  0.5201226951356261  0.45300506176833005  1.0000
  O   O5        1.0  0.3921943352476235  0.19641518312231906  0.4327954052518166  1.0000
  O   O6        1.0  0.2084587764133374  0.4064305080254869  0.4059232904401853  1.0000
  O   O7        1.0  0.5503439968594677  0.5403080304475482  0.2789123043132519  1.0000
  O   O8        1.0  0.5527839845646199  0.4577213489345268  0.7400396910820745  1.0000
  O   O9        1.0  0.4918116376028223  0.6501152395708873  0.7284795813265816  1.0000
  O   O10       1.0  0.4103572193710292  0.3611817616179351  0.2537999018461008  1.0000
  O   O11       1.0  0.7852633584229879  0.47168388798944977  0.6140602472242022  1.0000
  O   O12       1.0  0.45125900298572935  0.7790642223279959  0.5284717653075504  1.0000
  O   O13       1.0  0.24250469393540905  0.5623863575450444  0.5515414991780361  1.0000
