data_image0
_chemical_formula_structural       Mn4H28C24N36O4
_chemical_formula_sum              "Mn4 H28 C24 N36 O4"
_cell_length_a       9.525245273997243
_cell_length_b       10.277121347651097
_cell_length_c       10.878454137162683
_cell_angle_alpha    100.01224767820074
_cell_angle_beta     90.01371378234325
_cell_angle_gamma    89.99789371640038

_space_group_name_H-M_alt    "P 1"
_space_group_IT_number       1

loop_
  _space_group_symop_operation_xyz
  'x, y, z'

loop_
  _atom_site_type_symbol
  _atom_site_label
  _atom_site_symmetry_multiplicity
  _atom_site_fract_x
  _atom_site_fract_y
  _atom_site_fract_z
  _atom_site_occupancy
  Mn  Mn1       1.0  0.8781477107574673  0.8761270549088914  0.4746471991625113  1.0000
  Mn  Mn2       1.0  0.37817990786659555  0.6238390154792552  0.525296449863383  1.0000
  Mn  Mn3       1.0  0.1218153936984478  0.12382375078255588  0.5252657999710876  1.0000
  Mn  Mn4       1.0  0.6218755779244489  0.37609384131122425  0.47457932633780325  1.0000
  H   H1        1.0  0.5647037647997736  0.9160663203573732  0.3574581963587916  1.0000
  H   H2        1.0  0.06465522112303292  0.5839130576699957  0.6425158025713029  1.0000
  H   H3        1.0  0.4352908455875594  0.08394817892514783  0.6425420932982958  1.0000
  H   H4        1.0  0.9353288922956083  0.4160875363920977  0.3574930380419588  1.0000
  H   H5        1.0  0.5706587486870873  0.6704658762850568  0.9907306905000011  1.0000
  H   H6        1.0  0.0707744624782904  0.8295275698238099  0.0092117080168848  1.0000
  H   H7        1.0  0.4293379633086117  0.3295364155954487  0.009281875644973098  1.0000
  H   H8        1.0  0.9292306445259582  0.17049330942226948  0.990776363216433  1.0000
  H   H9        1.0  0.4377619722153626  0.8299071454593445  0.15189406447384354  1.0000
  H   H10       1.0  0.9377951235987751  0.670091690614967  0.8480589815042946  1.0000
  H   H11       1.0  0.5622494374614391  0.17009399357610278  0.8481175792547899  1.0000
  H   H12       1.0  0.062197388760843415  0.3299112092286477  0.15195170790994436  1.0000
  H   H13       1.0  0.19281353910552212  0.5186757153308719  0.06515092674610659  1.0000
  H   H14       1.0  0.6928622135676009  0.9813562326668827  0.9348719232794235  1.0000
  H   H15       1.0  0.8071768735083255  0.48134812555619527  0.9348623641022796  1.0000
  H   H16       1.0  0.3071271483975266  0.018645395718621692  0.06513223188888159  1.0000
  H   H17       1.0  0.1802107210979429  0.5390190601630065  0.23302110309773374  1.0000
  H   H18       1.0  0.6802205358877131  0.9609745294758554  0.7669873118229587  1.0000
  H   H19       1.0  0.8197660431179942  0.4609780752395166  0.7669849648652088  1.0000
  H   H20       1.0  0.3197971723844688  0.039005913227967384  0.23301798778970098  1.0000
  H   H21       1.0  0.23075759248610692  0.6760802080687185  0.16204770062599747  1.0000
  H   H22       1.0  0.7307471809668799  0.8239328616415231  0.8379851671890248  1.0000
  H   H23       1.0  0.7692622168351236  0.32395030547134934  0.8379748801889872  1.0000
  H   H24       1.0  0.26922538524787853  0.17607828995385685  0.16203292126428437  1.0000
  H   H25       1.0  0.10668560907151203  0.7091013285769134  0.36156873195659495  1.0000
  H   H26       1.0  0.6066607228549259  0.7908914639828238  0.6384569752640487  1.0000
  H   H27       1.0  0.893317401374546  0.2908990838950912  0.6384391772243487  1.0000
  H   H28       1.0  0.39332549136511136  0.20907471017824256  0.3615550062672525  1.0000
  C   C1        1.0  0.8087982350529828  0.7291681358033983  0.20725845075514826  1.0000
  C   C2        1.0  0.3088200999647412  0.7708349581141857  0.7927376037759044  1.0000
  C   C3        1.0  0.19118902691816692  0.27083604303992087  0.7927438089890869  1.0000
  C   C4        1.0  0.6911902563312539  0.22916400885123517  0.20724787581085738  1.0000
  C   C5        1.0  0.6133243577658193  0.8483071049215738  0.2809160612366098  1.0000
  C   C6        1.0  0.11330456715975153  0.6516865875512394  0.719075495136053  1.0000
  C   C7        1.0  0.38665765619680315  0.15171285096591447  0.7190972665575045  1.0000
  C   C8        1.0  0.8867057903572972  0.3483151670168424  0.28091930915844177  1.0000
  C   C9        1.0  0.9561490930554656  0.6930476008725108  0.23499755706940556  1.0000
  C   C10       1.0  0.4561482685191223  0.8069517352450007  0.7649864628874566  1.0000
  C   C11       1.0  0.043850766499232904  0.30696884091234006  0.7650027142250407  1.0000
  C   C12       1.0  0.5438452907020732  0.19304079623764636  0.2350009479668032  1.0000
  C   C13       1.0  0.6186893017201456  0.7145028528956485  0.07921510832825619  1.0000
  C   C14       1.0  0.11878448375286872  0.7855169228957164  0.9207464719018076  1.0000
  C   C15       1.0  0.381303211011904  0.28551261006469275  0.9208001346855637  1.0000
  C   C16       1.0  0.8812195738856728  0.2144996450310899  0.07924444675514049  1.0000
  C   C17       1.0  0.5449600436897342  0.8014410560348961  0.16914394393026555  1.0000
  C   C18       1.0  0.0449857823445825  0.6985662111643975  0.8308247090704483  1.0000
  C   C19       1.0  0.455056613126196  0.19856106181997998  0.8308527278585345  1.0000
  C   C20       1.0  0.9550214245088641  0.3014408890235244  0.16916256136338598  1.0000
  C   C21       1.0  0.16584509452615492  0.586539096829135  0.15092646800668055  1.0000
  C   C22       1.0  0.6658551446419808  0.9134866484975458  0.849094514616574  1.0000
  C   C23       1.0  0.8341652655984008  0.41349050850917  0.8490914447339148  1.0000
  C   C24       1.0  0.334125819437638  0.08651722256296068  0.15091616412823325  1.0000
  N   N1        1.0  0.8083097037500551  0.7342975246910937  0.5811169335683813  1.0000
  N   N2        1.0  0.3083553722841117  0.7657347118282016  0.41886377413271697  1.0000
  N   N3        1.0  0.19166916141181642  0.26570646493421884  0.4188993549116446  1.0000
  N   N4        1.0  0.6916633870713369  0.23427759275946158  0.58115524313029  1.0000
  N   N5        1.0  0.0314856403058101  0.9599436706863999  0.6142911260531037  1.0000
  N   N6        1.0  0.5314824085883886  0.5400679384876312  0.38572234588567506  1.0000
  N   N7        1.0  0.9685226183142035  0.04005723120166488  0.38570929743349314  1.0000
  N   N8        1.0  0.46853109561847356  0.4599406854296077  0.6142527529679497  1.0000
  N   N9        1.0  0.7456834248049945  0.8118186379794491  0.30056221412210954  1.0000
  N   N10       1.0  0.24564734949110797  0.6881684769927856  0.6994450480179423  1.0000
  N   N11       1.0  0.2543153842251514  0.18817577293962268  0.6994298549087218  1.0000
  N   N12       1.0  0.7543714047732664  0.3118183532136739  0.300533069144798  1.0000
  N   N13       1.0  0.8019265072522759  0.6173271728908885  0.5628856371977448  1.0000
  N   N14       1.0  0.30192841127810516  0.882701954980483  0.43717792209373124  1.0000
  N   N15       1.0  0.1980681118896683  0.3826790998479409  0.437177389957128  1.0000
  N   N16       1.0  0.6980903544311944  0.11730061447323688  0.5628860788404849  1.0000
  N   N17       1.0  0.7958955218174283  0.5004667911272802  0.5484249082181875  1.0000
  N   N18       1.0  0.2958578771368822  0.9995595527009368  0.4516832313389329  1.0000
  N   N19       1.0  0.20412323817955522  0.49955145949918023  0.45159966225912024  1.0000
  N   N20       1.0  0.7041398878671005  0.0004443663422434726  0.5483526986985294  1.0000
  N   N21       1.0  0.7519163316824092  0.67902273875562  0.0971373400266273  1.0000
  N   N22       1.0  0.25200099268140974  0.8210024743936513  0.9028568452270418  1.0000
  N   N23       1.0  0.2480824780720923  0.3209737332229777  0.9028603200460876  1.0000
  N   N24       1.0  0.7480125114840491  0.1790080920132269  0.09711823471279499  1.0000
  N   N25       1.0  0.0025454776237837005  0.986854251989065  0.7239168472848688  1.0000
  N   N26       1.0  0.5024881014026336  0.5132066950943821  0.27607977291287256  1.0000
  N   N27       1.0  0.9974911276549535  0.013145007683562006  0.2760901414638681  1.0000
  N   N28       1.0  0.4974750112485751  0.48679816229162737  0.72390096843295  1.0000
  N   N29       1.0  0.9760787690131069  0.014807107031181516  0.8299434510151684  1.0000
  N   N30       1.0  0.4760317798389907  0.4852274304157474  0.17005816667625595  1.0000
  N   N31       1.0  0.023926341323800702  0.9851475383695597  0.17005929290459676  1.0000
  N   N32       1.0  0.5239355332764717  0.5147379692144369  0.8299248296760878  1.0000
  N   N33       1.0  0.0040388939565261005  0.7331756976751505  0.34581349927422167  1.0000
  N   N34       1.0  0.5040276803842901  0.766786734677268  0.6541872042312419  1.0000
  N   N35       1.0  0.9959525670713278  0.2668130043271261  0.6541842356820381  1.0000
  N   N36       1.0  0.4959585293032375  0.23318182343474084  0.34579202261181047  1.0000
  O   O1        1.0  0.019809533182737496  0.6205294838635992  0.13707890496171155  1.0000
  O   O2        1.0  0.5198184289724352  0.8795170488167299  0.8629018498224141  1.0000
  O   O3        1.0  0.9802029239140924  0.3795011633524154  0.8629193589691581  1.0000
  O   O4        1.0  0.4801709313991013  0.12048124705877676  0.13709018038877466  1.0000
