data_image0
_chemical_formula_structural       Na4H40C52Br4N8O12
_chemical_formula_sum              "Na4 H40 C52 Br4 N8 O12"
_cell_length_a       6.777184144856484
_cell_length_b       13.248264630102268
_cell_length_c       18.265733383430327
_cell_angle_alpha    89.99657794930903
_cell_angle_beta     89.99907971873043
_cell_angle_gamma    84.45987640798036

_space_group_name_H-M_alt    "P 1"
_space_group_IT_number       1

loop_
  _space_group_symop_operation_xyz
  'x, y, z'

loop_
  _atom_site_type_symbol
  _atom_site_label
  _atom_site_symmetry_multiplicity
  _atom_site_fract_x
  _atom_site_fract_y
  _atom_site_fract_z
  _atom_site_occupancy
  Na  Na1       1.0  0.8820343435779421  0.515077133009278  0.08405230885426818  1.0000
  Na  Na2       1.0  0.6179948015326531  0.4848939961005242  0.5840551637944029  1.0000
  Na  Na3       1.0  0.11802947111195287  0.484950057433906  0.9159473126293558  1.0000
  Na  Na4       1.0  0.3819604022436777  0.5150882599847647  0.4159461021103396  1.0000
  H   H1        1.0  0.8394059805001107  0.7224756349375878  0.02803267920118909  1.0000
  H   H2        1.0  0.6606460680590871  0.2775148151229416  0.5280311119685733  1.0000
  H   H3        1.0  0.16060061298963996  0.2775707817161077  0.971990483496192  1.0000
  H   H4        1.0  0.3393083768937116  0.7224871147344485  0.4719575615117363  1.0000
  H   H5        1.0  0.6265949561546549  0.6920062854836644  0.04715386449793609  1.0000
  H   H6        1.0  0.8734427103714706  0.30798237339389084  0.5471607862588712  1.0000
  H   H7        1.0  0.3734272457231852  0.3080203376821729  0.9528594441215712  1.0000
  H   H8        1.0  0.1265222844666667  0.6919834515211463  0.4528437648726963  1.0000
  H   H9        1.0  0.66674546202713  0.2848945051117937  0.6987346595819373  1.0000
  H   H10       1.0  0.8331981124197155  0.7150854676121413  0.19872303511753833  1.0000
  H   H11       1.0  0.33314505363730973  0.7151059079826679  0.30127153352842834  1.0000
  H   H12       1.0  0.1667456720358587  0.28494955231246877  0.8013039606453629  1.0000
  H   H13       1.0  0.5662616864073796  0.5932807035258134  0.7385270168085966  1.0000
  H   H14       1.0  0.9336265122493969  0.40669791910901404  0.23852671586828925  1.0000
  H   H15       1.0  0.4337904450424404  0.40671169272985  0.26148191276588045  1.0000
  H   H16       1.0  0.0664343098589697  0.5933286935788045  0.7614460794640363  1.0000
  H   H17       1.0  0.610610386063442  0.5670039341283298  0.8736744878253402  1.0000
  H   H18       1.0  0.8892845020858006  0.4329723554552273  0.3736744417587658  1.0000
  H   H19       1.0  0.3895196268830858  0.43300576497852455  0.12632896599532725  1.0000
  H   H20       1.0  0.1107695080444557  0.5669904879905587  0.6263027351748605  1.0000
  H   H21       1.0  0.6077523435626373  0.27863122775478644  0.19920369947567446  1.0000
  H   H22       1.0  0.892145413385215  0.7213144255011625  0.6991940080251806  1.0000
  H   H23       1.0  0.39233087892622365  0.7213985933659471  0.8007975642196781  1.0000
  H   H24       1.0  0.10780542715519909  0.2786703528859817  0.3007984982683424  1.0000
  H   H25       1.0  0.4194838893972772  0.1494780185823714  0.26105554568688655  1.0000
  H   H26       1.0  0.08043646868073037  0.8504451990294084  0.7610567168007731  1.0000
  H   H27       1.0  0.5805656599786531  0.850565111402737  0.7389550249185672  1.0000
  H   H28       1.0  0.9195981338066447  0.14951501337411338  0.23893086233213973  1.0000
  H   H29       1.0  0.2634623456543039  0.022258606619629997  0.1866016096306993  1.0000
  H   H30       1.0  0.23645328540740707  0.9776738147598178  0.686599029785327  1.0000
  H   H31       1.0  0.7364989951453325  0.9778093515100179  0.81341224573935  1.0000
  H   H32       1.0  0.7635952205305543  0.022260665307086897  0.3133704833478318  1.0000
  H   H33       1.0  0.29945058903775384  0.0219682312238945  0.050312834674805594  1.0000
  H   H34       1.0  0.20043731440048157  0.9780010483830066  0.550312381031844  1.0000
  H   H35       1.0  0.7005008845110298  0.9780738854142894  0.949698284114248  1.0000
  H   H36       1.0  0.7995509500123674  0.021951326631622702  0.44966041686358665  1.0000
  H   H37       1.0  0.48154436154344893  0.1530790076828765  0.9894933266573528  1.0000
  H   H38       1.0  0.018342669094351994  0.8468938397510113  0.48949245992839946  1.0000
  H   H39       1.0  0.5184703179145344  0.8469450393165301  0.010512864933964696  1.0000
  H   H40       1.0  0.9815791468106383  0.1530692463428949  0.5104923825433045  1.0000
  C   C1        1.0  0.6673854388882318  0.3246920208513302  0.8143193842475112  1.0000
  C   C2        1.0  0.8326062372169433  0.6752956567229942  0.31431161745097563  1.0000
  C   C3        1.0  0.33266557219390336  0.675310255635736  0.18569447231985944  1.0000
  C   C4        1.0  0.1673435666897376  0.3247012612407544  0.6857049773351703  1.0000
  C   C5        1.0  0.6481525136850621  0.34568159149560523  0.7392724010396134  1.0000
  C   C6        1.0  0.8517702679013153  0.6543077830374525  0.23926169870490804  1.0000
  C   C7        1.0  0.3517798376539573  0.6543254147969506  0.2607381713827266  1.0000
  C   C8        1.0  0.14817427500179997  0.3457075639936844  0.7607488734013683  1.0000
  C   C9        1.0  0.5938484043997929  0.5172159273605812  0.7616432535605211  1.0000
  C   C10       1.0  0.9060880739777842  0.4827652799339859  0.26161995644984154  1.0000
  C   C11       1.0  0.40619829916737876  0.4827903778960944  0.2383667706125223  1.0000
  C   C12       1.0  0.09396164911271399  0.5172423584587874  0.7383484596999706  1.0000
  C   C13       1.0  0.6162124555595055  0.5026959157046916  0.8364184888873606  1.0000
  C   C14       1.0  0.8837122870187457  0.4972725094505036  0.3364034577629126  1.0000
  C   C15       1.0  0.383840343676212  0.4973145601865311  0.1635827755560015  1.0000
  C   C16       1.0  0.11630774371426608  0.5026953568642795  0.663569886955244  1.0000
  C   C17       1.0  0.6535937981725864  0.4043043003145215  0.864962926121329  1.0000
  C   C18       1.0  0.8463944098338132  0.5956715326444239  0.3649539077992755  1.0000
  C   C19       1.0  0.3464675047646608  0.5956951048367144  0.1350449082485596  1.0000
  C   C20       1.0  0.15360789048587253  0.4042988878865542  0.6350473581059858  1.0000
  C   C21       1.0  0.698885908919621  0.3966698277318486  0.9459477998501453  1.0000
  C   C22       1.0  0.8011018788496287  0.6033133280278233  0.4459482951794839  1.0000
  C   C23       1.0  0.3011744683504887  0.6033447310422274  0.05405729673989158  1.0000
  C   C24       1.0  0.1988818560370332  0.3966370478463119  0.5540683006610649  1.0000
  C   C25       1.0  0.6583152815860344  0.30804903588971644  0.05670017829618249  1.0000
  C   C26       1.0  0.8416188572510067  0.6919043955923598  0.5566791343480161  1.0000
  C   C27       1.0  0.34173332157661207  0.6919684817066241  0.9433071081866371  1.0000
  C   C28       1.0  0.158316521149132  0.3080639305363633  0.44330899272341623  1.0000
  C   C29       1.0  0.5509964687175497  0.2259824013061262  0.09076096228523058  1.0000
  C   C30       1.0  0.9488470181641161  0.7739841770712913  0.5907497513292483  1.0000
  C   C31       1.0  0.4490260948250365  0.7740540151185866  0.9092441339618272  1.0000
  C   C32       1.0  0.0510498506883152  0.22598717424479986  0.4092301638278001  1.0000
  C   C33       1.0  0.5361831146467253  0.22292004919645336  0.16736798397892014  1.0000
  C   C34       1.0  0.9636799213522876  0.7770348148558311  0.6673553023464931  1.0000
  C   C35       1.0  0.4638616819361517  0.7771150566723647  0.8326371121498111  1.0000
  C   C36       1.0  0.036275282182842296  0.22294744179310297  0.33262734946850964  1.0000
  C   C37       1.0  0.43260504586579174  0.1503143711967496  0.20158450949544715  1.0000
  C   C38       1.0  0.067315086157187  0.8496078409743361  0.7015820772625998  1.0000
  C   C39       1.0  0.5674248730473082  0.8497201017258857  0.7984216817007802  1.0000
  C   C40       1.0  0.9326884734813915  0.15035646631523747  0.2983994797672266  1.0000
  C   C41       1.0  0.3450280622894154  0.07866341749709699  0.15947984451742767  1.0000
  C   C42       1.0  0.15485338751150823  0.9212892286010398  0.6594815270114224  1.0000
  C   C43       1.0  0.6549284422102273  0.9213942566405604  0.8405268940194544  1.0000
  C   C44       1.0  0.8451780835566254  0.07866663879187286  0.3405027674243826  1.0000
  C   C45       1.0  0.36402172598549504  0.07908011679551658  0.08326047814242087  1.0000
  C   C46       1.0  0.1359037803231899  0.920876696667463  0.5832640900051869  1.0000
  C   C47       1.0  0.6359829676746712  0.9209550880655893  0.916747355628672  1.0000
  C   C48       1.0  0.8640802880946268  0.07908271986993037  0.4167207521351982  1.0000
  C   C49       1.0  0.46583549177978517  0.15258098506306078  0.04888517284312138  1.0000
  C   C50       1.0  0.0340466406801738  0.8473940035725819  0.5488871597585001  1.0000
  C   C51       1.0  0.5341825417045528  0.8474534334645084  0.951122660856981  1.0000
  C   C52       1.0  0.9658858846713587  0.15257751043136378  0.4511042520837589  1.0000
  Br  Br1       1.0  0.7306079115520346  0.1868304539677083  0.841579816413933  1.0000
  Br  Br2       1.0  0.7693814508648416  0.8131542410283289  0.3415641895611542  1.0000
  Br  Br3       1.0  0.2694063225711004  0.8131815402784138  0.15842035330916804  1.0000
  Br  Br4       1.0  0.2305244231067221  0.18681959792333905  0.6584611657421319  1.0000
  N   N1        1.0  0.6115886190359417  0.4402245313935468  0.7133482716946273  1.0000
  N   N2        1.0  0.8883524811165343  0.5597577441075359  0.21334230339726895  1.0000
  N   N3        1.0  0.3883693472550434  0.5597922890471309  0.2866683224829031  1.0000
  N   N4        1.0  0.11165736198469739  0.4402560190324961  0.7866523915750602  1.0000
  N   N5        1.0  0.6129963555500523  0.3257920258518112  0.9840041316217093  1.0000
  N   N6        1.0  0.8869431161603385  0.6741811621254996  0.48400223953764493  1.0000
  N   N7        1.0  0.38706097386450017  0.6742204476547327  0.016003702413485095  1.0000
  N   N8        1.0  0.1130197286892169  0.3257666705243807  0.5160099767329314  1.0000
  O   O1        1.0  0.8110644173428979  0.4605228235548394  0.9685214025145111  1.0000
  O   O2        1.0  0.6889408513957561  0.5394338107032438  0.4685248101752462  1.0000
  O   O3        1.0  0.18902364850134754  0.5394772693852515  0.03146891250685969  1.0000
  O   O4        1.0  0.3110605862601402  0.46051325721519715  0.5314780988031911  1.0000
  O   O5        1.0  0.7745012458945482  0.35303092089416316  0.09564208338546357  1.0000
  O   O6        1.0  0.7253796730132934  0.6469399573812781  0.5956311724366472  1.0000
  O   O7        1.0  0.2255181305220262  0.6469996440190328  0.9043558958940565  1.0000
  O   O8        1.0  0.2745153168962133  0.35306094735808796  0.4043602388518294  1.0000
  O   O9        1.0  0.7681802137450545  0.6875357390572673  0.06490810772494628  1.0000
  O   O10       1.0  0.7318516223227859  0.3124424010442012  0.5649156568796483  1.0000
  O   O11       1.0  0.23183737453923212  0.31248662640204117  0.9351041060982649  1.0000
  O   O12       1.0  0.26811085333132206  0.6875356516301564  0.4350861565642815  1.0000
