data_image0
_chemical_formula_structural       Zn4H28C32N4O24
_chemical_formula_sum              "Zn4 H28 C32 N4 O24"
_cell_length_a       4.919090757002003
_cell_length_b       10.8923615810042
_cell_length_c       17.22468144300126
_cell_angle_alpha    89.99997310145756
_cell_angle_beta     89.9999660913867
_cell_angle_gamma    89.99990256416066

_space_group_name_H-M_alt    "P 1"
_space_group_IT_number       1

loop_
  _space_group_symop_operation_xyz
  'x, y, z'

loop_
  _atom_site_type_symbol
  _atom_site_label
  _atom_site_symmetry_multiplicity
  _atom_site_fract_x
  _atom_site_fract_y
  _atom_site_fract_z
  _atom_site_occupancy
  Zn  Zn1       1.0  0.019317607074476894  0.27343270513327417  0.47811620397950355  1.0000
  Zn  Zn2       1.0  0.5193156166013393  0.7265674715723308  0.5218841054945997  1.0000
  Zn  Zn3       1.0  0.5193180732366898  0.7734326179137267  0.0218823990754302  1.0000
  Zn  Zn4       1.0  0.019319216231750095  0.226567558790542  0.9781173298360599  1.0000
  H   H1        1.0  0.1149079475219281  0.4845530552157555  0.5747327568630354  1.0000
  H   H2        1.0  0.6149089819381073  0.515446129924932  0.4252669556995201  1.0000
  H   H3        1.0  0.6149096206324954  0.9845554082476368  0.9252680086743579  1.0000
  H   H4        1.0  0.11491137461493386  0.015445613040142797  0.0747328650121162  1.0000
  H   H5        1.0  0.8563559856307986  0.4953484313676526  0.5169615219225818  1.0000
  H   H6        1.0  0.35635506336113554  0.5046505681493868  0.48303872990669555  1.0000
  H   H7        1.0  0.3563576943459453  0.995349287682373  0.9830391992695766  1.0000
  H   H8        1.0  0.856359453330576  0.0046515479814246  0.016961052558919196  1.0000
  H   H9        1.0  0.8765792617907593  0.6228387839411623  0.2567598830821538  1.0000
  H   H10       1.0  0.3765782863241327  0.37716111810265573  0.7432409458504026  1.0000
  H   H11       1.0  0.3765792765475878  0.12283905397592317  0.2432387014120323  1.0000
  H   H12       1.0  0.8765803044604609  0.8771626842164508  0.7567615469578257  1.0000
  H   H13       1.0  0.09636593380823649  0.706730947275517  0.13642563703444208  1.0000
  H   H14       1.0  0.5963689394316559  0.2932682521192049  0.8635746592615163  1.0000
  H   H15       1.0  0.5963716469708443  0.20673349347275397  0.36357239112291495  1.0000
  H   H16       1.0  0.09637339074507169  0.7932675420669426  0.6364284857341785  1.0000
  H   H17       1.0  0.442906186134266  0.3237477055246956  0.2538234785002516  1.0000
  H   H18       1.0  0.9429059585801621  0.6762521455274423  0.7461761779635836  1.0000
  H   H19       1.0  0.9428980614695629  0.8237456075825665  0.2461750378937353  1.0000
  H   H20       1.0  0.4429018858676414  0.1762551615490366  0.7538240380087514  1.0000
  H   H21       1.0  0.7646283672280559  0.30962395975322476  0.1591714847940793  1.0000
  H   H22       1.0  0.2646300795302777  0.6903751102830356  0.8408276215989474  1.0000
  H   H23       1.0  0.2646222355470442  0.8096212544615754  0.3408276466435751  1.0000
  H   H24       1.0  0.764630112522056  0.190377815576575  0.6591726208745  1.0000
  H   H25       1.0  0.8048612629423602  0.4274221177630153  0.08861863597145  1.0000
  H   H26       1.0  0.3048571752123052  0.572577839418706  0.9113816246652958  1.0000
  H   H27       1.0  0.304859052593116  0.9274202756302972  0.41137987474414217  1.0000
  H   H28       1.0  0.8048614184610229  0.07257784540153271  0.588620385892682  1.0000
  C   C1        1.0  0.014605221837868498  0.42039446403605046  0.337324029758939  1.0000
  C   C2        1.0  0.5146034959116008  0.5796047982177656  0.6626762805212464  1.0000
  C   C3        1.0  0.514603366828254  0.9203933491577203  0.1626756937099074  1.0000
  C   C4        1.0  0.014607383812652596  0.0796086673191994  0.8373240360074519  1.0000
  C   C5        1.0  0.1479631828833234  0.4687457551215672  0.2656605671770719  1.0000
  C   C6        1.0  0.6479635250016357  0.5312534046064386  0.7343397202942512  1.0000
  C   C7        1.0  0.6479571153450647  0.9687464206151758  0.2343391198238649  1.0000
  C   C8        1.0  0.14796349384666024  0.0312554933388398  0.7656611676475931  1.0000
  C   C9        1.0  0.051439078513290284  0.577683614498518  0.23026367900335737  1.0000
  C   C10       1.0  0.5514417908401227  0.42231561943611245  0.7697360444143655  1.0000
  C   C11       1.0  0.5514368522327685  0.0776843975883708  0.2697332321704877  1.0000
  C   C12       1.0  0.0514419842211709  0.9223166724961442  0.7302664912471499  1.0000
  C   C13       1.0  0.1716381017573028  0.6237911341086573  0.1645713007159983  1.0000
  C   C14       1.0  0.6716408530183314  0.3762080074174816  0.8354284021436553  1.0000
  C   C15       1.0  0.6716377738650293  0.1237918660663269  0.335426157436423  1.0000
  C   C16       1.0  0.17164321380543154  0.8762072754585759  0.664574706547576  1.0000
  C   C17       1.0  0.3898920091776502  0.5596598846421017  0.1277706105230152  1.0000
  C   C18       1.0  0.8898944438443194  0.44034092524062624  0.872229055007665  1.0000
  C   C19       1.0  0.8898936388308484  0.05966058795544881  0.3722268284176592  1.0000
  C   C20       1.0  0.3898968799842847  0.9403393038509407  0.6277734176750656  1.0000
  C   C21       1.0  0.3592584792707498  0.40810869955016216  0.2302271012097776  1.0000
  C   C22       1.0  0.8592564878450231  0.5918912158108611  0.7697719889985135  1.0000
  C   C23       1.0  0.8592523391854313  0.908107501315513  0.2697719862206327  1.0000
  C   C24       1.0  0.35925449634336803  0.0918933321227371  0.7302282651127497  1.0000
  C   C25       1.0  0.6555654545909917  0.37083388385781285  0.119292663780918  1.0000
  C   C26       1.0  0.1555632496970745  0.6291661881013654  0.8807070418279892  1.0000
  C   C27       1.0  0.15555720835796188  0.8708329836768837  0.3807058884559211  1.0000
  C   C28       1.0  0.65556133145175  0.1291661702116471  0.6192938171539808  1.0000
  C   C29       1.0  0.49566822233605007  0.2948164773193581  0.0598344042531522  1.0000
  C   C30       1.0  0.9956654558561266  0.7051842512453134  0.9401646626244399  1.0000
  C   C31       1.0  0.9956617333628653  0.7948169826098808  0.4401646918516278  1.0000
  C   C32       1.0  0.4956658461452576  0.2051809917330232  0.5598355361513895  1.0000
  N   N1        1.0  0.4724867112817321  0.4498865826467053  0.1634984204945908  1.0000
  N   N2        1.0  0.972486773277083  0.5501132456639439  0.8365012309099598  1.0000
  N   N3        1.0  0.972480434567963  0.9498853324745016  0.3365000552054198  1.0000
  N   N4        1.0  0.47248695130452467  0.0501135777639377  0.6634995961997844  1.0000
  O   O1        1.0  0.14131575287900938  0.3351218001663057  0.374433570677823  1.0000
  O   O2        1.0  0.6413137821665414  0.664878282747658  0.6255667179305036  1.0000
  O   O3        1.0  0.6413160067500809  0.8351197960965777  0.12556615520886538  1.0000
  O   O4        1.0  0.14132165987780348  0.1648812048888146  0.8744341333986299  1.0000
  O   O5        1.0  0.7871482954377169  0.46586822919051224  0.3545097613143184  1.0000
  O   O6        1.0  0.28715099544216116  0.5341299054573695  0.6454899217893485  1.0000
  O   O7        1.0  0.28714459661343017  0.9658656759380191  0.14548990269444315  1.0000
  O   O8        1.0  0.7871506284686375  0.0341352129348564  0.8545103609714458  1.0000
  O   O9        1.0  0.6213745437830552  0.2364140546922683  0.0074938111306792985  1.0000
  O   O10       1.0  0.12137363723185497  0.7635851254776753  0.9925059003260444  1.0000
  O   O11       1.0  0.12136810152624376  0.736416739790478  0.4925059460516437  1.0000
  O   O12       1.0  0.6213719479063399  0.26358152230803705  0.5074937654059041  1.0000
  O   O13       1.0  0.23881383727304945  0.2943382564380599  0.06695966691279412  1.0000
  O   O14       1.0  0.7388131164778924  0.7056635876691217  0.9330388633329462  1.0000
  O   O15       1.0  0.7388073628942065  0.7943360130508027  0.4330394732582121  1.0000
  O   O16       1.0  0.23881145927839492  0.20566215876083754  0.5669602181132589  1.0000
  O   O17       1.0  0.5092941612531731  0.5908955133757414  0.06588962564658368  1.0000
  O   O18       1.0  0.0092926748133522  0.4091046710356494  0.9341106855418245  1.0000
  O   O19       1.0  0.009297850988573898  0.0908965529214214  0.4341078695647909  1.0000
  O   O20       1.0  0.5093011824563688  0.9091027134109595  0.565891861060436  1.0000
  O   O21       1.0  0.034590366506364496  0.45476158644016346  0.5243016465935  1.0000
  O   O22       1.0  0.53458915269902  0.5452385785235166  0.4756986602683781  1.0000
  O   O23       1.0  0.5345919363582181  0.954763900219568  0.9756985605347949  1.0000
  O   O24       1.0  0.034593681534680294  0.045237182816769896  0.0243005852019138  1.0000
