data_image0
_chemical_formula_structural       Cu8H32C56I8N16
_chemical_formula_sum              "Cu8 H32 C56 I8 N16"
_cell_length_a       9.521254753245655
_cell_length_b       11.350306958091691
_cell_length_c       13.81161900924517
_cell_angle_alpha    89.99984274863425
_cell_angle_beta     89.99932165829757
_cell_angle_gamma    90.00043906775429

_space_group_name_H-M_alt    "P 1"
_space_group_IT_number       1

loop_
  _space_group_symop_operation_xyz
  'x, y, z'

loop_
  _atom_site_type_symbol
  _atom_site_label
  _atom_site_symmetry_multiplicity
  _atom_site_fract_x
  _atom_site_fract_y
  _atom_site_fract_z
  _atom_site_occupancy
  Cu  Cu1       1.0  0.73453916892489  0.34760971621973624  0.506315188136405  1.0000
  Cu  Cu2       1.0  0.2654593469211265  0.1523870362984994  0.0063158727131736  1.0000
  Cu  Cu3       1.0  0.2345424873241981  0.6523893105234252  0.9936892097831915  1.0000
  Cu  Cu4       1.0  0.7654586835588546  0.8476112940196857  0.4936874712588447  1.0000
  Cu  Cu5       1.0  0.26545857391764127  0.6523894028290728  0.4936839766351753  1.0000
  Cu  Cu6       1.0  0.7345404964685687  0.8476138448189375  0.9936861881600619  1.0000
  Cu  Cu7       1.0  0.7654626074681232  0.34761157060976444  0.006313575096200499  1.0000
  Cu  Cu8       1.0  0.2345359084363778  0.15238870605109164  0.5063124175530191  1.0000
  H   H1        1.0  0.9868796741266334  0.3701638304736152  0.6657993957720121  1.0000
  H   H2        1.0  0.013117216229041202  0.1298341270903478  0.1658015119293381  1.0000
  H   H3        1.0  0.48688126286491945  0.6298350695973627  0.8341985509253076  1.0000
  H   H4        1.0  0.5131215335530753  0.8701634488766958  0.3342024910412533  1.0000
  H   H5        1.0  0.0131149178746668  0.6298361695984269  0.334199769011768  1.0000
  H   H6        1.0  0.986877375788403  0.8701667540176604  0.8341962047973368  1.0000
  H   H7        1.0  0.5131133291344768  0.37016316840905733  0.16579988983229293  1.0000
  H   H8        1.0  0.48687936016695227  0.12983743225426284  0.6657937776029499  1.0000
  H   H9        1.0  0.17063401825183183  0.4792576296871901  0.7601536815135432  1.0000
  H   H10       1.0  0.829360238770505  0.020741760390350805  0.2601579051047551  1.0000
  H   H11       1.0  0.6706409538071371  0.5207436260192538  0.7398432856922097  1.0000
  H   H12       1.0  0.3293676268034673  0.9792552220195888  0.23984635331427734  1.0000
  H   H13       1.0  0.8293637245967744  0.5207414893628837  0.2398447592299533  1.0000
  H   H14       1.0  0.17064065491116756  0.9792573586674038  0.7398419836817497  1.0000
  H   H15       1.0  0.3293609901602679  0.479256374075341  0.26015660308895855  1.0000
  H   H16       1.0  0.6706343172002106  0.020747421180395503  0.7601506393517283  1.0000
  H   H17       1.0  0.19108721876990836  0.6955778543604866  0.7501139899690228  1.0000
  H   H18       1.0  0.8089033347328752  0.8044236008463629  0.2501184978385993  1.0000
  H   H19       1.0  0.691097277278793  0.30442353390483856  0.7498864265782783  1.0000
  H   H20       1.0  0.3089160570905847  0.19557324899924572  0.24988737943106534  1.0000
  H   H21       1.0  0.8089105240988204  0.3044230267589968  0.24988300271641609  1.0000
  H   H22       1.0  0.19109755893057917  0.19557551820759767  0.7498835630321493  1.0000
  H   H23       1.0  0.3089078174772554  0.6955747041229758  0.2501192544162762  1.0000
  H   H24       1.0  0.6910848366131289  0.8044293941935339  0.7501117853235684  1.0000
  H   H25       1.0  0.02761963306638651  0.81309327293625  0.6448987853293743  1.0000
  H   H26       1.0  0.9723726857001938  0.6869067876852456  0.14490218114919878  1.0000
  H   H27       1.0  0.5276279118173335  0.18690441280772768  0.8551022721672153  1.0000
  H   H28       1.0  0.4723805064249831  0.3130911215699115  0.3551037792152556  1.0000
  H   H29       1.0  0.972379160080095  0.18690672715320036  0.3550982073526328  1.0000
  H   H30       1.0  0.02762925826721129  0.31309321240935634  0.8550977076319696  1.0000
  H   H31       1.0  0.4723792834921314  0.8130929441921851  0.1449041328476  1.0000
  H   H32       1.0  0.5276182866829798  0.6869097595441219  0.6448982816623641  1.0000
  C   C1        1.0  0.905710959358359  0.5314782574557811  0.6028163583354385  1.0000
  C   C2        1.0  0.09428731684892709  0.9685184260289293  0.10281923987343328  1.0000
  C   C3        1.0  0.40571318059509315  0.4685209975970539  0.8971866102918753  1.0000
  C   C4        1.0  0.5942882299046489  0.031476151844550805  0.3971862574227387  1.0000
  C   C5        1.0  0.09428678348625401  0.4685199805608491  0.3971820824090101  1.0000
  C   C6        1.0  0.9057125265409455  0.031479811990713806  0.8971813729464841  1.0000
  C   C7        1.0  0.594288763335868  0.5314790024899524  0.1028176226577742  1.0000
  C   C8        1.0  0.40571266379108545  0.9685247292813489  0.602812907333785  1.0000
  C   C9        1.0  0.9956321387734519  0.46582823894764414  0.6618026212790153  1.0000
  C   C10       1.0  0.0043627180848063  0.034172375668674704  0.1618050164190024  1.0000
  C   C11       1.0  0.49564119594800354  0.5341733609716783  0.8381952523005223  1.0000
  C   C12       1.0  0.504363634003667  0.9658251435554064  0.3381961635542154  1.0000
  C   C13       1.0  0.004364553793237699  0.5341735231968201  0.33819726752219026  1.0000
  C   C14       1.0  0.9956360750556003  0.9658276244195038  0.8381927002910885  1.0000
  C   C15       1.0  0.5043607480013534  0.465823996021328  0.161805360511579  1.0000
  C   C16       1.0  0.4956372597245178  0.03417485654463801  0.6617986570347725  1.0000
  C   C17       1.0  0.097265089799194  0.5273592549006098  0.7142498317349321  1.0000
  C   C18       1.0  0.9027250151292204  0.9726396824640986  0.21425391816794806  1.0000
  C   C19       1.0  0.597271869629168  0.4726424063385438  0.7857499201910442  1.0000
  C   C20       1.0  0.40273246079107133  0.02735689437958651  0.2857511757063449  1.0000
  C   C21       1.0  0.9027284519144703  0.4726381020689631  0.2857486090279977  1.0000
  C   C22       1.0  0.0972716774154279  0.027358555545333698  0.7857466946651285  1.0000
  C   C23       1.0  0.4027269234584807  0.5273593558038812  0.21425503679795102  1.0000
  C   C24       1.0  0.5972684329470042  0.9726466298529604  0.7142443689069323  1.0000
  C   C25       1.0  0.1091758947390389  0.6512801812832338  0.7084538038681599  1.0000
  C   C26       1.0  0.8908153577398038  0.8487223004640116  0.20845680840077557  1.0000
  C   C27       1.0  0.6091867059389672  0.3487224381938533  0.7915465726119635  1.0000
  C   C28       1.0  0.390823828904928  0.1512750802311729  0.2915483849148544  1.0000
  C   C29       1.0  0.890820797833726  0.3487215808624954  0.291545360904955  1.0000
  C   C30       1.0  0.10918658622360772  0.1512768185971396  0.7915430803813377  1.0000
  C   C31       1.0  0.3908204894027705  0.6512766808779987  0.2084569362886342  1.0000
  C   C32       1.0  0.6091781150846886  0.8487258009006597  0.7084493317811322  1.0000
  C   C33       1.0  0.0192400103186259  0.7175178482740636  0.6499113695669647  1.0000
  C   C34       1.0  0.980751174063144  0.7824821948360494  0.14991521374736996  1.0000
  C   C35       1.0  0.5192481888518543  0.28248330729208965  0.8500919299809977  1.0000
  C   C36       1.0  0.48075821289153714  0.2175131256113119  0.35009357277449027  1.0000
  C   C37       1.0  0.9807556319786527  0.2824812707717258  0.35008562312914643  1.0000
  C   C38       1.0  0.0192507698820492  0.21751692422131444  0.8500868471189944  1.0000
  C   C39       1.0  0.48075480534245674  0.717519335892327  0.1499159231018297  1.0000
  C   C40       1.0  0.5192426807960401  0.7824886365455017  0.649907040037256  1.0000
  C   C41       1.0  0.917703692848278  0.6564079678115179  0.5967813997744642  1.0000
  C   C42       1.0  0.0822925840768818  0.8435931419134594  0.09678320227951077  1.0000
  C   C43       1.0  0.41771308317355255  0.3435931270576306  0.9032200206246015  1.0000
  C   C44       1.0  0.5822934774776557  0.1564022392567779  0.40322239517274727  1.0000
  C   C45       1.0  0.0822961505676219  0.34359467537660043  0.4032184890126302  1.0000
  C   C46       1.0  0.9177114604500076  0.15640597715450613  0.9032166864938417  1.0000
  C   C47       1.0  0.5822962127398198  0.6564051109901143  0.0967820402120125  1.0000
  C   C48       1.0  0.4177105670391724  0.8435959987764792  0.5967782176296268  1.0000
  C   C49       1.0  0.7496843529048717  0.5980532200818944  0.5019040763301774  1.0000
  C   C50       1.0  0.25031456610398106  0.9019446968858704  0.0019057983165993  1.0000
  C   C51       1.0  0.24968427788532213  0.4019459048109654  0.9980965749997139  1.0000
  C   C52       1.0  0.7503175401450974  0.09805177322672173  0.4980969480741564  1.0000
  C   C53       1.0  0.25031233965592037  0.4019458989635112  0.4980950884457869  1.0000
  C   C54       1.0  0.749685277293878  0.09805530320065263  0.998094814501421  1.0000
  C   C55       1.0  0.7503155655043727  0.5980549763064716  0.0019054858735216998  1.0000
  C   C56       1.0  0.24968125299930222  0.9019491078949005  0.5019007686349823  1.0000
  I   I1        1.0  0.5925935550830985  0.6033743337292208  0.3984251851391676  1.0000
  I   I2        1.0  0.40740501296777143  0.8966230793912975  0.8984227824994803  1.0000
  I   I3        1.0  0.09259273252474289  0.39661935213442245  0.10157670616783317  1.0000
  I   I4        1.0  0.9074073359144066  0.10337794871406204  0.601576551839635  1.0000
  I   I5        1.0  0.407399986598115  0.39662390426621397  0.6015775997912983  1.0000
  I   I6        1.0  0.5925969309994629  0.10337956380109861  0.1015785543350063  1.0000
  I   I7        1.0  0.9074060605896365  0.6033762427852808  0.8984217345750736  1.0000
  I   I8        1.0  0.09259355778340961  0.8966220513796587  0.3984218888897644  1.0000
  N   N1        1.0  0.7968076013646838  0.4967062645324774  0.5416567504118319  1.0000
  N   N2        1.0  0.20318927125870806  0.003292126613430901  0.0416575518038869  1.0000
  N   N3        1.0  0.29681331268722744  0.5032931657787714  0.9583442314391775  1.0000
  N   N4        1.0  0.7031916020043028  0.9967040380829179  0.45834558808943626  1.0000
  N   N5        1.0  0.203188040922349  0.5032946165764117  0.45834241436661927  1.0000
  N   N6        1.0  0.7968084715817341  0.9967078734675499  0.958342336994825  1.0000
  N   N7        1.0  0.7031886312640336  0.49670595327985734  0.0416571053991035  1.0000
  N   N8        1.0  0.2968071911300285  0.0032959620039961007  0.5416528526487312  1.0000
  N   N9        1.0  0.8168406128069209  0.6962886144096175  0.5316829651889563  1.0000
  N   N10       1.0  0.1831546557449215  0.8037109606075818  0.0316847353470138  1.0000
  N   N11       1.0  0.31684644902043857  0.3037118267648183  0.9683192974395424  1.0000
  N   N12       1.0  0.683154818303592  0.19628419320223867  0.46832074393115863  1.0000
  N   N13       1.0  0.1831539791822365  0.30371138565988803  0.46831764765099126  1.0000
  N   N14       1.0  0.8168493887779819  0.19628727742694005  0.9683151534272837  1.0000
  N   N15       1.0  0.6831565452184661  0.6962899353962727  0.0316827634195889  1.0000
  N   N16       1.0  0.31684397481252097  0.8037158068808878  0.5316798688912456  1.0000
