data_image0
_chemical_formula_structural       Cu3H20C18N2O12
_chemical_formula_sum              "Cu3 H20 C18 N2 O12"
_cell_length_a       7.206001584969925
_cell_length_b       8.342292569950207
_cell_length_c       10.813003083946064
_cell_angle_alpha    90.46988003617946
_cell_angle_beta     82.70659565665024
_cell_angle_gamma    65.14572002111485

_space_group_name_H-M_alt    "P 1"
_space_group_IT_number       1

loop_
  _space_group_symop_operation_xyz
  'x, y, z'

loop_
  _atom_site_type_symbol
  _atom_site_label
  _atom_site_symmetry_multiplicity
  _atom_site_fract_x
  _atom_site_fract_y
  _atom_site_fract_z
  _atom_site_occupancy
  Cu  Cu1       1.0  2.449708524919763e-05  0.999987665296217  8.219050862102923e-06  1.0000
  Cu  Cu2       1.0  0.5789874363119055  0.016053095915339096  0.3896221113840639  1.0000
  Cu  Cu3       1.0  0.42093959375664275  0.9839709838458005  0.6103719815434658  1.0000
  H   H1        1.0  0.512736024108925  0.962003583249135  0.12722030606312976  1.0000
  H   H2        1.0  0.4872434452063388  0.0380328590659005  0.8727230925235077  1.0000
  H   H3        1.0  0.322025130835172  0.3269294598303886  0.9694944784535622  1.0000
  H   H4        1.0  0.6780232673176201  0.6730526234846647  0.030525784834026105  1.0000
  H   H5        1.0  0.36560183115059164  0.30313197567699035  0.19588710652367072  1.0000
  H   H6        1.0  0.6344262076024377  0.6968514190662773  0.8041314819852516  1.0000
  H   H7        1.0  0.26290649003600197  0.581463520829523  0.3304017173798997  1.0000
  H   H8        1.0  0.7370964593618579  0.4185148246018783  0.6696305306284813  1.0000
  H   H9        1.0  0.12059723421503327  0.8715916604659169  0.23277837677472488  1.0000
  H   H10       1.0  0.8793853811404446  0.12838801135836056  0.7672531189039375  1.0000
  H   H11       1.0  0.5910013185597833  0.5454002915882865  0.4081902701424199  1.0000
  H   H12       1.0  0.4089826729189455  0.45462685222934607  0.5917509115541151  1.0000
  H   H13       1.0  0.9875061448044349  0.16728353970025006  0.40246042962148454  1.0000
  H   H14       1.0  0.012420362108891145  0.832761776579815  0.597538144881014  1.0000
  H   H15       1.0  0.2015524437736645  0.502507284073232  0.8001319309769029  1.0000
  H   H16       1.0  0.7985350877108175  0.4974746599363724  0.19988164121311058  1.0000
  H   H17       1.0  0.24725976600524283  0.697993024623244  0.7998241514266127  1.0000
  H   H18       1.0  0.7527763028922224  0.3019996083415677  0.20019354786893467  1.0000
  H   H19       1.0  0.9942216523196663  0.7150743049930381  0.8442548663815473  1.0000
  H   H20       1.0  0.005824688902769978  0.2848892681605619  0.1557657739932452  1.0000
  C   C1        1.0  0.6545583782497177  0.9843460999287212  0.11218809006577148  1.0000
  C   C2        1.0  0.3454601739134375  0.015664278939475196  0.8877812416409866  1.0000
  C   C3        1.0  0.19541150889103426  0.6108250992533968  0.9816623655461357  1.0000
  C   C4        1.0  0.8046360991097785  0.3891530484912024  0.01835986348201148  1.0000
  C   C5        1.0  0.27999195452600384  0.44476803105807505  0.030496450415000695  1.0000
  C   C6        1.0  0.7200527006588117  0.5552100336422042  0.969520524187395  1.0000
  C   C7        1.0  0.3051243708991791  0.4314656229723609  0.1561292208674772  1.0000
  C   C8        1.0  0.694900781013253  0.5685125487923057  0.843893405406064  1.0000
  C   C9        1.0  0.24866547399749092  0.5856310561269779  0.23141527274662368  1.0000
  C   C10       1.0  0.7513424259419069  0.4143563696583071  0.7686062193779007  1.0000
  C   C11       1.0  0.1692274359619575  0.7471084553366935  0.17792119994509648  1.0000
  C   C12       1.0  0.830785290429482  0.25286985152717273  0.8221091446766522  1.0000
  C   C13       1.0  0.1584655956260832  0.6317108665786434  0.8485567515511718  1.0000
  C   C14       1.0  0.8415823613544688  0.3682657775088102  0.15145435494790147  1.0000
  C   C15       1.0  0.5618809428269171  0.682964484984076  0.4365919632718446  1.0000
  C   C16       1.0  0.43808283129958164  0.317058875221484  0.5633596031832299  1.0000
  C   C17       1.0  0.1423697495687222  0.11801762250184572  0.43217089766294947  1.0000
  C   C18       1.0  0.8575543615312711  0.882015872102194  0.5678326516122922  1.0000
  N   N1        1.0  0.14227349596823316  0.758806044793445  0.05673747266160228  1.0000
  N   N2        1.0  0.8577567485332623  0.24117611228482613  0.9432864572652875  1.0000
  O   O1        1.0  0.7454733189382737  0.9581011881164231  0.9993212916135547  1.0000
  O   O2        1.0  0.25456411375019883  0.04190006804130769  0.0006573361487696074  1.0000
  O   O3        1.0  0.7149931535426504  0.03529620022484179  0.202888751634525  1.0000
  O   O4        1.0  0.2849895612919085  0.9646852899614441  0.7970918353677731  1.0000
  O   O5        1.0  0.6178227876272758  0.7655656903809599  0.3531054576548271  1.0000
  O   O6        1.0  0.3822691212757192  0.23443017462350463  0.6468696174820607  1.0000
  O   O7        1.0  0.47643061141052806  0.7364164198136791  0.5485921933652946  1.0000
  O   O8        1.0  0.523402075123478  0.2636343525486637  0.45133060998220736  1.0000
  O   O9        1.0  0.28917691701149545  0.10596736748235  0.348589208859778  1.0000
  O   O10       1.0  0.7107703036815637  0.8939561229903531  0.65140194321026  1.0000
  O   O11       1.0  0.1500606094653421  0.07979243399761059  0.5452175736442371  1.0000
  O   O12       1.0  0.8498376903329472  0.9203433615800162  0.4548125913896826  1.0000
