data_image0
_chemical_formula_structural       Zn2H28C36N4O10
_chemical_formula_sum              "Zn2 H28 C36 N4 O10"
_cell_length_a       9.094971116068265
_cell_length_b       10.179302998823268
_cell_length_c       10.487696705038724
_cell_angle_alpha    103.79877513398831
_cell_angle_beta     113.48449129057929
_cell_angle_gamma    100.86834955790695

_space_group_name_H-M_alt    "P 1"
_space_group_IT_number       1

loop_
  _space_group_symop_operation_xyz
  'x, y, z'

loop_
  _atom_site_type_symbol
  _atom_site_label
  _atom_site_symmetry_multiplicity
  _atom_site_fract_x
  _atom_site_fract_y
  _atom_site_fract_z
  _atom_site_occupancy
  Zn  Zn1       1.0  0.41215036290746093  0.17756606017555032  0.3433642398046218  1.0000
  Zn  Zn2       1.0  0.5878496831813962  0.8224333825746367  0.6566357792956765  1.0000
  H   H1        1.0  0.27028102586803016  0.4355889213639371  0.4179120927201511  1.0000
  H   H2        1.0  0.7297182195987233  0.564411585508921  0.5820878917484863  1.0000
  H   H3        1.0  0.9883181972817493  0.4678711987419389  0.35365789899280026  1.0000
  H   H4        1.0  0.011683449663529166  0.5321293187806686  0.6463438715479484  1.0000
  H   H5        1.0  0.7263331190445328  0.2481843600473823  0.19743547461395392  1.0000
  H   H6        1.0  0.2736677240356045  0.7518172122213966  0.8025643510257654  1.0000
  H   H7        1.0  0.7634629289466659  0.014217244011653902  0.11017904538856274  1.0000
  H   H8        1.0  0.2365359119613473  0.9857853847107945  0.8898193750161028  1.0000
  H   H9        1.0  0.810637945389921  0.8292449457232604  0.033384125347254226  1.0000
  H   H10       1.0  0.18936250000533758  0.17075556413035284  0.966616274590095  1.0000
  H   H11       1.0  0.8880717173400895  0.6109212149980862  0.9708731540103346  1.0000
  H   H12       1.0  0.11192712882026255  0.389078224771353  0.029126449621251962  1.0000
  H   H13       1.0  0.19738222780543418  0.6297768905734245  0.0738055457703908  1.0000
  H   H14       1.0  0.8026178166619006  0.37022254748852385  0.9261935181952128  1.0000
  H   H15       1.0  0.4131855076829324  0.8709682411151646  0.2390492488859195  1.0000
  H   H16       1.0  0.5868137394053363  0.12903227044593274  0.7609516907174126  1.0000
  H   H17       1.0  0.10560838417500659  0.2618285626016003  0.6368896926142966  1.0000
  H   H18       1.0  0.8943936608429366  0.7381698143184392  0.36310982145167964  1.0000
  H   H19       1.0  0.691092793798063  0.8764016605879162  0.3560880515050542  1.0000
  H   H20       1.0  0.3089108536978245  0.12359779579277588  0.6439141691360606  1.0000
  H   H21       1.0  0.4477378180664502  0.2396784550591846  0.9476606581326195  1.0000
  H   H22       1.0  0.5522618335805659  0.7603199346523153  0.052341845534684114  1.0000
  H   H23       1.0  0.540039149524496  0.6552178874811787  0.24100018129737322  1.0000
  H   H24       1.0  0.4599584999503961  0.3447815586839908  0.7590009171348768  1.0000
  H   H25       1.0  0.5127453018000948  0.38585446654369077  0.5964682485649817  1.0000
  H   H26       1.0  0.4872535459817796  0.6141449779139945  0.40353231020129243  1.0000
  H   H27       1.0  0.6494903190900915  0.30529202265766736  0.5849890438497101  1.0000
  H   H28       1.0  0.35050892637666203  0.6947084842151837  0.4150109406189274  1.0000
  C   C1        1.0  0.1548300002578102  0.34508302814895586  0.34884811309877517  1.0000
  C   C2        1.0  0.8451704451374483  0.6549174817046505  0.6511522868385742  1.0000
  C   C3        1.0  0.9960017266666694  0.361630448267995  0.31337429745362755  1.0000
  C   C4        1.0  0.003998717107073356  0.6383700568973721  0.6866251473490408  1.0000
  C   C5        1.0  0.8531272176707104  0.2412156611818118  0.22622594990524197  1.0000
  C   C6        1.0  0.14687322448151008  0.758784839295309  0.7737725397627387  1.0000
  C   C7        1.0  0.8736632054180402  0.10930106213011469  0.17766102075692905  1.0000
  C   C8        1.0  0.12633603518415967  0.8906994306780116  0.8223360983076446  1.0000
  C   C9        1.0  0.03693733437745551  0.10084820197002389  0.21721717384643574  1.0000
  C   C10       1.0  0.9630615085398586  0.8991512284229298  0.782780519515775  1.0000
  C   C11       1.0  0.0710287331696762  0.9650945411895858  0.1718354020627828  1.0000
  C   C12       1.0  0.9289717089825444  0.0349059592875349  0.828163087605198  1.0000
  C   C13       1.0  0.9430200678921777  0.8350774019301923  0.07945654704845143  1.0000
  C   C14       1.0  0.0569791759530602  0.1649231002544198  0.9205424822855054  1.0000
  C   C15       1.0  0.9868769840275885  0.7126861550703792  0.04338848612908919  1.0000
  C   C16       1.0  0.013123062061268299  0.2873132876798152  0.956611532971209  1.0000
  C   C17       1.0  0.15693934536109566  0.722304184117881  0.09948632048624967  1.0000
  C   C18       1.0  0.8430603030428827  0.2776941962171334  0.9005142729116785  1.0000
  C   C19       1.0  0.27797009634245734  0.8552191738786729  0.19016152259122515  1.0000
  C   C20       1.0  0.7220291491242958  0.14478133299417806  0.8098384618774119  1.0000
  C   C21       1.0  0.7628101101037146  0.1579205200484566  0.48672809966402775  1.0000
  C   C22       1.0  0.23719193653575119  0.842077861559829  0.5132723695366366  1.0000
  C   C23       1.0  0.8861331285897548  0.07690216257810789  0.4942973674196836  1.0000
  C   C24       1.0  0.11387051566309477  0.9230972844260988  0.5057029429520626  1.0000
  C   C25       1.0  0.06054815222806549  0.14721159055157773  0.5773573884477656  1.0000
  C   C26       1.0  0.9394546950335043  0.8527857269340375  0.4226431153845599  1.0000
  C   C27       1.0  0.8270247687779174  0.9293751192918901  0.41768000509513575  1.0000
  C   C28       1.0  0.1729788770964475  0.07062433240055549  0.5823212604112911  1.0000
  C   C29       1.0  0.4813109578518604  0.37763828905251245  0.21905316466700944  1.0000
  C   C30       1.0  0.5186890898585189  0.6223611583859209  0.7809478095679766  1.0000
  C   C31       1.0  0.49302020606921104  0.44073240420027554  0.1064346227664999  1.0000
  C   C32       1.0  0.5069798416411614  0.559267043238158  0.8935663514684863  1.0000
  C   C33       1.0  0.47047373570990186  0.3537558606689969  0.9700365981716248  1.0000
  C   C34       1.0  0.529526712928394  0.6462446585611017  0.029965712035099946  1.0000
  C   C35       1.0  0.5230524369504082  0.5876633721455632  0.13539076483528595  1.0000
  C   C36       1.0  0.4769476123814869  0.4123360799811166  0.8646111645343881  1.0000
  N   N1        1.0  0.1745852630364482  0.2182520841991931  0.3016534493349782  1.0000
  N   N2        1.0  0.8254151807372878  0.781748420966167  0.6983459954676832  1.0000
  N   N3        1.0  0.23567819055794098  0.9730335288976233  0.2249224975475599  1.0000
  N   N4        1.0  0.764322253215795  0.026966976267736694  0.7750769472551015  1.0000
  O   O1        1.0  0.5273501710007977  0.2900835999369207  0.5658424044096506  1.0000
  O   O2        1.0  0.4726486735380391  0.7099158351442796  0.4341562440872553  1.0000
  O   O3        1.0  0.6091325696587262  0.09080294834415528  0.3872107642614895  1.0000
  O   O4        1.0  0.3908682786737502  0.9091954349716146  0.612790244605151  1.0000
  O   O5        1.0  0.8159398600668409  0.2842223197862026  0.5778432801625045  1.0000
  O   O6        1.0  0.18406098664411982  0.715776058841328  0.42215677356945497  1.0000
  O   O7        1.0  0.44479351054152955  0.24099864532576012  0.18178788837340676  1.0000
  O   O8        1.0  0.555208136403749  0.7590018721968474  0.818213882167342  1.0000
  O   O9        1.0  0.504696210477263  0.4568475797211134  0.3425760146374159  1.0000
  O   O10       1.0  0.49530383885463186  0.5431518724055592  0.657425914732258  1.0000
