data_image0
_chemical_formula_structural       Zr6H56C60O32
_chemical_formula_sum              "Zr6 H56 C60 O32"
_cell_length_a       14.803793290283465
_cell_length_b       14.766543502242357
_cell_length_c       14.775936251146327
_cell_angle_alpha    59.52745584212194
_cell_angle_beta     59.898779072839254
_cell_angle_gamma    59.98269960522309

_space_group_name_H-M_alt    "P 1"
_space_group_IT_number       1

loop_
  _space_group_symop_operation_xyz
  'x, y, z'

loop_
  _atom_site_type_symbol
  _atom_site_label
  _atom_site_symmetry_multiplicity
  _atom_site_fract_x
  _atom_site_fract_y
  _atom_site_fract_z
  _atom_site_occupancy
  Zr  Zr1       1.0  0.8813557797092098  0.8802875812452198  0.6167041405349494  1.0000
  Zr  Zr2       1.0  0.12251118558273794  0.1180821781437728  0.3790511425087999  1.0000
  Zr  Zr3       1.0  0.12024403669767768  0.8765218319884409  0.6203427920644345  1.0000
  Zr  Zr4       1.0  0.8838520039659273  0.12085790211298765  0.37590161187147697  1.0000
  Zr  Zr5       1.0  0.12130736302827236  0.8799680801253016  0.37895421513625394  1.0000
  Zr  Zr6       1.0  0.8831381035759165  0.11793885510407862  0.6170566745883193  1.0000
  H   H1        1.0  0.09435765207509661  0.7153244468084876  0.5939679481090396  1.0000
  H   H2        1.0  0.0976620408071511  0.09497983901749758  0.2144406004229964  1.0000
  H   H3        1.0  0.0960164478079619  0.09047014818734299  0.5942117498975464  1.0000
  H   H4        1.0  0.7205049845600798  0.09515701617218751  0.5892456020404638  1.0000
  H   H5        1.0  0.1364805745600536  0.5964766607320583  0.35460482642035634  1.0000
  H   H6        1.0  0.8522945019490606  0.41803272488865395  0.6249149230898324  1.0000
  H   H7        1.0  0.6045959831890785  0.12723937154199652  0.915496336969788  1.0000
  H   H8        1.0  0.4122550843106794  0.8568135902091285  0.09446743170413203  1.0000
  H   H9        1.0  0.8499966386126517  0.12272248601394142  0.10321669535248655  1.0000
  H   H10       1.0  0.13043192469442025  0.847967549685876  0.9181423859577864  1.0000
  H   H11       1.0  0.6048446946881614  0.4190646153413126  0.34734881379419147  1.0000
  H   H12       1.0  0.4240293385282429  0.6029294568841406  0.6233919595336842  1.0000
  H   H13       1.0  0.07746751526499207  0.32289879372449776  0.9863727311837922  1.0000
  H   H14       1.0  0.165211994038181  0.3562510047111331  0.005001068742991805  1.0000
  H   H15       1.0  0.15958378959898323  0.5080710550004283  0.8396884994740149  1.0000
  H   H16       1.0  0.05934484704570759  0.48276840622506256  0.8312303777972687  1.0000
  H   H17       1.0  0.09949669743856053  0.6152100059399783  0.9600174545744339  1.0000
  H   H18       1.0  0.9584456655211895  0.6854957092910323  0.017754890090813404  1.0000
  H   H19       1.0  0.08504276593878758  0.4668029078381863  0.1298676538662136  1.0000
  H   H20       1.0  0.940388514701766  0.5307044400112485  0.17962898982781167  1.0000
  H   H21       1.0  0.8699632511064339  0.4105984366107832  0.06295302585772325  1.0000
  H   H22       1.0  0.8125206414523731  0.4848307207992874  0.15268005556191613  1.0000
  H   H23       1.0  0.813857292552733  0.6523405526607745  0.0027419024810484372  1.0000
  H   H24       1.0  0.854161861132866  0.5805407935375299  0.9159730511989181  1.0000
  H   H25       1.0  0.6060024240153726  0.8485784966421972  0.6254920186504834  1.0000
  H   H26       1.0  0.42051329984634844  0.12658874115107463  0.3477560599649436  1.0000
  H   H27       1.0  0.22658092071392122  0.47898456643353876  0.25985089814609813  1.0000
  H   H28       1.0  0.23868742228946616  0.33800685399283736  0.34900056125664497  1.0000
  H   H29       1.0  0.15594719388490572  0.40662209190809034  0.2649726126445557  1.0000
  H   H30       1.0  0.7514138155717376  0.5472177239879557  0.707690015412652  1.0000
  H   H31       1.0  0.8301243741169769  0.5973302648302479  0.7212392187354837  1.0000
  H   H32       1.0  0.7577263847436272  0.6850992130164639  0.6262626208901664  1.0000
  H   H33       1.0  0.4933176099784546  0.21045061507200558  0.044362859017027675  1.0000
  H   H34       1.0  0.3510315724594975  0.22375345304206457  0.09436832335288163  1.0000
  H   H35       1.0  0.43042099049360166  0.1293313440994693  0.18242385574239967  1.0000
  H   H36       1.0  0.532262388905991  0.7640096360708312  0.975022366462419  1.0000
  H   H37       1.0  0.5743809892450356  0.8527936282773396  0.83433196665154  1.0000
  H   H38       1.0  0.6709573356110496  0.7666591461048141  0.9048329959738127  1.0000
  H   H39       1.0  0.7436282212942446  0.19672351755310274  0.9981636746775704  1.0000
  H   H40       1.0  0.8278757496088003  0.224704659896254  0.8549676229779378  1.0000
  H   H41       1.0  0.7616084810525763  0.1262973644781197  0.9182071279743839  1.0000
  H   H42       1.0  0.2165688280235685  0.7506329364489375  0.04509802373060985  1.0000
  H   H43       1.0  0.2335482399904266  0.8388830393549113  0.0804355851124825  1.0000
  H   H44       1.0  0.14552892103323947  0.7602456065311642  0.1814473271419602  1.0000
  H   H45       1.0  0.487761606268272  0.5435114072831198  0.2517028429508131  1.0000
  H   H46       1.0  0.34695833885000843  0.5868853935847653  0.3367801136624777  1.0000
  H   H47       1.0  0.41993007069088156  0.6817376963541547  0.25614696040511836  1.0000
  H   H48       1.0  0.5584772617484148  0.4957062911008448  0.7006307334805584  1.0000
  H   H49       1.0  0.5937369447974349  0.3526492912050755  0.7244857710419624  1.0000
  H   H50       1.0  0.6924715309294456  0.41975661606708997  0.6282061484128151  1.0000
  H   H51       1.0  0.4956186704903373  0.745090254745733  0.7091400039039685  1.0000
  H   H52       1.0  0.3538659770029327  0.830173219828623  0.7283888125313  1.0000
  H   H53       1.0  0.4215611388317058  0.7568410163127622  0.6361313870635854  1.0000
  H   H54       1.0  0.549901733875231  0.2107350240358628  0.24472611840856467  1.0000
  H   H55       1.0  0.5896928253556198  0.22864414161982433  0.3289474560796961  1.0000
  H   H56       1.0  0.6858371669433866  0.1367981192803852  0.25481377242232384  1.0000
  C   C1        1.0  0.9930829654966545  0.7007982050035435  0.49539501755834453  1.0000
  C   C2        1.0  0.3115445244312555  0.9968719237527209  0.19949210121849603  1.0000
  C   C3        1.0  0.0020920283815612836  0.3067468507787154  0.491281770722388  1.0000
  C   C4        1.0  0.7002418351638017  0.992865488087197  0.8050586304183014  1.0000
  C   C5        1.0  0.9938232908779842  0.6981700272764894  0.8108210179974622  1.0000
  C   C6        1.0  0.7037577557584174  0.9980928923991992  0.4866531266270685  1.0000
  C   C7        1.0  0.9969706041399888  0.3117629916954953  0.19688003371177845  1.0000
  C   C8        1.0  0.31207915937427105  0.9878250581690223  0.4972606930904392  1.0000
  C   C9        1.0  0.31079762602848887  0.6987271985066668  0.4907611860835672  1.0000
  C   C10       1.0  0.9917250979360405  0.9931532252007785  0.8102177607437399  1.0000
  C   C11       1.0  0.7057756033784415  0.3108300651617453  0.49286046183796367  1.0000
  C   C12       1.0  0.0011094459465254276  0.9915187799986427  0.19783110367753654  1.0000
  C   C13       1.0  0.0014887379316306643  0.41093003473913825  0.48565683505601953  1.0000
  C   C14       1.0  0.9882002776289127  0.6025146760238017  0.49480974069597045  1.0000
  C   C15       1.0  0.08421861246358721  0.4608043908248333  0.405489134434653  1.0000
  C   C16       1.0  0.9038596387676634  0.5544099682881762  0.5730947484966221  1.0000
  C   C17       1.0  0.07412529523249133  0.5558333676232863  0.413581344737466  1.0000
  C   C18       1.0  0.9143506776096687  0.45894553307366676  0.565533044820164  1.0000
  C   C19       1.0  0.4146262689778981  0.9968631737653837  0.10052558121441987  1.0000
  C   C20       1.0  0.6017226017197431  0.9878341229752649  0.908715781423787  1.0000
  C   C21       1.0  0.46852356285182845  0.07545287526403402  0.052048556933016174  1.0000
  C   C22       1.0  0.5490085440009127  0.9079314214475926  0.9583947650872137  1.0000
  C   C23       1.0  0.5610110276742191  0.06782330136606858  0.9565764959197481  1.0000
  C   C24       1.0  0.4562607656028706  0.915835979394508  0.053682686125092825  1.0000
  C   C25       1.0  0.9850687135268149  0.9910062334226802  0.915619092760018  1.0000
  C   C26       1.0  0.9982989175533066  0.9829147991590828  0.10274949863205067  1.0000
  C   C27       1.0  0.900959498774107  0.0695216907370479  0.9687237311449977  1.0000
  C   C28       1.0  0.07896391609808984  0.900509466694764  0.053396731908364484  1.0000
  C   C29       1.0  0.9114523011873387  0.0626291707757573  0.06099156483439566  1.0000
  C   C30       1.0  0.06925382181582047  0.9082331201345467  0.9602636430297693  1.0000
  C   C31       1.0  0.4170909459423411  0.6034284352072204  0.48246280849719614  1.0000
  C   C32       1.0  0.6090104838402511  0.41603426996655896  0.49102333046084123  1.0000
  C   C33       1.0  0.46850085875540515  0.5543152397717392  0.39978616708180686  1.0000
  C   C34       1.0  0.5608901259031142  0.46857759882825406  0.5701625098927539  1.0000
  C   C35       1.0  0.5634410643151782  0.4610769873782061  0.40775698954745826  1.0000
  C   C36       1.0  0.46526568571807275  0.5610298965932188  0.5629497615974018  1.0000
  C   C37       1.0  0.08550820295698715  0.3893340347195888  0.9929378736030117  1.0000
  C   C38       1.0  0.07959908793507964  0.4936334756317179  0.8865553433907821  1.0000
  C   C39       1.0  0.989862021112387  0.5975804700055533  0.9180895452219958  1.0000
  C   C40       1.0  0.016618405615261605  0.6080308803732565  0.00013601373700571564  1.0000
  C   C41       1.0  0.009309443057347351  0.505795107208847  0.10901817153844463  1.0000
  C   C42       1.0  0.991395800662026  0.41904927617574106  0.0963703323956081  1.0000
  C   C43       1.0  0.8803616105910094  0.47069417882372033  0.07678719653060277  1.0000
  C   C44       1.0  0.8767524619130855  0.5806234773883783  0.9762180316997303  1.0000
  C   C45       1.0  0.4174779214542779  0.9819825018793226  0.49419606592233145  1.0000
  C   C46       1.0  0.6072190900192143  0.9950422737320962  0.4808850209665678  1.0000
  C   C47       1.0  0.47066267049858385  0.8989877481969657  0.5738342561529423  1.0000
  C   C48       1.0  0.5572821502696996  0.07476391638970604  0.39798181340812283  1.0000
  C   C49       1.0  0.5640374485333627  0.9093518449863179  0.5644213494572413  1.0000
  C   C50       1.0  0.46284546041303554  0.06547657785812779  0.40846174017663384  1.0000
  C   C51       1.0  0.18147864961900234  0.41911102523508253  0.31466491050481693  1.0000
  C   C52       1.0  0.8054098715297898  0.5981361702698605  0.6620165205277644  1.0000
  C   C53       1.0  0.4341347181047794  0.16470401386818875  0.095425858954755  1.0000
  C   C54       1.0  0.5837005027077713  0.8177090722593758  0.9161266238228907  1.0000
  C   C55       1.0  0.8029512029717482  0.15900997297597988  0.9333627244228708  1.0000
  C   C56       1.0  0.17368624785885342  0.8072961765791362  0.0923075893708615  1.0000
  C   C57       1.0  0.42878057126836944  0.5937188314640804  0.30588590438014057  1.0000
  C   C58       1.0  0.6038023776808714  0.4324606964645169  0.6606619933262651  1.0000
  C   C59       1.0  0.43374696212621433  0.8022799044236706  0.6669081190101664  1.0000
  C   C60       1.0  0.5977915205221437  0.16781021856299091  0.3011363827948942  1.0000
  O   O1        1.0  0.9196915224530217  0.7392011709464155  0.5739301762816281  1.0000
  O   O2        1.0  0.26823375080751793  0.07513355685338746  0.23821401353655597  1.0000
  O   O3        1.0  0.0806354618690649  0.262704364657452  0.4182607846161019  1.0000
  O   O4        1.0  0.7386311729957246  0.9199034792240677  0.7610152237344465  1.0000
  O   O5        1.0  0.0747139625696959  0.7335708076852113  0.7681628898613652  1.0000
  O   O6        1.0  0.7417468904597868  0.07804949939326634  0.4136838905857161  1.0000
  O   O7        1.0  0.9242025407476363  0.2673277573940354  0.2344060232129622  1.0000
  O   O8        1.0  0.26721980314577815  0.9147226680569958  0.5770926743360578  1.0000
  O   O9        1.0  0.26570191684961497  0.7372077466755654  0.41827930491481885  1.0000
  O   O10       1.0  0.9198981735987318  0.07318793674759407  0.7645244115030893  1.0000
  O   O11       1.0  0.7436088174386699  0.26533727625538  0.5726335849598314  1.0000
  O   O12       1.0  0.08058315782430008  0.9195870213589287  0.23588792783478857  1.0000
  O   O13       1.0  0.07021812678885897  0.9170088799710711  0.7705903637890261  1.0000
  O   O14       1.0  0.7428625314144244  0.2712675879922343  0.4167224676950739  1.0000
  O   O15       1.0  0.9256890048818464  0.07110519054532449  0.23381827061424323  1.0000
  O   O16       1.0  0.2703139661595557  0.7344851502351659  0.5706201799967019  1.0000
  O   O17       1.0  0.9193075974987719  0.7378736585853504  0.7683553573865042  1.0000
  O   O18       1.0  0.27197836101418454  0.06745033613723452  0.42088756835666175  1.0000
  O   O19       1.0  0.0755464864997038  0.27102888451055657  0.23438885248806687  1.0000
  O   O20       1.0  0.740839393503876  0.9216003521070631  0.5660862814022352  1.0000
  O   O21       1.0  0.739321478625712  0.07038340881113904  0.7660252739066993  1.0000
  O   O22       1.0  0.07167120530171205  0.7387423264960233  0.41908157047597433  1.0000
  O   O23       1.0  0.2716313787491628  0.9202493126929595  0.23778980563098168  1.0000
  O   O24       1.0  0.9251985245401645  0.26709984442643975  0.569477775084657  1.0000
  O   O25       1.0  0.8006630376351679  0.06776863815721855  0.5630364144883302  1.0000
  O   O26       1.0  0.06954299947351919  0.06411571976455117  0.5668534299466473  1.0000
  O   O27       1.0  0.0705580256840364  0.06775522921395799  0.2951210568890943  1.0000
  O   O28       1.0  0.06793752765158717  0.7959881358697413  0.5667922164767063  1.0000
  O   O29       1.0  0.15079720193608648  0.948236997086205  0.4499600786551667  1.0000
  O   O30       1.0  0.9524607423285261  0.9507137242544416  0.44703735441503767  1.0000
  O   O31       1.0  0.953493563946168  0.14895253274168138  0.4471510282635336  1.0000
  O   O32       1.0  0.9515641402157865  0.9480965503500581  0.6479740442081977  1.0000
