data_image0
_chemical_formula_structural       Cu2H10C12Br2N2O2
_chemical_formula_sum              "Cu2 H10 C12 Br2 N2 O2"
_cell_length_a       3.908708379806429
_cell_length_b       7.784982400744906
_cell_length_c       12.003240300269034
_cell_angle_alpha    101.91580782184653
_cell_angle_beta     93.16124664002527
_cell_angle_gamma    104.86275884092947

_space_group_name_H-M_alt    "P 1"
_space_group_IT_number       1

loop_
  _space_group_symop_operation_xyz
  'x, y, z'

loop_
  _atom_site_type_symbol
  _atom_site_label
  _atom_site_symmetry_multiplicity
  _atom_site_fract_x
  _atom_site_fract_y
  _atom_site_fract_z
  _atom_site_occupancy
  Cu  Cu1       1.0  0.7056527789266482  0.5952264684676506  0.9420425444262648  1.0000
  Cu  Cu2       1.0  0.2943631838193354  0.40476869493436124  0.057955150091849796  1.0000
  H   H1        1.0  0.2596647743035946  0.3859258703120787  0.7857757271675538  1.0000
  H   H2        1.0  0.7403583997140757  0.6140971985695244  0.21425303522714498  1.0000
  H   H3        1.0  0.2818885050511782  0.6198250373943495  0.5358685389054189  1.0000
  H   H4        1.0  0.7181001330611847  0.3801578870346559  0.4641344721871192  1.0000
  H   H5        1.0  0.7053617744967723  0.9277075408473294  0.5456616652418447  1.0000
  H   H6        1.0  0.29462605661803565  0.0722763252341707  0.4543239371597068  1.0000
  H   H7        1.0  0.1311822091786894  0.07782319350355488  0.7253898236740782  1.0000
  H   H8        1.0  0.8687821068234169  0.9221701072799885  0.2745988173765781  1.0000
  H   H9        1.0  0.12288552200977408  0.9175253864352438  0.8839715984206364  1.0000
  H   H10       1.0  0.8771306063326846  0.08249574565362387  0.1160342458231227  1.0000
  C   C1        1.0  0.48222475706039364  0.6095654831654329  0.7043557088723985  1.0000
  C   C2        1.0  0.517789988110529  0.39044737873210517  0.2956449311402238  1.0000
  C   C3        1.0  0.23327817265804643  0.431132634214478  0.7041425929839703  1.0000
  C   C4        1.0  0.7667267523305482  0.5688777207800298  0.2958691591031481  1.0000
  C   C5        1.0  0.4742725030791348  0.6899838324941425  0.6108994352641872  1.0000
  C   C6        1.0  0.5257030933506998  0.30998021911620544  0.38911178972819727  1.0000
  C   C7        1.0  0.7070005148517636  0.8610305296901046  0.6169346438404659  1.0000
  C   C8        1.0  0.2930374231383085  0.1389785541988928  0.3830728019983596  1.0000
  C   C9        1.0  0.9418170232685199  0.9450111003701165  0.7163229863856059  1.0000
  C   C10       1.0  0.058191907679678  0.055008153081701  0.2836624431364356  1.0000
  C   C11       1.0  0.9380303777634393  0.8558850055077084  0.8059394779972848  1.0000
  C   C12       1.0  0.06194031678862899  0.1441150196497674  0.1940451407242136  1.0000
  Br  Br1       1.0  0.3068016192259435  0.7319729730420617  0.06435904520027692  1.0000
  Br  Br2       1.0  0.6932530065417736  0.26805132014266053  0.9355989987742889  1.0000
  N   N1        1.0  0.7131570959272081  0.6908451694531619  0.8014027776854817  1.0000
  N   N2        1.0  0.28683960734473857  0.3091526332297504  0.1985964084506122  1.0000
  O   O1        1.0  0.011281018577861283  0.33883492280313715  0.6232069150415  1.0000
  O   O2        1.0  0.9886780459947387  0.6611444237716025  0.3768240728674428  1.0000
