data_image0
_chemical_formula_structural       Ag4H12C16S4N8O8
_chemical_formula_sum              "Ag4 H12 C16 S4 N8 O8"
_cell_length_a       3.7292955504666034
_cell_length_b       12.485571516038515
_cell_length_c       12.997104967627955
_cell_angle_alpha    90.0001199562875
_cell_angle_beta     90.09439534927355
_cell_angle_gamma    89.99974100749195

_space_group_name_H-M_alt    "P 1"
_space_group_IT_number       1

loop_
  _space_group_symop_operation_xyz
  'x, y, z'

loop_
  _atom_site_type_symbol
  _atom_site_label
  _atom_site_symmetry_multiplicity
  _atom_site_fract_x
  _atom_site_fract_y
  _atom_site_fract_z
  _atom_site_occupancy
  Ag  Ag1       1.0  0.993594911505653  0.9490221413135487  0.9010671049006048  1.0000
  Ag  Ag2       1.0  0.006395900848161798  0.44901333192404286  0.5989281135456466  1.0000
  Ag  Ag3       1.0  0.006405350104081699  0.05097894689980359  0.0989305252501111  1.0000
  Ag  Ag4       1.0  0.9935801369768882  0.5509797470640834  0.4010725236055563  1.0000
  H   H1        1.0  0.9170746418129027  0.72410173737898  0.8689236970122068  1.0000
  H   H2        1.0  0.08293014868467452  0.224101704312119  0.631075716651651  1.0000
  H   H3        1.0  0.08292307562315672  0.2758945452841388  0.1310693091264312  1.0000
  H   H4        1.0  0.9170859040126517  0.7758969811279787  0.3689319621833036  1.0000
  H   H5        1.0  0.9622957682139202  0.6246652229998871  0.7709040216097094  1.0000
  H   H6        1.0  0.037710498068371116  0.1246654641022147  0.7290959614663421  1.0000
  H   H7        1.0  0.03770460774461531  0.37533025873777603  0.2290897617186687  1.0000
  H   H8        1.0  0.962302873251204  0.8753332213396944  0.2709117095414157  1.0000
  H   H9        1.0  0.5367462557931191  0.6513363518159777  0.8215952808437379  1.0000
  H   H10       1.0  0.4632569728677963  0.1513359063269064  0.6784032093092448  1.0000
  H   H11       1.0  0.4632540744367546  0.34865993084788033  0.1784000412121287  1.0000
  H   H12       1.0  0.5367564670417481  0.8486619781879554  0.32160215360767813  1.0000
  C   C1        1.0  0.7359095048924544  0.7730934495050477  0.7209390207368714  1.0000
  C   C2        1.0  0.264097205740974  0.273094293379458  0.7790612686331572  1.0000
  C   C3        1.0  0.2640774184727945  0.2268996294698908  0.2790562621797577  1.0000
  C   C4        1.0  0.7359216197612499  0.7269067948288992  0.220943340578053  1.0000
  C   C5        1.0  0.5840468978225104  0.7608208806672537  0.623578294091331  1.0000
  C   C6        1.0  0.41595465786947017  0.2608233321453923  0.876421185584327  1.0000
  C   C7        1.0  0.4159266186177462  0.23917700386366647  0.3764169496941179  1.0000
  C   C8        1.0  0.5840722574584589  0.7391817606782922  0.1235819083858374  1.0000
  C   C9        1.0  0.7911825248281446  0.68921267660199  0.8004777661731596  1.0000
  C   C10       1.0  0.20882813137892953  0.189214223508813  0.6995223623535337  1.0000
  C   C11       1.0  0.20881244265225257  0.3107828051409953  0.1995175402274967  1.0000
  C   C12       1.0  0.7911906712740517  0.810785262851418  0.3004830162194025  1.0000
  C   C13       1.0  0.41671175015397216  0.6655325519454751  0.5750495923981234  1.0000
  C   C14       1.0  0.5832804475670345  0.1655356830800585  0.9249519724493639  1.0000
  C   C15       1.0  0.5832671061925581  0.33446373073369523  0.42494643640345237  1.0000
  C   C16       1.0  0.4167356736478354  0.8344718125268783  0.0750533983044264  1.0000
  S   S1        1.0  0.593074641027961  0.8811557090092778  0.5632152817035845  1.0000
  S   S2        1.0  0.40692780528694067  0.3811583038309223  0.9367836784107767  1.0000
  S   S3        1.0  0.4069229163366757  0.11884618013122858  0.43678310998407704  1.0000
  S   S4        1.0  0.5930804089685608  0.618848390851845  0.0632170526805567  1.0000
  N   N1        1.0  0.8414268001998693  0.8769356598866337  0.7383769644665036  1.0000
  N   N2        1.0  0.15857568686215728  0.3769374097532463  0.7616227565244813  1.0000
  N   N3        1.0  0.15857075721907424  0.1230590209334608  0.2616214272139104  1.0000
  N   N4        1.0  0.8414271418368814  0.6230612756890821  0.2383787282677332  1.0000
  N   N5        1.0  0.7842088368671157  0.943503654086733  0.6622980368221363  1.0000
  N   N6        1.0  0.2157926697762562  0.4435062926171653  0.8377010486643285  1.0000
  N   N7        1.0  0.21579671894437516  0.0564934295031065  0.33770191706899066  1.0000
  N   N8        1.0  0.7842021376266857  0.5564955965277036  0.1622996432861541  1.0000
  O   O1        1.0  0.42091451956707  0.5788549546989544  0.6263981462573369  1.0000
  O   O2        1.0  0.579062873404297  0.0788547763050644  0.873603966691725  1.0000
  O   O3        1.0  0.5790536797980437  0.42114853630530286  0.3735955431526534  1.0000
  O   O4        1.0  0.42095849625953013  0.9211527193025117  0.12640526653317607  1.0000
  O   O5        1.0  0.27625602622558887  0.6813195739819093  0.4869099569142605  1.0000
  O   O6        1.0  0.7237463575250302  0.18132081930577468  0.0130903313737178  1.0000
  O   O7        1.0  0.7237230129872786  0.31867991238841137  0.5130799169838198  1.0000
  O   O8        1.0  0.276269672220451  0.8186898800025304  0.9869181168366551  1.0000
