data_image0
_chemical_formula_structural       Zn4H86C84O24
_chemical_formula_sum              "Zn4 H86 C84 O24"
_cell_length_a       17.87642922453366
_cell_length_b       17.809295454218375
_cell_length_c       19.431784833807434
_cell_angle_alpha    74.30333125782019
_cell_angle_beta     79.04912163190366
_cell_angle_gamma    63.657292102515655

_space_group_name_H-M_alt    "P 1"
_space_group_IT_number       1

loop_
  _space_group_symop_operation_xyz
  'x, y, z'

loop_
  _atom_site_type_symbol
  _atom_site_label
  _atom_site_symmetry_multiplicity
  _atom_site_fract_x
  _atom_site_fract_y
  _atom_site_fract_z
  _atom_site_occupancy
  Zn  Zn1       1.0  0.4186270937948821  0.5809600123893756  0.5590911014083987  1.0000
  Zn  Zn2       1.0  0.548933320811912  0.5667493501945414  0.4198856620627965  1.0000
  Zn  Zn3       1.0  0.44640358993348206  0.4507110347522951  0.4636836140426227  1.0000
  Zn  Zn4       1.0  0.5895225944276491  0.40966510146968454  0.559862339975794  1.0000
  H   H1        1.0  0.4713085951004388  0.6342314423468808  0.7379571563836792  1.0000
  H   H2        1.0  0.6695587665009487  0.8728509125660011  0.6148969865428885  1.0000
  H   H3        1.0  0.28801216479522673  0.12939283160126536  0.43835460634522155  1.0000
  H   H4        1.0  0.7019417246337982  0.9856803802503366  0.6340589981182847  1.0000
  H   H5        1.0  0.6705911334885643  0.14088128054518018  0.616192806274981  1.0000
  H   H6        1.0  0.46344978147484284  0.2098173926279614  0.4967992624243963  1.0000
  H   H7        1.0  0.5860954096197091  0.8289527893087012  0.5608839424627377  1.0000
  H   H8        1.0  0.38041235942997537  0.1752324982004794  0.4777662511797943  1.0000
  H   H9        1.0  0.5595148455021931  0.5973474768298954  0.1957024183828366  1.0000
  H   H10       1.0  0.6060152752539667  0.3627412634092551  0.913487304335668  1.0000
  H   H11       1.0  0.5992402949167471  0.35935639657774476  0.7866724431067738  1.0000
  H   H12       1.0  0.549372419917816  0.603097991696636  0.06751664821911872  1.0000
  H   H13       1.0  0.8172012961115982  0.26673638620834333  0.4786750497348395  1.0000
  H   H14       1.0  0.9013587822222959  0.21498624675540864  0.41754442375847856  1.0000
  H   H15       1.0  0.7134221197796152  0.2840842933525849  0.4007251565930191  1.0000
  H   H16       1.0  0.7944062985467043  0.237823548836495  0.3368474857986713  1.0000
  H   H17       1.0  0.8497783335439806  0.0981066462377598  0.42805539307779134  1.0000
  H   H18       1.0  0.7430972538415902  0.12881070279448886  0.41649863353336525  1.0000
  H   H19       1.0  0.7696427165856505  0.1448024814592443  0.4930340089677757  1.0000
  H   H20       1.0  0.17103744808260768  0.2550366689702344  0.4061597975543592  1.0000
  H   H21       1.0  0.22436496920590088  0.3237071546250618  0.37107131508641816  1.0000
  H   H22       1.0  0.2281659624661288  0.3043966930854296  0.24677450604608006  1.0000
  H   H23       1.0  0.8907757976128751  0.6724177647893371  0.5953624918917272  1.0000
  H   H24       1.0  0.2773732017095014  0.2030652663753045  0.3053349215243345  1.0000
  H   H25       1.0  0.17448439354411258  0.2363769077575455  0.2813392792501688  1.0000
  H   H26       1.0  0.9312492202844069  0.8134023894834  0.5306241293105389  1.0000
  H   H27       1.0  0.020105630263309242  0.8203282208011656  0.5529668676794658  1.0000
  H   H28       1.0  0.8543698054833728  0.8516603288946171  0.6468317034559519  1.0000
  H   H29       1.0  0.9429334719507522  0.856436858330909  0.6699502717561644  1.0000
  H   H30       1.0  0.9323517347893288  0.9769993706086805  0.5604498546476719  1.0000
  H   H31       1.0  0.8397255966922901  0.004919427477680893  0.6188729688558114  1.0000
  H   H32       1.0  0.8418394051393466  0.9733189213889657  0.5393963571320911  1.0000
  H   H33       1.0  0.12904800598366967  0.5943832823810737  0.3570554118076857  1.0000
  H   H34       1.0  0.7981163963087071  0.5285350596046288  0.5146958417981936  1.0000
  H   H35       1.0  0.1171638824072759  0.5454521482059034  0.2928858347758665  1.0000
  H   H36       1.0  0.27337057472529847  0.4698293332678177  0.27291671048157434  1.0000
  H   H37       1.0  0.24255419805846415  0.5819923405805412  0.2569592563642615  1.0000
  H   H38       1.0  0.2861784759955059  0.5156852417892991  0.33884241909068197  1.0000
  H   H39       1.0  0.617455215156845  0.8464325750206071  0.42108457082841283  1.0000
  H   H40       1.0  0.5952041413344984  0.7760997462898304  0.3855889501439337  1.0000
  H   H41       1.0  0.7157412739909649  0.719490382012374  0.5015152290801411  1.0000
  H   H42       1.0  0.6923752972967775  0.6504332302453619  0.4666153116157334  1.0000
  H   H43       1.0  0.7514185902328095  0.6999841023615402  0.3438905358302407  1.0000
  H   H44       1.0  0.8274197280641434  0.6597072041017211  0.4065775481408096  1.0000
  H   H45       1.0  0.1559518010726962  0.6728437449046536  0.5973444186457685  1.0000
  H   H46       1.0  0.7727295765786837  0.7720216568557703  0.376767141261432  1.0000
  H   H47       1.0  0.38024964357295243  0.8114029634329043  0.332122151561869  1.0000
  H   H48       1.0  0.28207932547682213  0.8885334927012493  0.2994243349093678  1.0000
  H   H49       1.0  0.3176653833766211  0.707300646131479  0.3901683445492168  1.0000
  H   H50       1.0  0.21880810649741994  0.7831592360548213  0.361127300610555  1.0000
  H   H51       1.0  0.27759238259078955  0.7849208601330488  0.23150589779568526  1.0000
  H   H52       1.0  0.2932263944367365  0.6791821290282485  0.2783256522059646  1.0000
  H   H53       1.0  0.3777699617638319  0.7099870884597124  0.2603349550241348  1.0000
  H   H54       1.0  0.16921692360963195  0.04822998230890359  0.5049682712116665  1.0000
  H   H55       1.0  0.16969827660625492  0.968809256452893  0.46440062350936995  1.0000
  H   H56       1.0  0.204779490787729  0.49038200730344533  0.4699976638398128  1.0000
  H   H57       1.0  0.09043817958688291  0.0841086920027223  0.3647822657396206  1.0000
  H   H58       1.0  0.0347640250531285  0.1009819939074603  0.4495423603693213  1.0000
  H   H59       1.0  0.09037288723886414  0.16418851246812946  0.40362450391018717  1.0000
  H   H60       1.0  0.3548675020259609  0.6794241611384846  0.007552756497545896  1.0000
  H   H61       1.0  0.31105162684438176  0.6110732055311915  0.0685497581660428  1.0000
  H   H62       1.0  0.2417993222833061  0.6109183697070931  0.966905881858935  1.0000
  H   H63       1.0  0.20927837422172518  0.7170141623728693  0.9787775579286238  1.0000
  H   H64       1.0  0.2848299140914465  0.680002058832258  0.9071703993708842  1.0000
  H   H65       1.0  0.47913113506754  0.31613724822640416  0.15702822989864987  1.0000
  H   H66       1.0  0.4905174458342574  0.3724681120709334  0.06723134880983392  1.0000
  H   H67       1.0  0.840104658790928  0.5889109752006902  0.5508109831468674  1.0000
  H   H68       1.0  0.3544737663082672  0.3825461876226584  0.041505907017565825  1.0000
  H   H69       1.0  0.4216870139391063  0.27330151401325503  0.07411796075272294  1.0000
  H   H70       1.0  0.3383333701845431  0.3308814516384614  0.13200259952233048  1.0000
  H   H71       1.0  0.7130374175519166  0.48361812758676587  0.022718971516489727  1.0000
  H   H72       1.0  0.6450979310511473  0.5635666937552485  0.9576438113092538  1.0000
  H   H73       1.0  0.779277042578606  0.38732254974999586  0.9357428256264061  1.0000
  H   H74       1.0  0.7114516122955691  0.46435131812930297  0.8706340959477503  1.0000
  H   H75       1.0  0.7699572184488731  0.5699870189225817  0.8707094465948517  1.0000
  H   H76       1.0  0.8510203761346062  0.4739685608519579  0.8496296261808568  1.0000
  H   H77       1.0  0.8378522551909031  0.4939213736405889  0.9367966322267451  1.0000
  H   H78       1.0  0.4196476762221408  0.44237443573497603  0.26222483752918896  1.0000
  H   H79       1.0  0.46770203006746425  0.7470203508216714  0.7739787337734471  1.0000
  H   H80       1.0  0.5713285393593709  0.6863460336837477  0.8020339844986211  1.0000
  H   H81       1.0  0.4239920010677309  0.818906423265929  0.875745945938434  1.0000
  H   H82       1.0  0.5204526504502527  0.7512717691803558  0.9134116667457022  1.0000
  H   H83       1.0  0.5974550734338778  0.8137807801442775  0.810069386631071  1.0000
  H   H84       1.0  0.5156420429545535  0.8976145550237431  0.8475028399019923  1.0000
  H   H85       1.0  0.5039017869387835  0.8780321460826243  0.7662896686566542  1.0000
  H   H86       1.0  0.9845645465883666  0.33418235768957055  0.352492762539562  1.0000
  C   C1        1.0  0.7195438368268868  0.4574279058646198  0.46806944293652475  1.0000
  C   C2        1.0  0.5461559176752432  0.49916416651625883  0.972687318460807  1.0000
  C   C3        1.0  0.4757925103563494  0.5295017319035084  0.016544512886831352  1.0000
  C   C4        1.0  0.2800992044098579  0.5546168642213231  0.5269600191879676  1.0000
  C   C5        1.0  0.4901705187678617  0.5195853391164958  0.23671690318773386  1.0000
  C   C6        1.0  0.1885032082468072  0.5784485775661211  0.5328607036156755  1.0000
  C   C7        1.0  0.8101943082673985  0.4413530013313433  0.453170377459962  1.0000
  C   C8        1.0  0.04837536035871893  0.6594390294307644  0.5780940726938939  1.0000
  C   C9        1.0  0.13260346256003444  0.6408002292922957  0.5718990709833279  1.0000
  C   C10       1.0  0.15945386521094926  0.5379251669654079  0.49931368228070044  1.0000
  C   C11       1.0  0.07363883756633532  0.5555493597822619  0.504641967904263  1.0000
  C   C12       1.0  0.543371978719158  0.4998252847615062  0.8972393377800219  1.0000
  C   C13       1.0  0.017337367469288427  0.6155751095516635  0.5474892828080729  1.0000
  C   C14       1.0  0.041046897996430805  0.5130367916488153  0.4715957450598937  1.0000
  C   C15       1.0  0.9569801767717936  0.5226092303893921  0.4912125532932735  1.0000
  C   C16       1.0  0.4418559784284001  0.7306968585299458  0.4606630093369121  1.0000
  C   C17       1.0  0.9047488125776584  0.58053438805846  0.5364724841454065  1.0000
  C   C18       1.0  0.9322931017694035  0.6277147855827463  0.561676520428783  1.0000
  C   C19       1.0  0.08886621941495328  0.46310808514493124  0.41844736868896615  1.0000
  C   C20       1.0  0.05860896419416415  0.4167654458060568  0.3934682244043658  1.0000
  C   C21       1.0  0.9762597842638739  0.4208753210710724  0.4164049774416372  1.0000
  C   C22       1.0  0.9242982781554402  0.4763684023224214  0.46368417384374555  1.0000
  C   C23       1.0  0.5770338338019982  0.4219872545173188  0.8744172641959126  1.0000
  C   C24       1.0  0.944737959770862  0.3750360066772345  0.3896090582664868  1.0000
  C   C25       1.0  0.8628837442224225  0.38476898952614386  0.4078751960281012  1.0000
  C   C26       1.0  0.8408231090342682  0.4851977248523482  0.48051992843301156  1.0000
  C   C27       1.0  0.5646395843368737  0.1831646245696632  0.5548066888374168  1.0000
  C   C28       1.0  0.547023895519949  0.2755887727725154  0.5405710922391338  1.0000
  C   C29       1.0  0.418527620813471  0.8243130427701147  0.4535422827425889  1.0000
  C   C30       1.0  0.6491736093104876  0.03507586783587159  0.6044071392895205  1.0000
  C   C31       1.0  0.6324337773662309  0.12041837633564258  0.5945738411062536  1.0000
  C   C32       1.0  0.514147483116716  0.15906922522841427  0.5275498603984873  1.0000
  C   C33       1.0  0.5291081214794174  0.07240039357070319  0.5374420622767815  1.0000
  C   C34       1.0  0.5735763775864554  0.4197800996839972  0.8042227628109802  1.0000
  C   C35       1.0  0.5994195079039885  0.009150790133560295  0.5756753880139486  1.0000
  C   C36       1.0  0.47684824374758256  0.046149388663614795  0.5096513402298231  1.0000
  C   C37       1.0  0.5005185326560168  0.9575862578433456  0.51436517446556  1.0000
  C   C38       1.0  0.570897061190806  0.8965944426928445  0.5537680182063341  1.0000
  C   C39       1.0  0.6173386163833785  0.9212347586598852  0.58399316220428  1.0000
  C   C40       1.0  0.4962262281820104  0.5139746344941187  0.3132803548670184  1.0000
  C   C41       1.0  0.4000942829198734  0.1073419313985085  0.4801330260428074  1.0000
  C   C42       1.0  0.34804275468592044  0.0824068211233708  0.45799650594349134  1.0000
  C   C43       1.0  0.37098257603258145  0.994768883151387  0.4586666487056591  1.0000
  C   C44       1.0  0.45036099602618423  0.9316205326516709  0.48327520272837193  1.0000
  C   C45       1.0  0.4404972452297218  0.4826798972892376  0.14845820652581662  1.0000
  C   C46       1.0  0.3162024993241774  0.971547103384921  0.4333149086960121  1.0000
  C   C47       1.0  0.33923616874940205  0.8863804317452729  0.4317838691537761  1.0000
  C   C48       1.0  0.4737858014288606  0.8463876914588297  0.4762300702587155  1.0000
  C   C49       1.0  0.522500775840449  0.49526179233237133  0.682189233937301  1.0000
  C   C50       1.0  0.5336116494873053  0.4967117183808655  0.7556929824022023  1.0000
  C   C51       1.0  0.5014528978149287  0.5752576575898729  0.776773447798597  1.0000
  C   C52       1.0  0.5078890356254534  0.57716283281934  0.8466609054781531  1.0000
  C   C53       1.0  0.8355126807536806  0.26215028872739043  0.4219526682200368  1.0000
  C   C54       1.0  0.7783406894400642  0.23616149924303184  0.3946504863721217  1.0000
  C   C55       1.0  0.7856691256605258  0.1470774427480137  0.435235299853531  1.0000
  C   C56       1.0  0.4473178756293594  0.4784926500028845  0.21963568666473784  1.0000
  C   C57       1.0  0.18237451589656933  0.30012529238378965  0.3582920378217339  1.0000
  C   C58       1.0  0.2174923395997581  0.2587179545001561  0.29399967071071853  1.0000
  C   C59       1.0  0.9648967842606315  0.806452946885649  0.5758459106636594  1.0000
  C   C60       1.0  0.908454429585717  0.8672663722038506  0.6243566138836699  1.0000
  C   C61       1.0  0.87901399538908  0.9605538204745017  0.5835781940131356  1.0000
  C   C62       1.0  0.15835978082062496  0.5378160580330303  0.3323155247295446  1.0000
  C   C63       1.0  0.24536655309839278  0.5252041242372201  0.29860766166486746  1.0000
  C   C64       1.0  0.6146874923491342  0.783425489859155  0.4330144795190451  1.0000
  C   C65       1.0  0.6985863516078015  0.7116060362834276  0.45320368608712874  1.0000
  C   C66       1.0  0.7662655064572803  0.7108877416840258  0.3917002538448104  1.0000
  C   C67       1.0  0.5268646855590904  0.5650740168544459  0.18178258830040053  1.0000
  C   C68       1.0  0.31190773276998845  0.8333445228028964  0.3428310929617738  1.0000
  C   C69       1.0  0.28665849387497416  0.761295798895034  0.346659259264051  1.0000
  C   C70       1.0  0.31004853505101015  0.7323347376854341  0.2752606226564823  1.0000
  C   C71       1.0  0.16795277555151963  0.033503599027334  0.45363238193841954  1.0000
  C   C72       1.0  0.09168453549266078  0.0997197462482049  0.4153681001380677  1.0000
  C   C73       1.0  0.3322277335878356  0.6297813891299526  0.012031490268846267  1.0000
  C   C74       1.0  0.2630092033242732  0.6611884606282387  0.9631711429310598  1.0000
  C   C75       1.0  0.44450663914977884  0.36377956375924464  0.11155599526424005  1.0000
  C   C76       1.0  0.38603120529617757  0.33626746913851235  0.0884270859134446  1.0000
  C   C77       1.0  0.6808830255699617  0.4938305933842884  0.9757234258126886  1.0000
  C   C78       1.0  0.5212029149049329  0.5678573775483996  0.11077511659927107  1.0000
  C   C79       1.0  0.744385485864832  0.4567060278306059  0.9161316484076637  1.0000
  C   C80       1.0  0.8041459060630562  0.5009050693063486  0.8920055935329289  1.0000
  C   C81       1.0  0.5047083969049951  0.7172832259667813  0.8212212845180319  1.0000
  C   C82       1.0  0.4914737184136514  0.7842793120523694  0.862210987286716  1.0000
  C   C83       1.0  0.5290019650825284  0.8468720758947014  0.8191379276137528  1.0000
  C   C84       1.0  0.4786184070784857  0.5268201959847119  0.092537878519984  1.0000
  O   O1        1.0  0.5026300717627238  0.502405122813492  0.5006515038696195  1.0000
  O   O2        1.0  0.5319907073017801  0.556053507846393  0.32685861587578574  1.0000
  O   O3        1.0  0.5721987428459699  0.42863304688196274  0.6575518854958775  1.0000
  O   O4        1.0  0.46490722293910375  0.4672267142841873  0.3595209338433848  1.0000
  O   O5        1.0  0.46321151877643263  0.5607269038653085  0.649966962562317  1.0000
  O   O6        1.0  0.8291115088132558  0.3448772908353206  0.3790995867431733  1.0000
  O   O7        1.0  0.10245977137442715  0.37146158693390413  0.34106109328177336  1.0000
  O   O8        1.0  0.9923596945562284  0.7194779050186639  0.6170954455053915  1.0000
  O   O9        1.0  0.16565160071126434  0.4618186310739175  0.387648432969101  1.0000
  O   O10       1.0  0.5516537821116431  0.7809123575619806  0.49212927699152703  1.0000
  O   O11       1.0  0.28529764350428644  0.863190919529515  0.40981954684692584  1.0000
  O   O12       1.0  0.4025923621070718  0.6994899355431129  0.5130997228916243  1.0000
  O   O13       1.0  0.24188513276225618  0.03496971054031659  0.40799939256437784  1.0000
  O   O14       1.0  0.4003765910244326  0.5560017617529168  0.9896031761632786  1.0000
  O   O15       1.0  0.39466259815125687  0.44404021204277916  0.13447320953451947  1.0000
  O   O16       1.0  0.6226122565498359  0.4541904256076847  0.0023184266455515442  1.0000
  O   O17       1.0  0.48075351141436345  0.6526108393913717  0.8691481087298245  1.0000
  O   O18       1.0  0.5956931366029609  0.2953392968809041  0.5653637277040603  1.0000
  O   O19       1.0  0.6691789407176785  0.525523919694315  0.43025264281590847  1.0000
  O   O20       1.0  0.3251414153818787  0.507468688524021  0.48232710405874013  1.0000
  O   O21       1.0  0.7012460494884749  0.4031358842064492  0.5173501629190725  1.0000
  O   O22       1.0  0.30700371487604633  0.5828120283452093  0.56656253514565  1.0000
  O   O23       1.0  0.4974016251196078  0.691518030822614  0.4156271112586793  1.0000
  O   O24       1.0  0.48464454287459097  0.32815912219405863  0.5041927992076652  1.0000
