data_image0
_chemical_formula_structural       Zr6H18C50Cl2O32F10
_chemical_formula_sum              "Zr6 H18 C50 Cl2 O32 F10"
_cell_length_a       14.799345883446545
_cell_length_b       14.820004630495552
_cell_length_c       14.83673176697911
_cell_angle_alpha    60.224293528588504
_cell_angle_beta     59.97314583333044
_cell_angle_gamma    60.078545778340676

_space_group_name_H-M_alt    "P 1"
_space_group_IT_number       1

loop_
  _space_group_symop_operation_xyz
  'x, y, z'

loop_
  _atom_site_type_symbol
  _atom_site_label
  _atom_site_symmetry_multiplicity
  _atom_site_fract_x
  _atom_site_fract_y
  _atom_site_fract_z
  _atom_site_occupancy
  Zr  Zr1       1.0  0.8784370623514305  0.8826189424749982  0.6179130527888929  1.0000
  Zr  Zr2       1.0  0.11958350868818714  0.11834802404110427  0.38207726309322254  1.0000
  Zr  Zr3       1.0  0.11733953115559383  0.8820302709974966  0.6183573864813426  1.0000
  Zr  Zr4       1.0  0.8807732633956388  0.1219076939925826  0.3787482898505629  1.0000
  Zr  Zr5       1.0  0.11739677238733041  0.8814438749797304  0.3799316938388628  1.0000
  Zr  Zr6       1.0  0.8786146575719302  0.12055036284875326  0.6192155327904915  1.0000
  H   H1        1.0  0.09043383388316788  0.7201706628343061  0.5929253677919631  1.0000
  H   H2        1.0  0.09400718691679091  0.0943941550025329  0.21826353049598882  1.0000
  H   H3        1.0  0.09318584738066707  0.0931138774826721  0.5946295790346526  1.0000
  H   H4        1.0  0.7160919783572481  0.09646496875408409  0.5923599755523342  1.0000
  H   H5        1.0  0.13670451820216553  0.5928586616699575  0.35696039586829903  1.0000
  H   H6        1.0  0.8525527732292131  0.4149912525158398  0.6376135558706506  1.0000
  H   H7        1.0  0.5963701764550676  0.1332272588019661  0.9177604094747523  1.0000
  H   H8        1.0  0.41346948793647453  0.8542178752561539  0.09418972454381691  1.0000
  H   H9        1.0  0.8519648807731173  0.13761684362715684  0.09450207083014557  1.0000
  H   H10       1.0  0.13411970105605803  0.8553312815007245  0.9143761532299167  1.0000
  H   H11       1.0  0.5933445683984075  0.4156652399123501  0.35315318791431577  1.0000
  H   H12       1.0  0.4124433258731628  0.5953705081260167  0.635791399170877  1.0000
  H   H13       1.0  0.7515266077841718  0.6311022538636233  0.9588151040582744  1.0000
  H   H14       1.0  0.8376784743199154  0.5459535687991703  0.8741602194626948  1.0000
  H   H15       1.0  0.8371535729985381  0.3761759420895669  0.04395473247339485  1.0000
  H   H16       1.0  0.7509654334631082  0.4612290890723256  0.12901319654335447  1.0000
  H   H17       1.0  0.5959660201174087  0.8568741370712728  0.6333839856465246  1.0000
  H   H18       1.0  0.4128964821683568  0.13548935084359914  0.3545253309916774  1.0000
  C   C1        1.0  0.9901101566852478  0.702145526843928  0.49907807123335596  1.0000
  C   C2        1.0  0.3070404536647328  0.9979909974268323  0.20197900017866732  1.0000
  C   C3        1.0  0.0001291148317861072  0.3051262390374703  0.4958436842661271  1.0000
  C   C4        1.0  0.6987387728798785  0.993726297073145  0.8059997603080973  1.0000
  C   C5        1.0  0.9980183260443315  0.7024149196093671  0.8043849174418225  1.0000
  C   C6        1.0  0.700027971232835  0.002827470141546661  0.48997367473831593  1.0000
  C   C7        1.0  0.9985050086965258  0.306053416078896  0.2008749466852748  1.0000
  C   C8        1.0  0.3066062423629604  0.9916265536797367  0.500401602427111  1.0000
  C   C9        1.0  0.3043963893973968  0.700912764642858  0.49259972244983885  1.0000
  C   C10       1.0  0.9910010229005268  0.0010002237288304556  0.8063915503686658  1.0000
  C   C11       1.0  0.7002780641826616  0.3090647267982829  0.4975067801754065  1.0000
  C   C12       1.0  0.9982112051275749  0.995031931538925  0.1993399778704156  1.0000
  C   C13       1.0  0.9996779249683665  0.4069633038485989  0.4944794836984486  1.0000
  C   C14       1.0  0.989784659225876  0.6007624688422195  0.5003328247181571  1.0000
  C   C15       1.0  0.07934250102540838  0.4591650969178929  0.4163942859445769  1.0000
  C   C16       1.0  0.9108178683068145  0.5478707096559248  0.5790667918303214  1.0000
  C   C17       1.0  0.07432210400256169  0.5538921991983515  0.4187877687330825  1.0000
  C   C18       1.0  0.9151335776926289  0.4537941602475256  0.5760927052256405  1.0000
  C   C19       1.0  0.40953975822027655  0.997087807585359  0.1024414599141678  1.0000
  C   C20       1.0  0.6001980552393039  0.9905160907312901  0.9092760585720328  1.0000
  C   C21       1.0  0.46389115047660573  0.07455943614391457  0.050786964133926873  1.0000
  C   C22       1.0  0.5467920140671509  0.9121033280580875  0.9619062027332816  1.0000
  C   C23       1.0  0.5565609465613761  0.07169663565360887  0.956495983866134  1.0000
  C   C24       1.0  0.45373895094807193  0.9153153481571578  0.05576261062270752  1.0000
  C   C25       1.0  0.989368100268891  0.0006704560192429686  0.9082897720490095  1.0000
  C   C26       1.0  0.9974017845788483  0.993073718088972  0.09985953464008882  1.0000
  C   C27       1.0  0.9106254795254856  0.07938487364563662  0.9615888875732352  1.0000
  C   C28       1.0  0.07595823763232097  0.9141213750331474  0.04677702560154272  1.0000
  C   C29       1.0  0.9142596584099109  0.07575828572589638  0.05490628824595933  1.0000
  C   C30       1.0  0.072157606320673  0.9175756463206212  0.9535914144231867  1.0000
  C   C31       1.0  0.40669643062408084  0.601212760810121  0.4907623309855254  1.0000
  C   C32       1.0  0.5998127587119555  0.4104874596859886  0.4974442643924634  1.0000
  C   C33       1.0  0.46031152010623805  0.548143051616492  0.4118145935519523  1.0000
  C   C34       1.0  0.546248086927797  0.4636328336621532  0.5763255607002906  1.0000
  C   C35       1.0  0.5542280826622203  0.4553004645779664  0.4149511261915108  1.0000
  C   C36       1.0  0.452199910086705  0.5564146013550229  0.5733134887935307  1.0000
  C   C37       1.0  0.004584543050775425  0.6018738299951778  0.9041273894559014  1.0000
  C   C38       1.0  0.004733036808566755  0.4056565483269238  0.0999737685414885  1.0000
  C   C39       1.0  0.9254428214772118  0.5507160949029952  0.9556662751796027  1.0000
  C   C40       1.0  0.08831426791239491  0.45453835133095316  0.04815729741892478  1.0000
  C   C41       1.0  0.9254120486408511  0.4570822763758002  0.04920647550486717  1.0000
  C   C42       1.0  0.08793953216267186  0.5504495068763403  0.9528275320031769  1.0000
  C   C43       1.0  0.8236918570426327  0.5568366798459646  0.9487012233209883  1.0000
  C   C44       1.0  0.8234419945635951  0.45059101484216757  0.054973932745383466  1.0000
  C   C45       1.0  0.4086278033546553  0.9909575734719097  0.49905394947698767  1.0000
  C   C46       1.0  0.60017202320072  0.0014838421254381442  0.48896576139689774  1.0000
  C   C47       1.0  0.46248017050339735  0.9130853757767525  0.576878124248644  1.0000
  C   C48       1.0  0.5464099907310428  0.07924509592884714  0.41103654157728897  1.0000
  C   C49       1.0  0.5559003941535039  0.9179852436999025  0.5720864995865326  1.0000
  C   C50       1.0  0.4530968360655266  0.07425494075923907  0.41569982024980595  1.0000
  Cl  Cl1       1.0  0.19517620704014152  0.3994787688381649  0.09657347493317306  1.0000
  Cl  Cl2       1.0  0.19427616205290843  0.6001548143135764  0.8987902094172568  1.0000
  O   O1        1.0  0.9149238329518143  0.7418239091498647  0.5759212308651129  1.0000
  O   O2        1.0  0.26573522462700083  0.07506450764483923  0.24119306830361614  1.0000
  O   O3        1.0  0.07897376859575196  0.2622509998883088  0.4226179361254482  1.0000
  O   O4        1.0  0.7371339340541636  0.9198827636727811  0.76335606534262  1.0000
  O   O5        1.0  0.07181943853978351  0.7467266323013817  0.7604046022906346  1.0000
  O   O6        1.0  0.7387476072272037  0.08029172409948844  0.41583702605721123  1.0000
  O   O7        1.0  0.9213798889184731  0.26889787876176297  0.2339111991904161  1.0000
  O   O8        1.0  0.26464051426894736  0.9174249998760331  0.5777509603536756  1.0000
  O   O9        1.0  0.2626741390714784  0.7393212032216069  0.41830367967511245  1.0000
  O   O10       1.0  0.9159154925518395  0.07784590538420114  0.7653220722759431  1.0000
  O   O11       1.0  0.737887567606279  0.26681219477767115  0.5757006522804602  1.0000
  O   O12       1.0  0.07497388639097124  0.9198635725519962  0.23862348096420052  1.0000
  O   O13       1.0  0.06901448098901151  0.9247513960580276  0.7673534615512453  1.0000
  O   O14       1.0  0.7397341276436223  0.27141254260015296  0.4195138658857117  1.0000
  O   O15       1.0  0.9223500180499186  0.07345964697534398  0.23642391363394913  1.0000
  O   O16       1.0  0.26585997009458134  0.7389855653803111  0.5699066979646121  1.0000
  O   O17       1.0  0.9200114638063397  0.7369212823763148  0.7686795053266309  1.0000
  O   O18       1.0  0.26811814767697945  0.06858396340323472  0.42391157628885173  1.0000
  O   O19       1.0  0.06969857605368901  0.26379248994907556  0.24722221681318496  1.0000
  O   O20       1.0  0.7377259789032992  0.9262507705159987  0.5671429463467845  1.0000
  O   O21       1.0  0.7359747468215828  0.07163821210753699  0.7673585942273321  1.0000
  O   O22       1.0  0.06716308144784496  0.7403629761619612  0.421688375975208  1.0000
  O   O23       1.0  0.2675495932588632  0.9221395572903077  0.2388100675301955  1.0000
  O   O24       1.0  0.9216418016128427  0.26811635228052916  0.5716682662357683  1.0000
  O   O25       1.0  0.7963280743874322  0.06976587829928574  0.565685774839153  1.0000
  O   O26       1.0  0.06598600348333147  0.06693592971846837  0.5678510180781303  1.0000
  O   O27       1.0  0.06685693932177371  0.06755053259860934  0.29817534797143713  1.0000
  O   O28       1.0  0.06425253642564835  0.8000810803413998  0.5658080903269607  1.0000
  O   O29       1.0  0.1475357178637964  0.9502106392401188  0.45013143546140094  1.0000
  O   O30       1.0  0.9485417728170662  0.9528334573326162  0.44913286251441065  1.0000
  O   O31       1.0  0.9496228888289479  0.14886267299124234  0.4509517354801672  1.0000
  O   O32       1.0  0.9477572992268154  0.9523178353262479  0.6476231502270123  1.0000
  F   F1        1.0  0.1647014229795971  0.4187514677594351  0.3356748247852792  1.0000
  F   F2        1.0  0.8268153645248618  0.5869672310913429  0.6615246310314048  1.0000
  F   F3        1.0  0.427734748494494  0.15551229602640143  0.09103593344448767  1.0000
  F   F4        1.0  0.5840161056049953  0.8300207373242543  0.9224646046734647  1.0000
  F   F5        1.0  0.8277590726707441  0.1627140549921364  0.9234399927465802  1.0000
  F   F6        1.0  0.15919605652793226  0.8313457913417963  0.08449944026009598  1.0000
  F   F7        1.0  0.4219947031967876  0.5855789539368741  0.32918537168654877  1.0000
  F   F8        1.0  0.5845647718192665  0.4260013843890107  0.6589221382705401  1.0000
  F   F9        1.0  0.4247881570786094  0.8300321504616403  0.6601596120378944  1.0000
  F   F10       1.0  0.5837308140069909  0.1627132505909257  0.328122150830403  1.0000
