data_image0
_chemical_formula_structural       Co2H32C44N8O8
_chemical_formula_sum              "Co2 H32 C44 N8 O8"
_cell_length_a       7.810706436198579
_cell_length_b       10.950571373399999
_cell_length_c       13.396990806984498
_cell_angle_alpha    85.15985879388187
_cell_angle_beta     76.31627072665178
_cell_angle_gamma    69.15502230867486

_space_group_name_H-M_alt    "P 1"
_space_group_IT_number       1

loop_
  _space_group_symop_operation_xyz
  'x, y, z'

loop_
  _atom_site_type_symbol
  _atom_site_label
  _atom_site_symmetry_multiplicity
  _atom_site_fract_x
  _atom_site_fract_y
  _atom_site_fract_z
  _atom_site_occupancy
  Co  Co1       1.0  0.7105871684626451  0.5792410518870522  0.24993260159671846  1.0000
  Co  Co2       1.0  0.28941300149771365  0.4207622299845183  0.7500668013383771  1.0000
  H   H1        1.0  0.8302000975919555  0.3236737280140929  0.9316307464523419  1.0000
  H   H2        1.0  0.8456869572097646  0.323782733726027  0.568341660824629  1.0000
  H   H3        1.0  0.16979985951222448  0.6763246672088737  0.06837125534627829  1.0000
  H   H4        1.0  0.15431715262386095  0.6762127309803317  0.4316532592436673  1.0000
  H   H5        1.0  0.6029508237149982  0.48792292646857033  0.06273924173677158  1.0000
  H   H6        1.0  0.9088376166436376  0.48816379134292714  0.43728631692782477  1.0000
  H   H7        1.0  0.3970468518736894  0.5120774226455608  0.9372614437381372  1.0000
  H   H8        1.0  0.09116683465343557  0.511833628098536  0.5627084246299177  1.0000
  H   H9        1.0  0.15461526442482657  0.43160165274152024  0.2132350651119026  1.0000
  H   H10       1.0  0.41400920946099273  0.43145286893929585  0.286513359772286  1.0000
  H   H11       1.0  0.8453792643219419  0.568399672628473  0.7867689659892604  1.0000
  H   H12       1.0  0.5859888434526541  0.568549434962321  0.7134826636708667  1.0000
  H   H13       1.0  0.4675724746473975  0.26518412584815815  0.13817172954121304  1.0000
  H   H14       1.0  0.2671779636001404  0.26492234637647977  0.361552024792914  1.0000
  H   H15       1.0  0.5324225301470096  0.7348162223521725  0.8618337961488151  1.0000
  H   H16       1.0  0.7328200893135063  0.7350799575251371  0.6384439986502385  1.0000
  H   H17       1.0  0.5076199696273066  0.12913892407213007  0.9904542455017022  1.0000
  H   H18       1.0  0.36284546568068526  0.1288586549225599  0.5093186049698062  1.0000
  H   H19       1.0  0.4923759992162005  0.8708594698063337  0.009552774858988781  1.0000
  H   H20       1.0  0.6371540572142891  0.8711407175311972  0.4906766714652093  1.0000
  H   H21       1.0  0.23913347856415612  0.15453560100537084  0.9098335764173484  1.0000
  H   H22       1.0  0.6057655195617997  0.15437156062716884  0.5900280734850014  1.0000
  H   H23       1.0  0.7608616727682717  0.845461815307658  0.09017212786503846  1.0000
  H   H24       1.0  0.3942358088010281  0.8456268351050864  0.40996702468486035  1.0000
  H   H25       1.0  0.6914342147840246  0.9634358773087467  0.3014101441074644  1.0000
  H   H26       1.0  0.34613929601808013  0.9636634816307891  0.1983344462367995  1.0000
  H   H27       1.0  0.308572335629016  0.036562520076472496  0.6985902187028117  1.0000
  H   H28       1.0  0.6538657724597883  0.03633784718483209  0.8016681580886811  1.0000
  H   H29       1.0  0.7491352842473589  0.17423024134677687  0.2742419001441974  1.0000
  H   H30       1.0  0.07794696955112108  0.17433069138765936  0.2252394894825684  1.0000
  H   H31       1.0  0.25086681978812203  0.8257691318897998  0.7257597448786939  1.0000
  H   H32       1.0  0.9220541584814228  0.8256706361533119  0.7747621553767274  1.0000
  C   C1        1.0  0.7504896207720152  0.4376814765849346  0.06301453476855556  1.0000
  C   C2        1.0  0.8115479967218988  0.43782110825481607  0.43696125990936  1.0000
  C   C3        1.0  0.2495072133979123  0.5623178949288244  0.936987823642184  1.0000
  C   C4        1.0  0.1884559665737058  0.5621772883388514  0.5630334815665776  1.0000
  C   C5        1.0  0.02195634337215323  0.38153869113627076  0.10504436125546589  1.0000
  C   C6        1.0  0.5963532720404389  0.381510080473184  0.3948295892875747  1.0000
  C   C7        1.0  0.9780378379342524  0.6184606794898925  0.8949605956097882  1.0000
  C   C8        1.0  0.4036452628977615  0.61849124626751  0.6051671814909128  1.0000
  C   C9        1.0  0.17278205494880453  0.3696681268151635  0.1490873857068138  1.0000
  C   C10       1.0  0.457567994827784  0.36950494683455287  0.350689176615667  1.0000
  C   C11       1.0  0.8272126143590697  0.6303302666587951  0.8509175712402381  1.0000
  C   C12       1.0  0.5424315161133536  0.6304944256017321  0.6493075943264229  1.0000
  C   C13       1.0  0.3464147658800202  0.27768679172107363  0.10604130482673206  1.0000
  C   C14       1.0  0.37574757879474413  0.27747188317381694  0.39372805911261116  1.0000
  C   C15       1.0  0.6535771219570565  0.7223145327787818  0.8939638302218853  1.0000
  C   C16       1.0  0.6242527616113097  0.7225284668453751  0.6062685334007156  1.0000
  C   C17       1.0  0.3691782703820294  0.19995671167633586  0.02170884250655548  1.0000
  C   C18       1.0  0.43053602091138293  0.1997438603149674  0.4780896113555144  1.0000
  C   C19       1.0  0.6308163929489227  0.8000416817888905  0.9782968616940337  1.0000
  C   C20       1.0  0.569463019959038  0.8002564892997196  0.5219049177441732  1.0000
  C   C21       1.0  0.22044133851304798  0.21203975830276525  0.9765653413916126  1.0000
  C   C22       1.0  0.5670691721522162  0.21192416668922212  0.5233067578337439  1.0000
  C   C23       1.0  0.7795556182872332  0.7879566812887685  0.02344018462561344  1.0000
  C   C24       1.0  0.4329308387442196  0.7880742286123309  0.47668851868307627  1.0000
  C   C25       1.0  0.04624038131214552  0.30483236544993275  0.019128293610528098  1.0000
  C   C26       1.0  0.6485662793283852  0.304804449062864  0.4807902430424917  1.0000
  C   C27       1.0  0.9537555994851985  0.6951660284459961  0.9808772322430955  1.0000
  C   C28       1.0  0.35143373156805785  0.6951939462386887  0.5192050334743284  1.0000
  C   C29       1.0  0.9488995344880705  0.7196963411568048  0.2902235359237793  1.0000
  C   C30       1.0  0.3321235800357558  0.719805024655855  0.20982489008428468  1.0000
  C   C31       1.0  0.051106057852784756  0.280304010559007  0.7097745849623037  1.0000
  C   C32       1.0  0.6678797068819337  0.28019728091618384  0.7901749034922217  1.0000
  C   C33       1.0  0.9852428991991645  0.8456583965160287  0.2656082754691482  1.0000
  C   C34       1.0  0.17001696091210747  0.8457107962829867  0.23439809996563812  1.0000
  C   C35       1.0  0.014761863676767507  0.15434097761688287  0.7343900238456981  1.0000
  C   C36       1.0  0.8299881254965201  0.15429053255882508  0.7656022625992377  1.0000
  C   C37       1.0  0.8345655788201398  0.9644072389425916  0.2783872869845324  1.0000
  C   C38       1.0  0.20211029713156847  0.9645223305914925  0.2214467438218577  1.0000
  C   C39       1.0  0.16543784865864808  0.03559213473341319  0.7216134324378629  1.0000
  C   C40       1.0  0.7978916603658915  0.03547997453238589  0.7785547226086749  1.0000
  C   C41       1.0  0.8674153464557648  0.0824280023915023  0.263462044672039  1.0000
  C   C42       1.0  0.051383160679783726  0.08248987694194908  0.236188117437429  1.0000
  C   C43       1.0  0.13258759302155454  0.9175723484367068  0.7365386746685659  1.0000
  C   C44       1.0  0.9486197728206209  0.917510473877527  0.7638133491567061  1.0000
  N   N1        1.0  0.8341515810110636  0.4628298910509726  0.13085421949620724  1.0000
  N   N2        1.0  0.7028961921257422  0.46288857458227256  0.36907030130385715  1.0000
  N   N3        1.0  0.16584476515740226  0.5371704576149838  0.8691481388327276  1.0000
  N   N4        1.0  0.2971033068615584  0.5371107978365542  0.6309279641452932  1.0000
  N   N5        1.0  0.8709891896134753  0.34391091155512743  0.9952442293982598  1.0000
  N   N6        1.0  0.7846291220243983  0.3440250398285514  0.5047438791559955  1.0000
  N   N7        1.0  0.12900909660702817  0.6560855284845741  0.0047596237649471995  1.0000
  N   N8        1.0  0.21537318234136651  0.6559714015993093  0.4952512191774688  1.0000
  O   O1        1.0  0.8274469283787909  0.7071319712089161  0.24559036294539277  1.0000
  O   O2        1.0  0.4662954939476834  0.7073543736788465  0.25428170361970365  1.0000
  O   O3        1.0  0.17255194204593494  0.29287131025814256  0.7544069765760639  1.0000
  O   O4        1.0  0.5337102813647618  0.29265086464189943  0.7457175546705201  1.0000
  O   O5        1.0  0.03150564690642463  0.6389115232587625  0.3510140506361026  1.0000
  O   O6        1.0  0.33000830051658875  0.638939231292106  0.1491647469342894  1.0000
  O   O7        1.0  0.9684956635256441  0.36108687244730214  0.6489832892943568  1.0000
  O   O8        1.0  0.6699972679165853  0.36106112038877564  0.8508363629659215  1.0000
