data_image0
_chemical_formula_structural       Cd2H24C30N6O10
_chemical_formula_sum              "Cd2 H24 C30 N6 O10"
_cell_length_a       9.422198745556074
_cell_length_b       9.715113806195326
_cell_length_c       10.084827581867165
_cell_angle_alpha    76.66133102220087
_cell_angle_beta     89.58100340072355
_cell_angle_gamma    67.20069085419757

_space_group_name_H-M_alt    "P 1"
_space_group_IT_number       1

loop_
  _space_group_symop_operation_xyz
  'x, y, z'

loop_
  _atom_site_type_symbol
  _atom_site_label
  _atom_site_symmetry_multiplicity
  _atom_site_fract_x
  _atom_site_fract_y
  _atom_site_fract_z
  _atom_site_occupancy
  Cd  Cd1       1.0  0.023948376725861892  0.3296820398188061  0.9301308263015002  1.0000
  Cd  Cd2       1.0  0.9760517234839625  0.6703173552507523  0.0698670020264487  1.0000
  H   H1        1.0  0.6598615461974049  0.1814230309380136  0.852308324657358  1.0000
  H   H2        1.0  0.3401400768285329  0.8185752151005443  0.1476907389896382  1.0000
  H   H3        1.0  0.5181496234098476  0.11710587431460338  0.9254803492443033  1.0000
  H   H4        1.0  0.4818515390923539  0.8828935237761469  0.07451945332764609  1.0000
  H   H5        1.0  0.41898290309343617  0.169044856005435  0.11905787991202033  1.0000
  H   H6        1.0  0.5810181240645634  0.8309522336265118  0.8809434287623147  1.0000
  H   H7        1.0  0.37151248802767617  0.33266803778606396  0.2853966012698095  1.0000
  H   H8        1.0  0.6284876169026961  0.6673313562169196  0.7146051936151708  1.0000
  H   H9        1.0  0.5283989537583126  0.49279990061614143  0.28044050559908845  1.0000
  H   H10       1.0  0.47159976252000047  0.5072029511432774  0.7195575562252046  1.0000
  H   H11       1.0  0.9611051549526056  0.6522974060346484  0.6767892913151031  1.0000
  H   H12       1.0  0.03889937718124515  0.347696233749751  0.3232127574331188  1.0000
  H   H13       1.0  0.7034147631663147  0.5266096099806176  0.4213912166738822  1.0000
  H   H14       1.0  0.29658349022798103  0.47339439436428415  0.5786056007968413  1.0000
  H   H15       1.0  0.8146225183756288  0.2959617956530777  0.6677543841537031  1.0000
  H   H16       1.0  0.18537181810955866  0.7040387344961873  0.33224125335400606  1.0000
  H   H17       1.0  0.7609766030265988  0.7629535974831755  0.3200296077031837  1.0000
  H   H18       1.0  0.2390231779043575  0.23704925676415203  0.6799724116436253  1.0000
  H   H19       1.0  0.8760350332088295  0.8142460217995975  0.42091882989019075  1.0000
  H   H20       1.0  0.12396719040560102  0.18575337957899762  0.5790819552865045  1.0000
  H   H21       1.0  0.7582449165573525  0.9711108243328467  0.5883954568879943  1.0000
  H   H22       1.0  0.2417574483019608  0.028890884171325095  0.41160878038260057  1.0000
  H   H23       1.0  0.47969327137307266  0.8459254504534427  0.3412760912234987  1.0000
  H   H24       1.0  0.5203089569619054  0.15407394985857076  0.6587286605102209  1.0000
  C   C1        1.0  0.7559123654532272  0.9639629716455574  0.9997756890907256  1.0000
  C   C2        1.0  0.24408713770851884  0.0360352672840349  0.00022339262530119862  1.0000
  C   C3        1.0  0.6281371973573402  0.12479612535962296  0.9478419409250237  1.0000
  C   C4        1.0  0.3718629063928988  0.8752032689100059  0.0521588623207023  1.0000
  C   C5        1.0  0.4898776469107631  0.2330225497379884  0.12845014463790966  1.0000
  C   C6        1.0  0.5101209340233553  0.7669779935626335  0.8715494232887622  1.0000
  C   C7        1.0  0.4632090869895933  0.32523779596021996  0.21836661476837801  1.0000
  C   C8        1.0  0.5367890310605078  0.6747638999258851  0.7816317088047385  1.0000
  C   C9        1.0  0.5527403688209561  0.41157590786475845  0.21624464713337238  1.0000
  C   C10       1.0  0.4472566892970491  0.5884257844668639  0.7837536854742524  1.0000
  C   C11       1.0  0.6713565383382376  0.4012800502177355  0.131567986441766  1.0000
  C   C12       1.0  0.32864204141574044  0.5987204933495319  0.8684305898456517  1.0000
  C   C13       1.0  0.7053689166467549  0.2968021685297231  0.043338266732575896  1.0000
  C   C14       1.0  0.29463072421945913  0.7031983783253821  0.9566612921595876  1.0000
  C   C15       1.0  0.7539350275408271  0.5058113121597072  0.1325710985308036  1.0000
  C   C16       1.0  0.24606567325748327  0.49418923824988076  0.8674284513268448  1.0000
  C   C17       1.0  0.9074356106703906  0.5845986788305524  0.6422935237186564  1.0000
  C   C18       1.0  0.09256891674290563  0.4153949620204285  0.35770455847253413  1.0000
  C   C19       1.0  0.7702585148701006  0.5164879395831862  0.5128604656325066  1.0000
  C   C20       1.0  0.22973338365216733  0.48351604236824397  0.4871403726023402  1.0000
  C   C21       1.0  0.8277644971777534  0.4042553285518338  0.6330292688481975  1.0000
  C   C22       1.0  0.17222998055231653  0.5957475087230149  0.36696982075341117  1.0000
  C   C23       1.0  0.7782524664596766  0.7795973385477241  0.42145935441547516  1.0000
  C   C24       1.0  0.22174777617517086  0.2204043633807657  0.5785429176456418  1.0000
  C   C25       1.0  0.6345261524448276  0.8970523089359406  0.4591642824688621  1.0000
  C   C26       1.0  0.3654783299184032  0.10294940721048107  0.5408379534541937  1.0000
  C   C27       1.0  0.6450379332744094  0.9842971408995989  0.5485088956395715  1.0000
  C   C28       1.0  0.3549629064085096  0.015705717168863504  0.451492123033461  1.0000
  C   C29       1.0  0.48838642358799705  0.9136161272947091  0.41105417560577706  1.0000
  C   C30       1.0  0.5116160730750965  0.0863878904681954  0.5889455806446693  1.0000
  N   N1        1.0  0.603489802527058  0.22213657580369534  0.0434429085303734  1.0000
  N   N2        1.0  0.3965103000430404  0.7778628187325722  0.9565569030760913  1.0000
  N   N3        1.0  0.9132951485386088  0.4481995866016604  0.7124336231380114  1.0000
  N   N4        1.0  0.08670633560272734  0.5517963517780231  0.28756397169360076  1.0000
  N   N5        1.0  0.8225625161068496  0.6294736825161279  0.5203763555300399  1.0000
  N   N6        1.0  0.177437124759365  0.37052686433897714  0.47962320336211656  1.0000
  O   O1        1.0  0.8228586396758573  0.9230007256846803  0.11846934796251671  1.0000
  O   O2        1.0  0.17714132518977277  0.0769963609260742  0.8815299864678181  1.0000
  O   O3        1.0  0.784742449084412  0.8776169800279091  0.9156714178040062  1.0000
  O   O4        1.0  0.2152555336214945  0.12238240739939239  0.08432841187148911  1.0000
  O   O5        1.0  0.8104629174770395  0.2675690812301638  0.9636589221694436  1.0000
  O   O6        1.0  0.18953718509305878  0.7324303133061034  0.03634088943702102  1.0000
  O   O7        1.0  0.8816837873387869  0.48069415429647216  0.07410111446735358  1.0000
  O   O8        1.0  0.11831677693519542  0.5193040879209576  0.9258989498534191  1.0000
  O   O9        1.0  0.6972050694786561  0.6140323203314109  0.19051229326208843  1.0000
  O   O10       1.0  0.3027965547274222  0.3859659254405017  0.8094877620241689  1.0000
