data_image0
_chemical_formula_structural       Ce2H32C48S6N2O14
_chemical_formula_sum              "Ce2 H32 C48 S6 N2 O14"
_cell_length_a       8.253409062902412
_cell_length_b       14.064231743846104
_cell_length_c       14.066236162586195
_cell_angle_alpha    71.32213175788036
_cell_angle_beta     88.16286737581365
_cell_angle_gamma    88.18977456142163

_space_group_name_H-M_alt    "P 1"
_space_group_IT_number       1

loop_
  _space_group_symop_operation_xyz
  'x, y, z'

loop_
  _atom_site_type_symbol
  _atom_site_label
  _atom_site_symmetry_multiplicity
  _atom_site_fract_x
  _atom_site_fract_y
  _atom_site_fract_z
  _atom_site_occupancy
  Ce  Ce1       1.0  0.5919466235682691  0.08305897061917022  0.05305970125444759  1.0000
  Ce  Ce2       1.0  0.0927188510631893  0.0531405480604477  0.08340061157125687  1.0000
  H   H1        1.0  0.1007835257573575  0.6958636333430376  0.8741015223308182  1.0000
  H   H2        1.0  0.026928352569981898  0.9036453437894282  0.5781185558669435  1.0000
  H   H3        1.0  0.8619468933389952  0.6003141519761642  0.6538899948010835  1.0000
  H   H4        1.0  0.0687952666145222  0.34551656017233523  0.05023411364635416  1.0000
  H   H5        1.0  0.13866749647609566  0.5359748803822697  0.9578651139969238  1.0000
  H   H6        1.0  0.3946114469295737  0.08955662417343291  0.7040910358503536  1.0000
  H   H7        1.0  0.2383744998003152  0.9864402731643905  0.6086436412940869  1.0000
  H   H8        1.0  0.6329989127633412  0.7345471851123903  0.33145732283446694  1.0000
  H   H9        1.0  0.7151657319225605  0.6493203717896353  0.5207091475075882  1.0000
  H   H10       1.0  0.8055170055747355  0.17235414466534138  0.23799908347454848  1.0000
  H   H11       1.0  0.9339664604536324  0.2757216662577306  0.292305963080345  1.0000
  H   H12       1.0  0.9590913470496357  0.39587127236173825  0.19940164851880834  1.0000
  H   H13       1.0  0.8220011687250806  0.3829165565629183  0.3035695938157301  1.0000
  H   H14       1.0  0.5540485362958876  0.37883108937634097  0.09451845288845818  1.0000
  H   H15       1.0  0.5956873239072493  0.45402836353273573  0.1730741075313559  1.0000
  H   H16       1.0  0.7299326923374425  0.45427829029950567  0.07042863623303218  1.0000
  H   H17       1.0  0.6007734454272368  0.8740759504736745  0.6957109982085541  1.0000
  H   H18       1.0  0.5268670707827284  0.5780731004525278  0.9035833343348469  1.0000
  H   H19       1.0  0.3618190364932801  0.6537261160374257  0.6003644714466957  1.0000
  H   H20       1.0  0.5680908406660805  0.050210736277549  0.3452732201883605  1.0000
  H   H21       1.0  0.6382573393768923  0.9580179156208146  0.5356608561699331  1.0000
  H   H22       1.0  0.894869218012346  0.7043882002686673  0.08909415227675764  1.0000
  H   H23       1.0  0.7386586841272021  0.6087505104705998  0.986155757606198  1.0000
  H   H24       1.0  0.13317746939654276  0.3311736257222719  0.7344087301580089  1.0000
  H   H25       1.0  0.21540631984159828  0.5204594873313297  0.6492505262596068  1.0000
  H   H26       1.0  0.3053562994829377  0.23781575391198828  0.1726661038104425  1.0000
  H   H27       1.0  0.4342308196804368  0.2924347478658618  0.275638323518244  1.0000
  H   H28       1.0  0.4593520118410979  0.19984094749526096  0.3959436273946507  1.0000
  H   H29       1.0  0.3224720961687666  0.3041208145790222  0.3827440027581872  1.0000
  H   H30       1.0  0.05433144342930519  0.09464216601006831  0.3795814124126977  1.0000
  H   H31       1.0  0.0958407670270489  0.1735981700191545  0.45438512744356524  1.0000
  H   H32       1.0  0.23025337376974872  0.07096655001154062  0.45491441898727897  1.0000
  C   C1        1.0  0.975917360011259  0.6372848717323906  0.7729737169304157  1.0000
  C   C2        1.0  0.054864652887005094  0.7122307154798406  0.7986404290467489  1.0000
  C   C3        1.0  0.07711555171425738  0.8077971686261735  0.7287279422680651  1.0000
  C   C4        1.0  0.015530152701209905  0.8284626080737993  0.6319079514469477  1.0000
  C   C5        1.0  0.9372398542286932  0.7546733014175044  0.6037698880615067  1.0000
  C   C6        1.0  0.9191925035636146  0.6591011460797275  0.6751187915083462  1.0000
  C   C7        1.0  0.9596698210379279  0.5374793990171797  0.8464385137474151  1.0000
  C   C8        1.0  0.8932791646660903  0.3587348923751819  0.935283164977278  1.0000
  C   C9        1.0  0.010548532421097401  0.3941073919567231  0.9831375974497119  1.0000
  C   C10       1.0  0.04659376875192579  0.49547482729506953  0.9338069041211694  1.0000
  C   C11       1.0  0.8263255822118865  0.2578708208014787  0.9673452301188659  1.0000
  C   C12       1.0  0.1653449753771028  0.8839199907556293  0.7548905915256792  1.0000
  C   C13       1.0  0.3139974820731908  0.9803925261767361  0.8433593363593417  1.0000
  C   C14       1.0  0.32552947230022505  0.022260229013312493  0.7397429594183504  1.0000
  C   C15       1.0  0.2399117453091009  0.9682510608805756  0.6897693564708545  1.0000
  C   C16       1.0  0.38843765600274344  0.017226563455046997  0.9173956584484768  1.0000
  C   C17       1.0  0.8729580290452715  0.7759319176123896  0.5032798374054082  1.0000
  C   C18       1.0  0.7946137039969229  0.854781059818997  0.32507081410952293  1.0000
  C   C19       1.0  0.7204082253118146  0.7638241462247136  0.3706396570569978  1.0000
  C   C20       1.0  0.7652609685810957  0.7188841905607788  0.47111163517409677  1.0000
  C   C21       1.0  0.7621789799495531  0.9267891583652246  0.22564740218670915  1.0000
  C   C22       1.0  0.717674856957906  0.22928469116077108  0.19462635417366406  1.0000
  C   C23       1.0  0.8714310987618461  0.34577151254296723  0.2505680771289248  1.0000
  C   C24       1.0  0.6491224365773148  0.40777360233973076  0.12966575821889137  1.0000
  C   C25       1.0  0.47582470053157533  0.7728832359624606  0.6372224465698649  1.0000
  C   C26       1.0  0.5547833186436576  0.7985988156635101  0.7121173906608361  1.0000
  C   C27       1.0  0.57698454008667  0.7287080303804957  0.80768250926328  1.0000
  C   C28       1.0  0.5154314499057546  0.6318371268907369  0.8284019252268209  1.0000
  C   C29       1.0  0.4371699889711351  0.6036325864084731  0.7546588181608411  1.0000
  C   C30       1.0  0.4191007079337438  0.6749824835386137  0.6591071562594734  1.0000
  C   C31       1.0  0.45951651631033746  0.8462995149703048  0.5373966113744828  1.0000
  C   C32       1.0  0.3928851595214269  0.9349661088794148  0.3586806697568363  1.0000
  C   C33       1.0  0.5100367693798233  0.983025863323874  0.393923882170526  1.0000
  C   C34       1.0  0.5462352147456144  0.9337923271501719  0.4952650207687411  1.0000
  C   C35       1.0  0.3256360655022661  0.9667261566179448  0.2579406605855466  1.0000
  C   C36       1.0  0.6651776929609595  0.7549399093955741  0.8837660486904252  1.0000
  C   C37       1.0  0.8137735213560546  0.8435879521604407  0.9800826970427177  1.0000
  C   C38       1.0  0.8255979105416174  0.739973542463666  0.02190364844076241  1.0000
  C   C39       1.0  0.739976773306985  0.6898929421276065  0.9679875865045415  1.0000
  C   C40       1.0  0.8880336599280343  0.917813786216563  0.016793947946886916  1.0000
  C   C41       1.0  0.3729172790075808  0.5030929338956726  0.7759204768417971  1.0000
  C   C42       1.0  0.29446855576928505  0.32481733524257794  0.8547255342477483  1.0000
  C   C43       1.0  0.2204846726825451  0.3703810424383606  0.7637374496317049  1.0000
  C   C44       1.0  0.26536968783400283  0.4708838170993416  0.7188335376545962  1.0000
  C   C45       1.0  0.26165112619934666  0.22539648985336672  0.9266781153130024  1.0000
  C   C46       1.0  0.21762991221928732  0.1945133053309078  0.22978501966705508  1.0000
  C   C47       1.0  0.3717150934687794  0.2509097443334838  0.34579820661001986  1.0000
  C   C48       1.0  0.14935166271961006  0.13002370102258  0.4083123117026445  1.0000
  S   S1        1.0  0.8280790981483932  0.4513399784793606  0.8292501238081369  1.0000
  S   S2        1.0  0.19872310959798506  0.8742292333588182  0.8782012855105988  1.0000
  S   S3        1.0  0.9212938914400086  0.8833600995950517  0.40650277765012516  1.0000
  S   S4        1.0  0.3279661756870667  0.8288754720311644  0.4513966205802473  1.0000
  S   S5        1.0  0.698262399602676  0.878301721632532  0.8740890089182397  1.0000
  S   S6        1.0  0.42102461238891203  0.40630878790567243  0.8833705059190958  1.0000
  N   N1        1.0  0.7419293468250814  0.3234557032122823  0.19428182763802226  1.0000
  N   N2        1.0  0.2420619588884207  0.19449856720542158  0.32381024506167216  1.0000
  O   O1        1.0  0.895955557531373  0.19042398989324738  0.04019005566498627  1.0000
  O   O2        1.0  0.6987705048737  0.24024863712704564  0.9282151246492489  1.0000
  O   O3        1.0  0.5031108851958592  0.07935204387487  0.8890500400964638  1.0000
  O   O4        1.0  0.3406474374804702  0.9853357847919781  0.010819785825894676  1.0000
  O   O5        1.0  0.6537547676415798  0.9080281797080261  0.17241839660748326  1.0000
  O   O6        1.0  0.838093871453566  0.0109599071048478  0.19671052545255915  1.0000
  O   O7        1.0  0.6038848464452684  0.20700512147352157  0.14965837697452136  1.0000
  O   O8        1.0  0.39439981985451306  0.0399145419674198  0.19027544429715695  1.0000
  O   O9        1.0  0.19850927895980416  0.9270751159714125  0.24049658767120968  1.0000
  O   O10       1.0  0.0033082257938588035  0.8897021362633167  0.0784464246873  1.0000
  O   O11       1.0  0.8393658181029623  0.011022456674091102  0.9852492078501882  1.0000
  O   O12       1.0  0.1536760850636085  0.17204550288219173  0.9076749061726728  1.0000
  O   O13       1.0  0.3367552624985279  0.19652047543031156  0.011149149659097185  1.0000
  O   O14       1.0  0.1038137711182827  0.14931286175915662  0.20784295963738936  1.0000
