data_image0
_chemical_formula_structural       Na4B4H64C32S8N16O8
_chemical_formula_sum              "Na4 B4 H64 C32 S8 N16 O8"
_cell_length_a       6.233287464
_cell_length_b       10.106652238171877
_cell_length_c       22.8989
_cell_angle_alpha    90.0
_cell_angle_beta     90.0
_cell_angle_gamma    93.26127352435495

_space_group_name_H-M_alt    "P 1"
_space_group_IT_number       1

loop_
  _space_group_symop_operation_xyz
  'x, y, z'

loop_
  _atom_site_type_symbol
  _atom_site_label
  _atom_site_symmetry_multiplicity
  _atom_site_fract_x
  _atom_site_fract_y
  _atom_site_fract_z
  _atom_site_occupancy
  Na  Na1       1.0  0.8251778114615718  0.2732896189411065  0.2110236736262436  1.0000
  Na  Na2       1.0  0.6748217191563484  0.7267079551609825  0.7110254204350424  1.0000
  Na  Na3       1.0  0.17482561787195286  0.7267089462133214  0.7889758896715549  1.0000
  Na  Na4       1.0  0.3251768973075357  0.2732906099934453  0.2889758896715549  1.0000
  B   B1        1.0  0.5080718144050139  0.373135168607881  0.11584486591058857  1.0000
  B   B2        1.0  0.9919091548755928  0.6268524949708549  0.6158470494215891  1.0000
  B   B3        1.0  0.49194385052116724  0.6268742981222388  0.8841525138762094  1.0000
  B   B4        1.0  0.0080725045408627  0.3731361596602127  0.3841555707916129  1.0000
  H   H1        1.0  0.6622222043761637  0.007585514577598899  0.9301992672137089  1.0000
  H   H2        1.0  0.8377867691513075  0.9924100774198195  0.4302031975335082  1.0000
  H   H3        1.0  0.3377822305208511  0.9924239521525208  0.0697968024664917  1.0000
  H   H4        1.0  0.16221386749911915  0.0075756040542458  0.5697981125730962  1.0000
  H   H5        1.0  0.7740502423939403  0.9631591677310496  0.9989130482250201  1.0000
  H   H6        1.0  0.7259536440192986  0.0368334511093664  0.4989156684382222  1.0000
  H   H7        1.0  0.2259538268436216  0.036846334789729  0.0010834581573818  1.0000
  H   H8        1.0  0.2740438754662263  0.9631532214170377  0.5010834581573818  1.0000
  H   H9        1.0  0.9191935558308799  0.0779492393613737  0.9527558092310143  1.0000
  H   H10       1.0  0.5808139048215751  0.9220473436883835  0.4527575560398063  1.0000
  H   H11       1.0  0.08081693056620758  0.9220562631594048  0.0472406971513948  1.0000
  H   H12       1.0  0.41918388890854164  0.0779423019950229  0.5472420072579921  1.0000
  H   H13       1.0  0.48445297308791885  0.22318895021346208  0.9197865399648038  1.0000
  H   H14       1.0  0.015563980700498801  0.7768106059933046  0.41979047028459593  1.0000
  H   H15       1.0  0.5155628746679923  0.7768224986213284  0.08021127652420289  1.0000
  H   H16       1.0  0.9844281774262099  0.2231701202190806  0.5802112765242028  1.0000
  H   H17       1.0  0.3380481431078763  0.3997171743565601  0.002081759385824  1.0000
  H   H18       1.0  0.16194410642829377  0.6002754444838558  0.5020869998122207  1.0000
  H   H19       1.0  0.6619645874831335  0.6002952655305691  0.9979156204009809  1.0000
  H   H20       1.0  0.8380372787435704  0.39971023699020947  0.497919114018579  1.0000
  H   H21       1.0  0.1695234361150355  0.626162722545196  0.0831197131739927  1.0000
  H   H22       1.0  0.3304619391872947  0.3738249410335399  0.5831188397695968  1.0000
  H   H23       1.0  0.830484938680641  0.3738546726036134  0.9168837804436052  1.0000
  H   H24       1.0  0.6695276502636958  0.626162722545196  0.4168807235282016  1.0000
  H   H25       1.0  0.8535566140777676  0.8681717566139752  0.14948097943569388  1.0000
  H   H26       1.0  0.6464294423170642  0.131818880121763  0.6494809794356939  1.0000
  H   H27       1.0  0.1464385607394192  0.1318416743254858  0.8505264445017031  1.0000
  H   H28       1.0  0.3535587256737713  0.8681707655616435  0.3505203306709035  1.0000
  H   H29       1.0  0.1252822290315407  0.8173793333559942  0.14534104258282807  1.0000
  H   H30       1.0  0.3747036947599653  0.1826142765367536  0.6453419159872311  1.0000
  H   H31       1.0  0.8747177586552867  0.1826340975834668  0.8546637611413671  1.0000
  H   H32       1.0  0.6252847474754546  0.8173783423036625  0.3546585207149703  1.0000
  H   H33       1.0  0.9694602489225445  0.7801841481440945  0.20921485311521335  1.0000
  H   H34       1.0  0.530527594591895  0.2198084706963215  0.7092152898174149  1.0000
  H   H35       1.0  0.03054185036568669  0.2198173901673428  0.7907899506089817  1.0000
  H   H36       1.0  0.4694560347738914  0.7801841481440945  0.290785583586981  1.0000
  H   H37       1.0  0.9278541197901973  0.3939779902804048  0.059433859268345685  1.0000
  H   H38       1.0  0.5721378052749841  0.6060067001413216  0.5594312390551508  1.0000
  H   H39       1.0  0.0721573721703805  0.6060384138160657  0.940562210411855  1.0000
  H   H40       1.0  0.4278578356760789  0.39397699922806584  0.44056570402945266  1.0000
  H   H41       1.0  0.509775070404693  0.30256827809527914  0.15918493901453698  1.0000
  H   H42       1.0  0.9902058988759136  0.6974193854834567  0.6591884326321349  1.0000
  H   H43       1.0  0.4902455902208516  0.6974431707395112  0.8408128774744623  1.0000
  H   H44       1.0  0.009775577710811896  0.30256728704294733  0.3408159343898589  1.0000
  H   H45       1.0  0.34071647626195295  0.4274973623791212  0.1129172143640105  1.0000
  H   H46       1.0  0.1592689904552458  0.5724912922519465  0.6129198345772053  1.0000
  H   H47       1.0  0.6592891058506325  0.5725071490893185  0.8870810388271906  1.0000
  H   H48       1.0  0.8407192689504582  0.4274993444837918  0.3870827856359895  1.0000
  H   H49       1.0  0.08003584018020149  0.4960633182259002  0.24982903108882934  1.0000
  H   H50       1.0  0.4199583793052993  0.503933264823857  0.7498277209822319  1.0000
  H   H51       1.0  0.9199594762890584  0.5039342558761888  0.750170532208969  1.0000
  H   H52       1.0  0.5800384500389768  0.4960633182259002  0.2501718423155666  1.0000
  H   H53       1.0  0.22646983964355633  0.4610960186646977  0.1976121123722123  1.0000
  H   H54       1.0  0.2735296497858997  0.5389055196467396  0.6976108022656078  1.0000
  H   H55       1.0  0.7735338639345529  0.5389055196467396  0.8023878876277877  1.0000
  H   H56       1.0  0.7264706623827308  0.4610940365600271  0.30238832432998913  1.0000
  H   H57       1.0  0.6681107498571561  0.1170105761214373  0.320969129521508  1.0000
  H   H58       1.0  0.8318944163641717  0.882995917451673  0.8209656359039099  1.0000
  H   H59       1.0  0.33191087515422873  0.8829939353470024  0.6790339273938953  1.0000
  H   H60       1.0  0.16811286145315305  0.11700958506910548  0.17902999707409606  1.0000
  H   H61       1.0  0.5947201994856215  0.0270487913988049  0.2686888889859346  1.0000
  H   H62       1.0  0.9052862053661315  0.9729537379649713  0.7686853953683368  1.0000
  H   H63       1.0  0.40528652984252744  0.9729507648079617  0.7313163514404621  1.0000
  H   H64       1.0  0.0947207982066089  0.0270487913988049  0.2313106743118638  1.0000
  C   C1        1.0  0.6997428470469345  0.5975520326652983  0.1474586115490268  1.0000
  C   C2        1.0  0.8002447222229208  0.4024376130181082  0.6474581748468252  1.0000
  C   C3        1.0  0.3002617706798105  0.4024594161694921  0.8525405150465771  1.0000
  C   C4        1.0  0.19974014577329058  0.5975510416129595  0.3525418251531747  1.0000
  C   C5        1.0  0.6599178810932997  0.1838352530143581  0.0535327024442225  1.0000
  C   C6        1.0  0.840078532359719  0.8161633121400698  0.5535348859552229  1.0000
  C   C7        1.0  0.3400943924233885  0.816172231611091  0.946464240640381  1.0000
  C   C8        1.0  0.1599167841095408  0.1838342619620263  0.44646686085357595  1.0000
  C   C9        1.0  0.7581428276453437  0.04393731425180649  0.9676499744529181  1.0000
  C   C10       1.0  0.7418600029672007  0.9560612509026214  0.4676521579639185  1.0000
  C   C11       1.0  0.2418632115415562  0.9560721524783133  0.0323469686316784  1.0000
  C   C12       1.0  0.2581344907682919  0.0439274037284463  0.5323482787382829  1.0000
  C   C13       1.0  0.5150598491930722  0.2331747935481729  0.9662520907117836  1.0000
  C   C14       1.0  0.9849379857201015  0.7668217895015843  0.46625514762718007  1.0000
  C   C15       1.0  0.48494618999382766  0.7668346731819468  0.0337444156706184  1.0000
  C   C16       1.0  0.015051786560611898  0.2331678561818222  0.5337492193948208  1.0000
  C   C17       1.0  0.444226119648448  0.3192556173241314  0.0068260920830241  1.0000
  C   C18       1.0  0.0557739685073955  0.6807350194116069  0.5068300224028235  1.0000
  C   C19       1.0  0.555789362448003  0.6807518673013176  0.9931721611081769  1.0000
  C   C20       1.0  0.9442199767389211  0.319247688905449  0.49317303451257277  1.0000
  C   C21       1.0  0.009686438868286015  0.5926126278240673  0.0971002973941992  1.0000
  C   C22       1.0  0.490300540723922  0.4073750357546686  0.5971002973941991  1.0000
  C   C23       1.0  0.9903183616881819  0.4074008031153937  0.9029001393080022  1.0000
  C   C24       1.0  0.5096859315621671  0.5926136188764062  0.40289926590359926  1.0000
  C   C25       1.0  0.9629871112440896  0.7911085180407369  0.16145710055941717  1.0000
  C   C26       1.0  0.5370003666109042  0.2088801365903379  0.6614579739638131  1.0000
  C   C27       1.0  0.03701260219815341  0.2089019397417218  0.838547703164778  1.0000
  C   C28       1.0  0.4629877099650699  0.7911085180407369  0.33854289944058275  1.0000
  C   C29       1.0  0.8897159053262484  0.4783205082595074  0.08584953862412449  1.0000
  C   C30       1.0  0.6102718467733297  0.5216711195285697  0.5858473551131311  1.0000
  C   C31       1.0  0.1102897179639868  0.5217018421509749  0.9141491512692781  1.0000
  C   C32       1.0  0.38971943838240714  0.4783175351025051  0.4141504613758755  1.0000
  S   S1        1.0  0.8007901967827776  0.1064865913684301  0.1056338950779292  1.0000
  S   S2        1.0  0.6991993424364082  0.8935070185243176  0.6056352051845266  1.0000
  S   S3        1.0  0.19921859390956334  0.8935179201000095  0.894361737900077  1.0000
  S   S4        1.0  0.3008008783173608  0.1064915466301102  0.39436610492207075  1.0000
  S   S5        1.0  0.5024442906568183  0.6528626635218231  0.1909746756394384  1.0000
  S   S6        1.0  0.9975401614481356  0.3471279732139152  0.6909746756394382  1.0000
  S   S7        1.0  0.4975531785915024  0.3471408568942849  0.8090257610627559  1.0000
  S   S8        1.0  0.002448097957561397  0.6528626635218231  0.3090257610627559  1.0000
  N   N1        1.0  0.6479410364692839  0.1497717931833336  0.9953932284956934  1.0000
  N   N2        1.0  0.8520600070236527  0.8502247898664237  0.49539410190008937  1.0000
  N   N3        1.0  0.3520682112973789  0.8502376735467863  0.004604151291111699  1.0000
  N   N4        1.0  0.1479345781267014  0.14976485581698276  0.5046045879933132  1.0000
  N   N5        1.0  0.8918073345343414  0.6654579476564918  0.135375498386388  1.0000
  N   N6        1.0  0.6081789046902201  0.3345346711839241  0.635375498386388  1.0000
  N   N7        1.0  0.108195770317387  0.3345544922306374  0.8646249383158133  1.0000
  N   N8        1.0  0.39180784184046047  0.665456956604153  0.3646249383158135  1.0000
  N   N9        1.0  0.532847752683054  0.2889997805669395  0.06036403495364339  1.0000
  N   N10       1.0  0.9671404564908386  0.7109968024828177  0.5603675285712413  1.0000
  N   N11       1.0  0.46716800365798855  0.711010677215519  0.9396333448331546  1.0000
  N   N12       1.0  0.0328468385290179  0.2890007716192784  0.4396364017485581  1.0000
  N   N13       1.0  0.6987017137599949  0.48135312840680905  0.1169488490713562  1.0000
  N   N14       1.0  0.8012843426348439  0.5186375083289292  0.616947975666953  1.0000
  N   N15       1.0  0.3013046910863579  0.5186603025326518  0.8830476573110531  1.0000
  N   N16       1.0  0.1987022210661138  0.48135213735447724  0.3830507142264494  1.0000
  O   O1        1.0  0.6451186981360166  0.11705220031954158  0.2787457039421141  1.0000
  O   O2        1.0  0.8548881637900505  0.8829552843059076  0.7787409002179116  1.0000
  O   O3        1.0  0.35488706680629173  0.8829542932535758  0.721259973186484  1.0000
  O   O4        1.0  0.14512250543675978  0.11705220031954158  0.22125342265348985  1.0000
  O   O5        1.0  0.1259155117194055  0.4193469479701619  0.2262632702880936  1.0000
  O   O6        1.0  0.3740820991755811  0.580651617184266  0.7262628335858919  1.0000
  O   O7        1.0  0.8740863133242414  0.580651617184266  0.7737362930097047  1.0000
  O   O8        1.0  0.6259165172883031  0.4193469479701619  0.2737367297119064  1.0000
