data_image0
_chemical_formula_structural       U2H38C46N2O14
_chemical_formula_sum              "U2 H38 C46 N2 O14"
_cell_length_a       9.658300813613357
_cell_length_b       10.52759817065063
_cell_length_c       12.815730694473558
_cell_angle_alpha    74.85561621939787
_cell_angle_beta     86.64447167985402
_cell_angle_gamma    72.1078617066389

_space_group_name_H-M_alt    "P 1"
_space_group_IT_number       1

loop_
  _space_group_symop_operation_xyz
  'x, y, z'

loop_
  _atom_site_type_symbol
  _atom_site_label
  _atom_site_symmetry_multiplicity
  _atom_site_fract_x
  _atom_site_fract_y
  _atom_site_fract_z
  _atom_site_occupancy
  U   U1        1.0  0.2295203885590596  0.2939395469271631  0.9571489205600301  1.0000
  U   U2        1.0  0.7704763899024486  0.7060735862987002  0.042844678009430516  1.0000
  H   H1        1.0  0.166045208944567  0.07733220438439756  0.6604037159630424  1.0000
  H   H2        1.0  0.8339491396459169  0.9226757624288165  0.3395901445149789  1.0000
  H   H3        1.0  0.26060165203885094  0.9273194226157384  0.5367803795960029  1.0000
  H   H4        1.0  0.7393930310096337  0.07268747901203909  0.4632144495686603  1.0000
  H   H5        1.0  0.6885396014552471  0.8055370958435403  0.6839554190725678  1.0000
  H   H6        1.0  0.31145265456569154  0.19446767892475236  0.3160406663741995  1.0000
  H   H7        1.0  0.5947235671597966  0.9619747271440388  0.8005219989058716  1.0000
  H   H8        1.0  0.405270756504045  0.03803006740228909  0.1994740158298143  1.0000
  H   H9        1.0  0.3344635024231907  0.7687960379831652  0.4693049427352988  1.0000
  H   H10       1.0  0.6655345722151581  0.23120351677088277  0.5306942704068973  1.0000
  H   H11       1.0  0.704981179599166  0.5412073586540344  0.3210134214926796  1.0000
  H   H12       1.0  0.2950270756618424  0.4587822805130628  0.6790037082341057  1.0000
  H   H13       1.0  0.8686322485213438  0.5900298393604472  0.43542584475073914  1.0000
  H   H14       1.0  0.13137091809930015  0.40997534626855975  0.56458698772785  1.0000
  H   H15       1.0  0.7694017112096958  0.7347951832084262  0.5610737685322178  1.0000
  H   H16       1.0  0.23058752682339906  0.2652342432808652  0.4389217192336972  1.0000
  H   H17       1.0  0.22799156827816355  0.8069009625806487  0.3170430600665028  1.0000
  H   H18       1.0  0.7720143732146383  0.1930902528487408  0.6829605771599176  1.0000
  H   H19       1.0  0.06642641407179185  0.7551246446583447  0.20188205799043862  1.0000
  H   H20       1.0  0.9335730040855098  0.24487672846029795  0.7981230186454055  1.0000
  H   H21       1.0  0.4059891739214478  0.38810080958961624  0.17829456685418424  1.0000
  H   H22       1.0  0.5940044587432073  0.611905982613848  0.8217026591394186  1.0000
  H   H23       1.0  0.5661257281716915  0.4352424163843196  0.2976037564019407  1.0000
  H   H24       1.0  0.43387620802317167  0.5647586080739728  0.7023856878956565  1.0000
  H   H25       1.0  0.6115200203117652  0.11857175873569048  0.9571998986471257  1.0000
  H   H26       1.0  0.3884961180337785  0.8813975487862391  0.042813741880714025  1.0000
  H   H27       1.0  0.8437569869863991  0.037100141224264895  0.9880701002394829  1.0000
  H   H28       1.0  0.1562585849931893  0.962887025289248  0.011933980257964499  1.0000
  H   H29       1.0  0.8980707314946275  0.03553249731595539  0.11902967905527362  1.0000
  H   H30       1.0  0.10194311566433367  0.9644566569656945  0.8809756480556387  1.0000
  H   H31       1.0  0.9305960763112467  0.16017126154772396  0.0033301310499922027  1.0000
  H   H32       1.0  0.06941400046735426  0.8398199934377358  0.9966733647542654  1.0000
  H   H33       1.0  0.6199276438008284  0.3918497033738149  0.08185124096493009  1.0000
  H   H34       1.0  0.3800808214164776  0.6081472425015517  0.9181387526703162  1.0000
  H   H35       1.0  0.8097917243734898  0.31534642517947725  0.11315233036346233  1.0000
  H   H36       1.0  0.19021669383399606  0.6846472157152803  0.88684296616065  1.0000
  H   H37       1.0  0.6804939309484582  0.2516258939471143  0.199085454611442  1.0000
  H   H38       1.0  0.3195114164082683  0.7483769686538081  0.8009097824687146  1.0000
  C   C1        1.0  0.321128654415297  0.12405059815117876  0.8096794975861316  1.0000
  C   C2        1.0  0.6788653403113262  0.875955294759009  0.1903147613051105  1.0000
  C   C3        1.0  0.37425188845097773  0.03085009398933641  0.7376742408511987  1.0000
  C   C4        1.0  0.6257359117112176  0.9691588123183478  0.2623204373890288  1.0000
  C   C5        1.0  0.2807696603585939  0.0173724522540013  0.664374206789148  1.0000
  C   C6        1.0  0.7192205999559106  0.9826387799837447  0.3356144922221702  1.0000
  C   C7        1.0  0.33486005112995104  0.9316454671691045  0.5956053257892081  1.0000
  C   C8        1.0  0.6651281194584798  0.06836561257689058  0.40438659256439996  1.0000
  C   C9        1.0  0.4832720738116479  0.8544323997322111  0.5987250094138332  1.0000
  C   C10       1.0  0.5167153920586928  0.1455836176887999  0.40127147604463426  1.0000
  C   C11       1.0  0.5742976753104829  0.8665995679973052  0.6752076442173802  1.0000
  C   C12       1.0  0.42569632225961834  0.133409364466047  0.3247876090474051  1.0000
  C   C13       1.0  0.5218070419955437  0.9541830481432642  0.7423977638931164  1.0000
  C   C14       1.0  0.4781814215618638  0.04582369461511598  0.2575996388781903  1.0000
  C   C15       1.0  0.5430132125125268  0.7652068171236834  0.5243386699664682  1.0000
  C   C16       1.0  0.45697560490874173  0.2348019995377228  0.4756583343916176  1.0000
  C   C17       1.0  0.45187210006692174  0.7328510722938189  0.4605556047845241  1.0000
  C   C18       1.0  0.5481204875685535  0.26714959773587305  0.5394404549753418  1.0000
  C   C19       1.0  0.5069618568548152  0.6521758173803106  0.3872357557461896  1.0000
  C   C20       1.0  0.49303787903196644  0.3478183450897062  0.6127698751448208  1.0000
  C   C21       1.0  0.6588299620376507  0.5993794376676573  0.380193407385498  1.0000
  C   C22       1.0  0.34117112288888063  0.40061657634539216  0.6198172998413511  1.0000
  C   C23       1.0  0.7510532649837034  0.6283392812396185  0.4439464572360237  1.0000
  C   C24       1.0  0.2489416891167338  0.37166919661471814  0.5560597808824284  1.0000
  C   C25       1.0  0.6944076541166879  0.7107535816101418  0.5146694259656287  1.0000
  C   C26       1.0  0.3055804835131326  0.2892633449931666  0.4853299912396665  1.0000
  C   C27       1.0  0.4093153995577057  0.6238977708052714  0.31765819405659806  1.0000
  C   C28       1.0  0.5906905282161861  0.37609638464198974  0.6823487990167649  1.0000
  C   C29       1.0  0.2670404935638261  0.7129643858251952  0.2890408436820806  1.0000
  C   C30       1.0  0.7329668135310996  0.28702878068251175  0.7109655084067867  1.0000
  C   C31       1.0  0.17644449651629665  0.6858373867790277  0.22285834419202644  1.0000
  C   C32       1.0  0.8235521352288089  0.31415975239868027  0.7771491742969446  1.0000
  C   C33       1.0  0.22671172792490782  0.5680123973227109  0.18256312022282373  1.0000
  C   C34       1.0  0.7732890777515493  0.4319850136600749  0.8174387467393772  1.0000
  C   C35       1.0  0.36803579495559546  0.4788517506508965  0.2101318275689152  1.0000
  C   C36       1.0  0.6319684411224245  0.5211445916350782  0.7898716891711075  1.0000
  C   C37       1.0  0.4574044097061007  0.5066460153194041  0.27635454126305337  1.0000
  C   C38       1.0  0.5426036604906274  0.4933576767065516  0.7236459183262409  1.0000
  C   C39       1.0  0.13570396185988193  0.5381633293494587  0.10857004968708853  1.0000
  C   C40       1.0  0.8642934189358087  0.46183518350856906  0.8914293803394956  1.0000
  C   C41       1.0  0.5950900601682534  0.19394574033743336  0.005581671174361697  1.0000
  C   C42       1.0  0.40492338862819827  0.8060289827579437  0.9944247998024096  1.0000
  C   C43       1.0  0.8552896035631292  0.10210122012257726  0.03916421588253631  1.0000
  C   C44       1.0  0.14472288635796118  0.8978890558123422  0.9608386035816777  1.0000
  C   C45       1.0  0.705177933006226  0.29500745679257523  0.1148881846436254  1.0000
  C   C46       1.0  0.2948318313975449  0.7049849960920369  0.885111193842789  1.0000
  N   N1        1.0  0.7133976300922883  0.198050975859914  0.0501674378357251  1.0000
  N   N2        1.0  0.28661520248491723  0.8019352616932662  0.9498337816259834  1.0000
  O   O1        1.0  0.1854070206885012  0.18736643735073244  0.8156755540460167  1.0000
  O   O2        1.0  0.8145890610868776  0.8126426144259469  0.184317267034281  1.0000
  O   O3        1.0  0.41240615899728544  0.14130365889060664  0.8696283248182723  1.0000
  O   O4        1.0  0.5875832607581656  0.8586905374029712  0.13037451099693703  1.0000
  O   O5        1.0  0.019226149118949848  0.6321500185531403  0.06714100713163869  1.0000
  O   O6        1.0  0.9807736613816118  0.3678476147896389  0.9328553850815027  1.0000
  O   O7        1.0  0.17807574526635514  0.4210626357543531  0.08636546066767178  1.0000
  O   O8        1.0  0.8219305944227956  0.5789369649334046  0.9136342567880077  1.0000
  O   O9        1.0  0.23548343464110394  0.4463488964892193  0.8531804599350821  1.0000
  O   O10       1.0  0.764507724152338  0.5536585098020481  0.14682610113437278  1.0000
  O   O11       1.0  0.21726785351427944  0.14247707879269458  0.060806932828299395  1.0000
  O   O12       1.0  0.782722050092893  0.8575290399888686  0.939181170222696  1.0000
  O   O13       1.0  0.46875055838476226  0.2715317107035702  0.017043648346664483  1.0000
  O   O14       1.0  0.5312591255521254  0.7284451462740477  0.98296020416565  1.0000
