data_image0
_chemical_formula_structural       Gd2CuH26C22N2O22
_chemical_formula_sum              "Gd2 Cu1 H26 C22 N2 O22"
_cell_length_a       6.059697973083382
_cell_length_b       8.956646058544242
_cell_length_c       13.541188011967652
_cell_angle_alpha    85.36711677522688
_cell_angle_beta     85.82093611484405
_cell_angle_gamma    87.86124383175894

_space_group_name_H-M_alt    "P 1"
_space_group_IT_number       1

loop_
  _space_group_symop_operation_xyz
  'x, y, z'

loop_
  _atom_site_type_symbol
  _atom_site_label
  _atom_site_symmetry_multiplicity
  _atom_site_fract_x
  _atom_site_fract_y
  _atom_site_fract_z
  _atom_site_occupancy
  Gd  Gd1       1.0  0.1080718323560603  0.34468148783822977  0.3931114603974848  1.0000
  Gd  Gd2       1.0  0.8919288321264958  0.6553159514129165  0.6068890153580142  1.0000
  Cu  Cu1       1.0  0.4999977928913637  3.6020872614212046e-06  0.9999994572093057  1.0000
  H   H1        1.0  0.5898425754781157  0.19702811597569084  0.3480199895973541  1.0000
  H   H2        1.0  0.4101580890044403  0.8029693232754553  0.651980486158145  1.0000
  H   H3        1.0  0.44792619874064604  0.22518821507789255  0.2485421053270969  1.0000
  H   H4        1.0  0.5520776958553527  0.7748115678765615  0.751455980129016  1.0000
  H   H5        1.0  0.9020658056108317  0.0901767255728316  0.311150316298992  1.0000
  H   H6        1.0  0.09793155294405408  0.9098206958025301  0.688851008870131  1.0000
  H   H7        1.0  0.8412330186031199  0.0378748479256004  0.4240762365277959  1.0000
  H   H8        1.0  0.15876930533663372  0.9621225356068379  0.5759249246741547  1.0000
  H   H9        1.0  0.6539619578051232  0.41445767768789915  0.3207353884387274  1.0000
  H   H10       1.0  0.3460385842982774  0.5855433365133395  0.6792612957837748  1.0000
  H   H11       1.0  0.6937008711351993  0.5300399506693834  0.39893972448411574  1.0000
  H   H12       1.0  0.306296436525848  0.46995876293294714  0.6010586099356132  1.0000
  H   H13       1.0  0.22254314182469406  0.41128819794080573  0.9723858705564723  1.0000
  H   H14       1.0  0.7774692385397655  0.5887047168770961  0.027613603869632193  1.0000
  H   H15       1.0  0.9766799425815192  0.420652250931127  0.8303808284590133  1.0000
  H   H16       1.0  0.023337398838897606  0.5793406691482372  0.1696177418977385  1.0000
  H   H17       1.0  0.6527484506751123  0.2514003480621695  0.8440613422573833  1.0000
  H   H18       1.0  0.3472569311581779  0.7486050213248344  0.15593653683944103  1.0000
  H   H19       1.0  0.4243795644018674  0.04496774043280281  0.6718453755428513  1.0000
  H   H20       1.0  0.5756160761972496  0.9550318900712184  0.3281566837027441  1.0000
  H   H21       1.0  0.3861453400703497  0.22877743287463648  0.707851741897244  1.0000
  H   H22       1.0  0.6138585718412911  0.7712221776622386  0.2921493039675553  1.0000
  H   H23       1.0  0.7889803872740232  0.1166752449755393  0.5788935241411224  1.0000
  H   H24       1.0  0.21101540390044696  0.8833189588992169  0.42110572639934674  1.0000
  H   H25       1.0  0.7806540906116479  0.1313063575709776  0.7081938777566209  1.0000
  H   H26       1.0  0.2193467038547965  0.8686866455470862  0.2918059792595571  1.0000
  C   C1        1.0  0.8614043011289354  0.14330869318131081  0.05776032429309912  1.0000
  C   C2        1.0  0.13858769776052074  0.8567021175406352  0.9422422809590003  1.0000
  C   C3        1.0  0.033325630651155805  0.24212697267338967  0.060133732425605005  1.0000
  C   C4        1.0  0.9666697662427381  0.7578805827050131  0.9398666342306612  1.0000
  C   C5        1.0  0.0808504384868414  0.3391967585200462  0.9754051899202736  1.0000
  C   C6        1.0  0.919153431188782  0.6608040580349905  0.02459434539947131  1.0000
  C   C7        1.0  0.9461626840170325  0.3441025435123066  0.8962260040611483  1.0000
  C   C8        1.0  0.05384458799194648  0.6558949745947942  0.10377203276493673  1.0000
  C   C9        1.0  0.7675731616401578  0.24908527990292126  0.9023417032110075  1.0000
  C   C10       1.0  0.23243064087906617  0.7509177762708532  0.09765777142730771  1.0000
  C   C11       1.0  0.8132761572996258  0.016429651200816405  0.13541531837910273  1.0000
  C   C12       1.0  0.18671266997495914  0.9835766624078699  0.8645882576494657  1.0000
  C   C13       1.0  0.1656790689828682  0.24802454977625382  0.1497392271521605  1.0000
  C   C14       1.0  0.8343148027666272  0.7519785820833744  0.8502605754205064  1.0000
  C   C15       1.0  0.3517231728544701  0.2115881156744877  0.5550144010750131  1.0000
  C   C16       1.0  0.648277491628086  0.7884093235766656  0.444986074680493  1.0000
  C   C17       1.0  0.46100134468576937  0.1614084427923146  0.6489604536644649  1.0000
  C   C18       1.0  0.5389992612982084  0.8385911498687832  0.3510414416139582  1.0000
  C   C19       1.0  0.7121931921717531  0.17945894841403023  0.6391262643174329  1.0000
  C   C20       1.0  0.28780743007478543  0.8205396968552847  0.3608727008930117  1.0000
  C   C21       1.0  0.7782692683475572  0.34051076308892897  0.6237726122934006  1.0000
  C   C22       1.0  0.22173628137673523  0.6594890072512242  0.3762254185069835  1.0000
  N   N1        1.0  0.7325806573983938  0.14870566220298537  0.9801592862785569  1.0000
  N   N2        1.0  0.26741298796152796  0.8513052221134386  0.019841784113474096  1.0000
  O   O1        1.0  0.6599826335278678  0.9288581986755485  0.1171316243255944  1.0000
  O   O2        1.0  0.3400062728367601  0.0711449710270102  0.8828683422142518  1.0000
  O   O3        1.0  0.4617322628163762  0.2523347150879546  0.3194992803914332  1.0000
  O   O4        1.0  0.5382651585659987  0.7476605097730697  0.6805013653569462  1.0000
  O   O5        1.0  0.9258406637057561  0.9979148666798778  0.2098353572021239  1.0000
  O   O6        1.0  0.0741498934582481  0.0020883335127735167  0.7901638145798273  1.0000
  O   O7        1.0  0.8665857988773097  0.1304361865336432  0.37774576390009434  1.0000
  O   O8        1.0  0.1334131812276738  0.8695623420367864  0.622255476272592  1.0000
  O   O9        1.0  0.7709422530426976  0.470475589559399  0.34698359109135873  1.0000
  O   O10       1.0  0.22905837353275166  0.5295230126055158  0.6530161142212592  1.0000
  O   O11       1.0  0.36505505346216444  0.20120788722977068  0.1426992690930149  1.0000
  O   O12       1.0  0.6349454052222825  0.7987963139819952  0.8573002845160431  1.0000
  O   O13       1.0  0.06674505491097449  0.30839751955191735  0.2234746041453661  1.0000
  O   O14       1.0  0.933262158599419  0.691602151965135  0.7765248522036359  1.0000
  O   O15       1.0  0.22609966167318163  0.12624059531604812  0.5142682053252727  1.0000
  O   O16       1.0  0.7739011165307019  0.8737533551937913  0.4857345817588837  1.0000
  O   O17       1.0  0.38224206325561744  0.34530877813956096  0.5161497943453739  1.0000
  O   O18       1.0  0.6177601891988331  0.6546908881160219  0.4838505660729737  1.0000
  O   O19       1.0  0.9050855881514436  0.38477523791625856  0.5477778124531767  1.0000
  O   O20       1.0  0.09491671414375699  0.6152223611381658  0.4522196482379144  1.0000
  O   O21       1.0  0.7135670925187368  0.4332580881238144  0.6868695383967066  1.0000
  O   O22       1.0  0.286438608833997  0.5667370305612637  0.3131315741752161  1.0000
