data_image0
_chemical_formula_structural       Zn4H48C52N12Cl4O8
_chemical_formula_sum              "Zn4 H48 C52 N12 Cl4 O8"
_cell_length_a       9.490636024001095
_cell_length_b       11.806922567599784
_cell_length_c       12.706206705176202
_cell_angle_alpha    103.77035577555013
_cell_angle_beta     89.99995206202354
_cell_angle_gamma    90.0000371877123

_space_group_name_H-M_alt    "P 1"
_space_group_IT_number       1

loop_
  _space_group_symop_operation_xyz
  'x, y, z'

loop_
  _atom_site_type_symbol
  _atom_site_label
  _atom_site_symmetry_multiplicity
  _atom_site_fract_x
  _atom_site_fract_y
  _atom_site_fract_z
  _atom_site_occupancy
  Zn  Zn1       1.0  0.9440606512894831  0.0861081635845409  0.8104684491798367  1.0000
  Zn  Zn2       1.0  0.4440618944690796  0.913893858187386  0.6895324744128575  1.0000
  Zn  Zn3       1.0  0.055938555087422494  0.9138935032010095  0.18953047217819122  1.0000
  Zn  Zn4       1.0  0.5559373119060779  0.0861094962217024  0.3104707752956487  1.0000
  H   H1        1.0  0.34037128966726016  0.1641463667365528  0.11312241131571453  1.0000
  H   H2        1.0  0.8403705612655868  0.8358541496427777  0.3868765045319479  1.0000
  H   H3        1.0  0.6596279167091765  0.8358535561445632  0.8868761040002797  1.0000
  H   H4        1.0  0.15963285978886427  0.16414743835033357  0.6131279080567539  1.0000
  H   H5        1.0  0.3062540280071957  0.08435493970710439  0.9063056759880299  1.0000
  H   H6        1.0  0.8062536913698038  0.9156435520714797  0.5936937254971684  1.0000
  H   H7        1.0  0.6937462320391673  0.9156441112219936  0.09369263630666315  1.0000
  H   H8        1.0  0.19374762234434678  0.0843597685694775  0.40631187759582604  1.0000
  H   H9        1.0  0.10688321974006237  0.22202007322619718  0.20874846182594817  1.0000
  H   H10       1.0  0.6068814982803444  0.777981213304116  0.29125156762594884  1.0000
  H   H11       1.0  0.8931170403074448  0.7779816048157357  0.7912496750701055  1.0000
  H   H12       1.0  0.3931208691025816  0.2220186082719948  0.7087540078443839  1.0000
  H   H13       1.0  0.8074559218620292  0.2218418229363763  0.10984759934505921  1.0000
  H   H14       1.0  0.3074557783379461  0.778157786214159  0.39015270018441595  1.0000
  H   H15       1.0  0.19254328451443564  0.7781598325929905  0.890152106474652  1.0000
  H   H16       1.0  0.6925465890473531  0.22183776565029226  0.6098455844873245  1.0000
  H   H17       1.0  0.8488521708140057  0.4480747741811228  0.8876687510627904  1.0000
  H   H18       1.0  0.34884899586855767  0.5519263499727955  0.6123312364763437  1.0000
  H   H19       1.0  0.15114808923193826  0.5519259981400495  0.11233153619730983  1.0000
  H   H20       1.0  0.6511502105071968  0.4480726896999201  0.387667860280324  1.0000
  H   H21       1.0  0.921981638181208  0.6163492826767936  0.036314641804963806  1.0000
  H   H22       1.0  0.42197898924661087  0.3836529867420993  0.46368620492586404  1.0000
  H   H23       1.0  0.07801967553422169  0.3836506064361914  0.9636862268955259  1.0000
  H   H24       1.0  0.5780202171298184  0.6163469361390169  0.5363123103901374  1.0000
  H   H25       1.0  0.7975125543315612  0.6584042855799551  0.21171029517407897  1.0000
  H   H26       1.0  0.29751322889435267  0.3415953084586008  0.28829079418788695  1.0000
  H   H27       1.0  0.20248559837335728  0.34159387088416077  0.7882893830235391  1.0000
  H   H28       1.0  0.7024870311517972  0.658404603166538  0.7117085055895134  1.0000
  H   H29       1.0  0.5866161945259448  0.5377317234674877  0.23644490260689827  1.0000
  H   H30       1.0  0.08661699335929278  0.46226780004329976  0.2635555162114401  1.0000
  H   H31       1.0  0.4133787971682991  0.46226902634030864  0.7635569535779965  1.0000
  H   H32       1.0  0.9133832666875108  0.5377312621419748  0.73644201162157  1.0000
  H   H33       1.0  0.5098026048025303  0.3755379132679834  0.0867534570832333  1.0000
  H   H34       1.0  0.009804419745563599  0.624459859063208  0.4132450282611658  1.0000
  H   H35       1.0  0.4901934405638854  0.6244637535169489  0.9132454642756475  1.0000
  H   H36       1.0  0.9901958403003304  0.3755374479614559  0.5867528779914937  1.0000
  H   H37       1.0  0.6915560549576582  0.2972128607123565  0.814267040221843  1.0000
  H   H38       1.0  0.19155291869877536  0.702787330491134  0.6857328292615679  1.0000
  H   H39       1.0  0.30844315141879963  0.7027887948170103  0.1857326655978753  1.0000
  H   H40       1.0  0.8084431266667024  0.2972108484849301  0.31426528001324533  1.0000
  H   H41       1.0  0.5208667238808218  0.2967506192959704  0.8731843604077838  1.0000
  H   H42       1.0  0.020862600214215397  0.7032512721321281  0.6268144383943552  1.0000
  H   H43       1.0  0.4791335361660102  0.7032501755375621  0.12681435792894294  1.0000
  H   H44       1.0  0.9791344988216579  0.29674777879635866  0.37318387390119784  1.0000
  H   H45       1.0  0.5999666816108302  0.17053387789903238  0.9885364102945717  1.0000
  H   H46       1.0  0.09996700267667077  0.8294697655963574  0.5114643207450271  1.0000
  H   H47       1.0  0.4000335784360302  0.8294686495827577  0.011463498545879146  1.0000
  H   H48       1.0  0.9000364183792938  0.17052926282099884  0.4885355604721867  1.0000
  C   C1        1.0  0.22292134203455297  0.11556819215671509  0.9647280949343229  1.0000
  C   C2        1.0  0.7229210457469931  0.8844320224667186  0.5352709731443143  1.0000
  C   C3        1.0  0.7770778643432336  0.8844334971411882  0.03526925750033173  1.0000
  C   C4        1.0  0.27708026796671686  0.1155712869180618  0.46473541441037025  1.0000
  C   C5        1.0  0.11724715516552917  0.18995697386182536  0.12193725711911446  1.0000
  C   C6        1.0  0.6172464159576521  0.8100417008310715  0.37806215767126633  1.0000
  C   C7        1.0  0.882753104881509  0.8100429602756734  0.8780604737349055  1.0000
  C   C8        1.0  0.3827601661054628  0.1899563768414154  0.6219430117558888  1.0000
  C   C9        1.0  0.018766964687507895  0.1684082074165758  0.03931757947802341  1.0000
  C   C10       1.0  0.5187672040019891  0.8315895571344427  0.46068168548629274  1.0000
  C   C11       1.0  0.9812332953597646  0.8315925986731401  0.9606803543970204  1.0000
  C   C12       1.0  0.4812372707214506  0.16840767109778204  0.5393217119970475  1.0000
  C   C13       1.0  0.8688554178268574  0.18884581179998614  0.035679305315618116  1.0000
  C   C14       1.0  0.36885521777212193  0.8111547043691872  0.46432037960756395  1.0000
  C   C15       1.0  0.1311437885505171  0.8111575988899985  0.9643200220844437  1.0000
  C   C16       1.0  0.6311471496132056  0.18884258014352176  0.5356790955679075  1.0000
  C   C17       1.0  0.6657958203704695  0.17733525546089626  0.9188354987506603  1.0000
  C   C18       1.0  0.16579500436934316  0.8226657977056463  0.5811645876678284  1.0000
  C   C19       1.0  0.33420443967638386  0.822667272020894  0.08116441008979082  1.0000
  C   C20       1.0  0.834206309345383  0.17733147555068737  0.4188356719696103  1.0000
  C   C21       1.0  0.6285549171506304  0.0778143667440645  0.820773447100102  1.0000
  C   C22       1.0  0.1285540711547668  0.9221858112846985  0.6792256719517911  1.0000
  C   C23       1.0  0.37144534289599557  0.9221872887855086  0.17922625871933215  1.0000
  C   C24       1.0  0.8714451352209663  0.07781149573975908  0.32077223430115254  1.0000
  C   C25       1.0  0.6346283207609955  0.29542683667204267  0.8892899204672704  1.0000
  C   C26       1.0  0.13462632350599077  0.7045733549678913  0.6107084108426265  1.0000
  C   C27       1.0  0.3653708856150217  0.7045748076011479  0.11071056981413825  1.0000
  C   C28       1.0  0.8653718291996028  0.2954256847046183  0.38929068591431815  1.0000
  C   C29       1.0  0.6758173332895365  0.3992901249245975  0.9775658355642779  1.0000
  C   C30       1.0  0.17581745894823797  0.6007109321283933  0.5224342454407208  1.0000
  C   C31       1.0  0.3241797657465995  0.6007115306043644  0.022433870256008993  1.0000
  C   C32       1.0  0.824182801098118  0.39928811880070464  0.47756406685397235  1.0000
  C   C33       1.0  0.7909055457700731  0.46871349043600224  0.9640805918139395  1.0000
  C   C34       1.0  0.29090560076944877  0.531289366407904  0.5359190486052015  1.0000
  C   C35       1.0  0.20909576794626616  0.5312881538376004  0.03591989846689365  1.0000
  C   C36       1.0  0.7090957129477501  0.4687105677297937  0.464078682248534  1.0000
  C   C37       1.0  0.83214253153087  0.5629279617982803  0.04743054702666428  1.0000
  C   C38       1.0  0.3321473134871836  0.43707341208710204  0.45256936074707016  1.0000
  C   C39       1.0  0.16785456750346833  0.43707191605771095  0.9525711061366454  1.0000
  C   C40       1.0  0.6678582149111064  0.5629265333075892  0.5474275856438383  1.0000
  C   C41       1.0  0.7603327572047859  0.5873896227483044  0.14617263542960052  1.0000
  C   C42       1.0  0.2603365763351349  0.41260907366442706  0.35382905545528603  1.0000
  C   C43       1.0  0.23966118081767723  0.41260675604201663  0.8538289901121916  1.0000
  C   C44       1.0  0.7396647373807069  0.5873890940564833  0.6461698382797963  1.0000
  C   C45       1.0  0.6442941346426847  0.5193283199841828  0.15990890046219164  1.0000
  C   C46       1.0  0.14429486261192886  0.48066770431623956  0.3400930285017553  1.0000
  C   C47       1.0  0.3557061253994006  0.4806662923905732  0.8400938879592277  1.0000
  C   C48       1.0  0.8557075047725103  0.5193295576841095  0.6599080155970827  1.0000
  C   C49       1.0  0.6014529696875072  0.42702577030493666  0.07563837147209541  1.0000
  C   C50       1.0  0.10145473098001637  0.5729729095197628  0.42436026738733557  1.0000
  C   C51       1.0  0.3985430756781979  0.5729732806233443  0.924359940823742  1.0000
  C   C52       1.0  0.8985465827365076  0.4270261414095415  0.5756380449070734  1.0000
  N   N1        1.0  0.08710221929442237  0.1209698144060098  0.9420309680925246  1.0000
  N   N2        1.0  0.5871018932975429  0.8790277204349832  0.5579683487490144  1.0000
  N   N3        1.0  0.9128969870826888  0.8790309916834929  0.057966965782803526  1.0000
  N   N4        1.0  0.4129004740865057  0.1209729956057046  0.4420358608189547  1.0000
  N   N5        1.0  0.24424919487745464  0.1568567421194658  0.07314146788927903  1.0000
  N   N6        1.0  0.7442484275981227  0.8431428650322346  0.4268572968588345  1.0000
  N   N7        1.0  0.7557510651695835  0.8431431920180328  0.9268562629647479  1.0000
  N   N8        1.0  0.2557560471262619  0.1568578510088656  0.5731469127085662  1.0000
  N   N9        1.0  0.8132601036200099  0.1652307494267902  0.9405339327248046  1.0000
  N   N10       1.0  0.3132593215763322  0.8347703609252688  0.5594660740391505  1.0000
  N   N11       1.0  0.18674121009680525  0.8347726387512465  0.05946696359806234  1.0000
  N   N12       1.0  0.6867419921383869  0.1652269123310646  0.44053418559828844  1.0000
  Cl  Cl1       1.0  0.9676840480765915  0.21391730787512836  0.7021190913972791  1.0000
  Cl  Cl2       1.0  0.4676819067491138  0.786082095944273  0.797881994834519  1.0000
  Cl  Cl3       1.0  0.03231305095972909  0.786081754309535  0.2978784364365837  1.0000
  Cl  Cl4       1.0  0.5323151922841589  0.21392035274364923  0.20212340523859507  1.0000
  O   O1        1.0  0.7261384769892628  0.0172695783713124  0.7683211506967069  1.0000
  O   O2        1.0  0.22613867447471847  0.982729799316125  0.73167535923794  1.0000
  O   O3        1.0  0.2738596757167712  0.9827294725573806  0.2316771615985544  1.0000
  O   O4        1.0  0.7738584245615953  0.017269262868538204  0.26832216859592256  1.0000
  O   O5        1.0  0.4973055543469015  0.0640973798411935  0.797905778798601  1.0000
  O   O6        1.0  0.9973051126960114  0.9359020354655314  0.7020952914323362  1.0000
  O   O7        1.0  0.502694705698836  0.9359042531760196  0.2020954959442065  1.0000
  O   O8        1.0  0.0026940936797145995  0.0640952715589265  0.29790261482060754  1.0000
