data_image0
_chemical_formula_structural       Zn4H49C53N17O13
_chemical_formula_sum              "Zn4 H49 C53 N17 O13"
_cell_length_a       17.802244094946808
_cell_length_b       19.284100553426185
_cell_length_c       19.25158782856657
_cell_angle_alpha    94.35975955952735
_cell_angle_beta     104.4133982406259
_cell_angle_gamma    98.999447530606

_space_group_name_H-M_alt    "P 1"
_space_group_IT_number       1

loop_
  _space_group_symop_operation_xyz
  'x, y, z'

loop_
  _atom_site_type_symbol
  _atom_site_label
  _atom_site_symmetry_multiplicity
  _atom_site_fract_x
  _atom_site_fract_y
  _atom_site_fract_z
  _atom_site_occupancy
  Zn  Zn1       1.0  0.4269333301006312  0.545239072745147  0.5422872679388246  1.0000
  Zn  Zn2       1.0  0.5677275403739017  0.4518123207029277  0.5696866283732759  1.0000
  Zn  Zn3       1.0  0.5608550543879574  0.5631692465310606  0.4587483103320763  1.0000
  Zn  Zn4       1.0  0.431624484749129  0.4224435963863157  0.42409361684433816  1.0000
  H   H1        1.0  0.38579065161050613  0.06576338647627718  0.4655198502610601  1.0000
  H   H2        1.0  0.0369486114024937  0.3030785357227542  0.35147423565110353  1.0000
  H   H3        1.0  0.1941404355817511  0.5138910303866169  0.513448525714125  1.0000
  H   H4        1.0  0.8510230821682542  0.3979329046495578  0.45370975510306266  1.0000
  H   H5        1.0  0.14316608878429085  0.5740053840123307  0.567114244050856  1.0000
  H   H6        1.0  0.9226796062738744  0.2960018912981823  0.333469649127835  1.0000
  H   H7        1.0  0.8460605549216139  0.3062518927917565  0.3670743659586363  1.0000
  H   H8        1.0  0.019806602425553838  0.6842963755282551  0.6931903772267061  1.0000
  H   H9        1.0  0.9717906814118465  0.7641525538485894  0.7554292067292819  1.0000
  H   H10       1.0  0.8920350552714281  0.6918510529733409  0.7451714274347905  1.0000
  H   H11       1.0  0.8852691091854367  0.7564236809790471  0.6834187318479648  1.0000
  H   H12       1.0  0.40764181615472245  0.753897142577287  0.56537219415803  1.0000
  H   H13       1.0  0.31072187771236065  0.1496174835594175  0.43867425942746496  1.0000
  H   H14       1.0  0.3103818497952843  0.22466532446193102  0.5464029748238131  1.0000
  H   H15       1.0  0.273243100602194  0.26330857911693767  0.4652634513919124  1.0000
  H   H16       1.0  0.37046584787724157  0.2934406463616668  0.5182287367378462  1.0000
  H   H17       1.0  0.3481603599576388  0.8595939488193309  0.5908619974885452  1.0000
  H   H18       1.0  0.3878247882217494  0.940864291020425  0.5714028242110771  1.0000
  H   H19       1.0  0.608407687980325  0.8904756369538873  0.404192281930669  1.0000
  H   H20       1.0  0.5746514549719066  0.9652367801714802  0.43359196354391827  1.0000
  H   H21       1.0  0.6541076352223101  0.06949142269422738  0.5217606177731111  1.0000
  H   H22       1.0  0.7754285095132261  0.14190316303041328  0.5402174704989304  1.0000
  H   H23       1.0  0.6232274390437098  0.2544835579973892  0.5285989168613197  1.0000
  H   H24       1.0  0.740067692926104  0.20950865102651048  0.5839745347118137  1.0000
  H   H25       1.0  0.7251198031652776  0.20171552004825336  0.4884171950765362  1.0000
  H   H26       1.0  0.5499907825322482  0.790978307608789  0.35342070181889074  1.0000
  H   H27       1.0  0.5544927958165076  0.7184484074005225  0.39788480089841727  1.0000
  H   H28       1.0  0.3644644592484028  0.5237437389321187  0.6934927443708288  1.0000
  H   H29       1.0  0.31625449282908846  0.49922899214968897  0.7574636548901592  1.0000
  H   H30       1.0  0.3845682707377093  0.5091840358462817  0.9417219935949958  1.0000
  H   H31       1.0  0.3427076821067344  0.5457817546863097  0.8630689505347956  1.0000
  H   H32       1.0  0.35051284353854584  0.4354294328945016  0.25135401864095286  1.0000
  H   H33       1.0  0.2988520656072923  0.4197712044432364  0.16041102008137634  1.0000
  H   H34       1.0  0.7983597743744398  0.4549402714675208  0.5031907706055563  1.0000
  H   H35       1.0  0.6545803705619448  0.5801586958802786  0.14543368277608684  1.0000
  H   H36       1.0  0.7227198058905558  0.5143412902460653  0.08394018758368554  1.0000
  H   H37       1.0  0.6925848374108341  0.45609080496911497  0.14423051600302023  1.0000
  H   H38       1.0  0.6369425168754078  0.44751329327875317  0.05164654750917925  1.0000
  H   H39       1.0  0.6770787817739504  0.5412237901419132  0.2407974200647799  1.0000
  H   H40       1.0  0.6308449037941841  0.5437644030757267  0.310723117747166  1.0000
  H   H41       1.0  0.1400740204853648  0.280186274437355  0.3247969072370366  1.0000
  H   H42       1.0  0.17025858396485213  0.3615632789094291  0.24264955058250587  1.0000
  H   H43       1.0  0.25028964775488305  0.3155009072828249  0.27348173389807323  1.0000
  H   H44       1.0  0.2554476932538777  0.40298301912813617  0.3122083378109436  1.0000
  H   H45       1.0  0.35638910297062415  0.4453813710593123  0.0675831967879574  1.0000
  H   H46       1.0  0.6183979685885178  0.47512966080707025  0.7862620323754611  1.0000
  H   H47       1.0  0.6242578621559858  0.4611994406448616  0.9160736080343665  1.0000
  H   H48       1.0  0.8053508222241774  0.6502899462807364  0.6278580333670333  1.0000
  H   H49       1.0  0.07743210765067941  0.6483205146431814  0.6287837057086987  1.0000
  C   C1        1.0  0.49767088441316076  0.3083699625906249  0.4934769993893438  1.0000
  C   C2        1.0  0.080185688983768  0.5576312280997655  0.5607280869586333  1.0000
  C   C3        1.0  0.04264999853150192  0.599663868548795  0.5963714871370411  1.0000
  C   C4        1.0  0.48039908583572816  0.6798845756325278  0.49151914015241965  1.0000
  C   C5        1.0  0.9601073770279385  0.5828331784644404  0.5886852373916651  1.0000
  C   C6        1.0  0.9160903783263804  0.5197347413179756  0.5438288458427322  1.0000
  C   C7        1.0  0.9198150361677763  0.6284750400476824  0.6232324337047073  1.0000
  C   C8        1.0  0.8376786047523694  0.6143064254337955  0.6063665365943647  1.0000
  C   C9        1.0  0.8337165803068417  0.5035958635576065  0.5345727976492751  1.0000
  C   C10       1.0  0.4784851716166401  0.7562543062407626  0.489674877019361  1.0000
  C   C11       1.0  0.5187111776641727  0.7977004905151545  0.4479290769738709  1.0000
  C   C12       1.0  0.1499832400967662  0.3686216252990774  0.3891261750089327  1.0000
  C   C13       1.0  0.5215768991552638  0.8720518862261102  0.45548332346151443  1.0000
  C   C14       1.0  0.4773999832353368  0.9030590421203399  0.4977115831119149  1.0000
  C   C15       1.0  0.4334563545499606  0.8590469890922209  0.536462352934272  1.0000
  C   C16       1.0  0.501025999332235  0.5032145234510635  0.6854293161021657  1.0000
  C   C17       1.0  0.436684899735539  0.7874953191942922  0.5332641808413711  1.0000
  C   C18       1.0  0.43725882851330766  0.1081927424598348  0.47790609333049605  1.0000
  C   C19       1.0  0.42753961399907325  0.1787995435852352  0.47648601136310004  1.0000
  C   C20       1.0  0.5115915281432494  0.08858769235298067  0.4919206642434232  1.0000
  C   C21       1.0  0.49726556894895424  0.2311216393784221  0.4948251731183148  1.0000
  C   C22       1.0  0.571861606114439  0.21216012459355227  0.512743435644566  1.0000
  C   C23       1.0  0.1569632669637713  0.4685090030215732  0.4774989822689263  1.0000
  C   C24       1.0  0.5814097939837383  0.1413668558477141  0.5095721145098081  1.0000
  C   C25       1.0  0.4884829092626717  0.49206374621514476  0.23462585936901798  1.0000
  C   C26       1.0  0.5568134310493775  0.5159256750487985  0.20975455360441939  1.0000
  C   C27       1.0  0.5537557456427393  0.510416160882265  0.13484385848514793  1.0000
  C   C28       1.0  0.494029911456721  0.4908849851260442  0.3116842150071192  1.0000
  C   C29       1.0  0.47978603774513556  0.48437573684849855  0.08456940899317532  1.0000
  C   C30       1.0  0.4122875547508471  0.4637116620179357  0.10834573216970968  1.0000
  C   C31       1.0  0.41465980622443516  0.46601707936631  0.18135308793866758  1.0000
  C   C32       1.0  0.4394028251758683  0.5012950600090491  0.8625715357275963  1.0000
  C   C33       1.0  0.4354881083167613  0.5077105538532222  0.7881405088385518  1.0000
  C   C34       1.0  0.0764156392314774  0.45177470645761986  0.47421684737095376  1.0000
  C   C35       1.0  0.5080957481927157  0.48369036923686787  0.9080736903065583  1.0000
  C   C36       1.0  0.5011134264642862  0.49882699173632966  0.7617745596518544  1.0000
  C   C37       1.0  0.5692835295565075  0.4820165326279805  0.8086437267682312  1.0000
  C   C38       1.0  0.5723712915145426  0.47408406161256506  0.8794235762296762  1.0000
  C   C39       1.0  0.7078621625238881  0.5360512689707662  0.5457965636268296  1.0000
  C   C40       1.0  0.28263015149895654  0.45116142557976235  0.45470591915344716  1.0000
  C   C41       1.0  0.19517910571730113  0.42947001231308235  0.4378109944253196  1.0000
  C   C42       1.0  0.7956548974118505  0.5515113961516745  0.5629863192113973  1.0000
  C   C43       1.0  0.0704232495272024  0.3502710677884906  0.387488742286159  1.0000
  C   C44       1.0  0.9258381946071097  0.7262886860996145  0.71584949006224  1.0000
  C   C45       1.0  0.0323046091516659  0.3895971188346365  0.4279449474107152  1.0000
  C   C46       1.0  0.3249862490585613  0.24607027384068653  0.4987005497213202  1.0000
  C   C47       1.0  0.7267402785522845  0.17128114131178046  0.5349936298240718  1.0000
  C   C48       1.0  0.67137949969554  0.48557097540086874  0.0981917322583712  1.0000
  C   C49       1.0  0.21562100057175826  0.35278629182786136  0.2904216443696015  1.0000
  C   C50       1.0  0.0385315097494754  0.4949579554554688  0.5149313014787182  1.0000
  C   C51       1.0  0.9564372783361962  0.4751630659471359  0.5071803736429317  1.0000
  C   C52       1.0  0.9142638696284634  0.4130263684307278  0.4605540150130237  1.0000
  C   C53       1.0  0.9490726307604193  0.3708964271965769  0.4216998197457753  1.0000
  N   N1        1.0  0.47148823475708207  0.9735553963086542  0.5056047109654  1.0000
  N   N2        1.0  0.654166564863978  0.12214485929934679  0.52601282851586  1.0000
  N   N3        1.0  0.5609880091901899  0.7722018896918499  0.40234955791552807  1.0000
  N   N4        1.0  0.36633734464659534  0.523862102030044  0.7468790790993578  1.0000
  N   N5        1.0  0.37520999483874823  0.5110021293530451  0.8869855553222761  1.0000
  N   N6        1.0  0.34527259078769384  0.44667800647484784  0.19987348024295667  1.0000
  N   N7        1.0  0.6220639697725404  0.5358792687838729  0.11305038346787917  1.0000
  N   N8        1.0  0.6280526822069916  0.5451742571468329  0.2573650094636334  1.0000
  N   N9        1.0  0.18057631188791126  0.3249082503329461  0.3460912761246603  1.0000
  N   N10       1.0  0.523017178142986  0.0188019236152712  0.48844707915014124  1.0000
  N   N11       1.0  0.46431205804942266  0.4832864430926945  0.009633697539960889  1.0000
  N   N12       1.0  0.521434698253181  0.4774774411634012  0.9815027478529925  1.0000
  N   N13       1.0  0.9054036942875285  0.3095482883077949  0.3782539508803707  1.0000
  N   N14       1.0  0.9626162158547446  0.6866718148525803  0.670820018283571  1.0000
  N   N15       1.0  0.3516392249576795  0.19479330810764134  0.4547720739093036  1.0000
  N   N16       1.0  0.39444539975701787  0.8906116670893665  0.5803550043595604  1.0000
  N   N17       1.0  0.5649556627050955  0.912082511395077  0.41807880907420253  1.0000
  O   O1        1.0  0.49573689084916583  0.49599400079298295  0.49987526806145866  1.0000
  O   O2        1.0  0.6759821823892268  0.47637936040983664  0.5594268154183552  1.0000
  O   O3        1.0  0.3207200618425574  0.41097270046061135  0.42688949885187794  1.0000
  O   O4        1.0  0.6712222566920188  0.5834369441358831  0.5176335764834261  1.0000
  O   O5        1.0  0.3139824627803663  0.5079830341216294  0.4978996838615543  1.0000
  O   O6        1.0  0.44294265312163367  0.525019415723861  0.6435765442832205  1.0000
  O   O7        1.0  0.435786960018504  0.45564555573584903  0.3306264243790053  1.0000
  O   O8        1.0  0.5406880423433406  0.34852563124629643  0.5497932901946355  1.0000
  O   O9        1.0  0.5182124457894872  0.6507572977398722  0.451644100446188  1.0000
  O   O10       1.0  0.45775041889828566  0.32852019680431255  0.43619464015616655  1.0000
  O   O11       1.0  0.4451352204866197  0.6468806239095315  0.5329959959077825  1.0000
  O   O12       1.0  0.559246838445965  0.4849221427069992  0.6654312825178293  1.0000
  O   O13       1.0  0.5568358297747124  0.524209791654762  0.359404608798357  1.0000
