data_image0
_chemical_formula_structural       Zn4H32C55O13
_chemical_formula_sum              "Zn4 H32 C55 O13"
_cell_length_a       15.362088255104842
_cell_length_b       15.647482638029478
_cell_length_c       17.914572816804743
_cell_angle_alpha    67.34553306977578
_cell_angle_beta     88.80103866226177
_cell_angle_gamma    71.57066331623649

_space_group_name_H-M_alt    "P 1"
_space_group_IT_number       1

loop_
  _space_group_symop_operation_xyz
  'x, y, z'

loop_
  _atom_site_type_symbol
  _atom_site_label
  _atom_site_symmetry_multiplicity
  _atom_site_fract_x
  _atom_site_fract_y
  _atom_site_fract_z
  _atom_site_occupancy
  Zn  Zn1       1.0  0.43245023241664177  0.5719147517664285  0.5649969054281454  1.0000
  Zn  Zn2       1.0  0.5292398030760594  0.5919255130307024  0.40537396176028995  1.0000
  Zn  Zn3       1.0  0.4273804899880461  0.44216062403479134  0.46139263632016975  1.0000
  Zn  Zn4       1.0  0.6122524318787158  0.389308888069948  0.570632708383222  1.0000
  H   H1        1.0  0.6882976736871456  0.2673769767592376  0.09237315876788435  1.0000
  H   H2        1.0  0.41899091844196334  0.2029896373088036  0.31292703419931195  1.0000
  H   H3        1.0  0.38023918797593836  0.0803077438750748  0.28243085698487386  1.0000
  H   H4        1.0  0.5183814749301092  0.8261233763474538  0.5586274858881166  1.0000
  H   H5        1.0  0.6556269746681097  0.0845007397557893  0.6731732635830097  1.0000
  H   H6        1.0  0.5865874769424835  0.8617946699854786  0.6280594216775341  1.0000
  H   H7        1.0  0.6649259051501843  0.9090470226309648  0.7160210843613865  1.0000
  H   H8        1.0  0.48693955564463937  0.2519651959491043  0.4052145194723236  1.0000
  H   H9        1.0  0.3107646006911792  0.7257148837793396  0.179005285550815  1.0000
  H   H10       1.0  0.31520023369509426  0.7305809657343689  0.9111607148264151  1.0000
  H   H11       1.0  0.728094807562755  0.23273607403947952  0.9712101216960459  1.0000
  H   H12       1.0  0.2802335620083909  0.7688689205612536  0.030620570141017614  1.0000
  H   H13       1.0  0.6963208563599534  0.27517540346146774  0.8226767257059815  1.0000
  H   H14       1.0  0.4688076238726992  0.5298783215277538  0.8003451282092581  1.0000
  H   H15       1.0  0.5910734716755923  0.36920644646300366  0.15702017850996694  1.0000
  H   H16       1.0  0.40484610468060117  0.6224489775051937  0.8480431627997471  1.0000
  H   H17       1.0  0.9406742571132651  0.5376734805904348  0.27142064047161785  1.0000
  H   H18       1.0  0.34224930471579995  0.43583667237599144  0.8442180637134907  1.0000
  H   H19       1.0  0.2755280007585554  0.5589099281087898  0.8254812034559005  1.0000
  H   H20       1.0  0.2586140978288468  0.4611110434312522  0.9096606328014685  1.0000
  H   H21       1.0  0.13153172003687533  0.5279371087342782  0.7958359510240096  1.0000
  H   H22       1.0  0.19670926933213198  0.4049644692123238  0.8144930127111322  1.0000
  H   H23       1.0  0.7885508000810547  0.5171031229595185  0.3083524495757714  1.0000
  H   H24       1.0  0.29167019889855794  0.46591180226526774  0.7016749814635683  1.0000
  H   H25       1.0  0.2243122909470187  0.5867252926953271  0.6815826074061702  1.0000
  H   H26       1.0  0.05451690898973284  0.481768581822962  0.7268140518823712  1.0000
  H   H27       1.0  0.0838472653472023  0.55561081543528  0.3056987951730361  1.0000
  H   H28       1.0  0.8613755743675853  0.4680548528792628  0.554644393473758  1.0000
  H   H29       1.0  0.9474345376909242  0.475480242013596  0.6329995036449316  1.0000
  H   H30       1.0  0.19234068856324876  0.5554648274177225  0.4032244940813071  1.0000
  H   H31       1.0  0.39147006440729376  0.9057435506484667  0.3197654968930833  1.0000
  H   H32       1.0  0.5039547620178483  0.44455091640612926  0.20977440289203017  1.0000
  C   C1        1.0  0.7260418379910121  0.4824847742672419  0.4551929121435092  1.0000
  C   C2        1.0  0.41700183452530143  0.5992635821458663  0.9136414030771501  1.0000
  C   C3        1.0  0.3665969947440858  0.6601131343898956  0.9486393602520091  1.0000
  C   C4        1.0  0.2685010350436841  0.525400722210577  0.5394841004681297  1.0000
  C   C5        1.0  0.38037316738109445  0.6338671974151637  0.0340119343916001  1.0000
  C   C6        1.0  0.4471730354739237  0.5414501363832471  0.08392097928336986  1.0000
  C   C7        1.0  0.33052174023746517  0.6984901164554387  0.06975417090991691  1.0000
  C   C8        1.0  0.34631308160852814  0.6745004283395634  0.15191717542545277  1.0000
  C   C9        1.0  0.45673770199636005  0.515708707411008  0.168898866803623  1.0000
  C   C10       1.0  0.9223658224373567  0.5239793077564626  0.33317963321143634  1.0000
  C   C11       1.0  0.8179133903873891  0.4913550494277815  0.43424759304826194  1.0000
  C   C12       1.0  0.6540930730111255  0.3210464560571467  0.8517608086044386  1.0000
  C   C13       1.0  0.15512946433017316  0.5096593671410545  0.6426616201317115  1.0000
  C   C14       1.0  0.07140882106060793  0.4931486423917022  0.6651301405741987  1.0000
  C   C15       1.0  0.010477911782167728  0.4894680301176423  0.6115939583025207  1.0000
  C   C16       1.0  0.4644811130175981  0.7530084480000526  0.4619910762007392  1.0000
  C   C17       1.0  0.028065835460630177  0.5038621973145042  0.5308177647544168  1.0000
  C   C18       1.0  0.11218131311210304  0.5209041748202665  0.5061017192827109  1.0000
  C   C19       1.0  0.9640134477429287  0.5026034868643309  0.47279737508431185  1.0000
  C   C20       1.0  0.9853143553534237  0.5214287031536315  0.3911826143028916  1.0000
  C   C21       1.0  0.069101933062548  0.5402197658123171  0.3685403119373942  1.0000
  C   C22       1.0  0.12956794243665828  0.5402184640395973  0.42313515310212313  1.0000
  C   C23       1.0  0.5253040450705555  0.4659896911126396  0.8395478529958988  1.0000
  C   C24       1.0  0.8803080385393826  0.4848933211669364  0.49295527650431825  1.0000
  C   C25       1.0  0.8388008810192742  0.5118143091652883  0.3533264813648955  1.0000
  C   C26       1.0  0.17537999220758144  0.5212850044122419  0.5633204197942729  1.0000
  C   C27       1.0  0.41215238076629396  0.024000322620509  0.342434168987836  1.0000
  C   C28       1.0  0.558780088656782  0.2385884792842603  0.5444166035326602  1.0000
  C   C29       1.0  0.45578184049608683  0.8572420333128437  0.4419874499763875  1.0000
  C   C30       1.0  0.6228850203388775  0.06230477546819201  0.6337067711664515  1.0000
  C   C31       1.0  0.6274361108099596  0.9643207458239335  0.6575941106841439  1.0000
  C   C32       1.0  0.5831585519091861  0.9380622737030321  0.6076933354938772  1.0000
  C   C33       1.0  0.535258823038312  0.0074123207997587  0.530921832519077  1.0000
  C   C34       1.0  0.5418214720445743  0.44523008126449787  0.9228436671488676  1.0000
  C   C35       1.0  0.531294106532563  0.10738644079560093  0.5056436927295351  1.0000
  C   C36       1.0  0.4918416696145656  0.9793566247079326  0.47672954333943085  1.0000
  C   C37       1.0  0.4502867187416868  0.051204811257939305  0.3975144019904774  1.0000
  C   C38       1.0  0.45018099974177517  0.14930137179263883  0.37400019535924395  1.0000
  C   C39       1.0  0.48845221544210216  0.17651728284814538  0.42546499085798917  1.0000
  C   C40       1.0  0.42822888578166385  0.556631349748244  0.29063218136918306  1.0000
  C   C41       1.0  0.4902729539994084  0.8830690939475975  0.4981747622265541  1.0000
  C   C42       1.0  0.4171994724978489  0.9280860319930255  0.3629749536392593  1.0000
  C   C43       1.0  0.5735983357639968  0.13368201229604892  0.5601757843186306  1.0000
  C   C44       1.0  0.5570020830151847  0.43016648092746823  0.716257296907443  1.0000
  C   C45       1.0  0.6157198978605861  0.35814886094140513  0.9710430896348394  1.0000
  C   C46       1.0  0.579346294724445  0.40533143279392914  0.8043392047890946  1.0000
  C   C47       1.0  0.4087887229464826  0.581251625007276  0.20211299139578634  1.0000
  C   C48       1.0  0.6712720124521709  0.2981961197070219  0.9336217463126952  1.0000
  C   C49       1.0  0.2209938250477136  0.5117765473778138  0.7032200378897995  1.0000
  C   C50       1.0  0.19998736234411746  0.4800093107237302  0.7917057688376229  1.0000
  C   C51       1.0  0.2729661517773819  0.483926263436061  0.8458757326518832  1.0000
  C   C52       1.0  0.48653588651572466  0.5079069518865255  0.9606515052030313  1.0000
  C   C53       1.0  0.5028948555938157  0.47921187779780894  0.04595245060305324  1.0000
  C   C54       1.0  0.5765466422373037  0.3908961972103526  0.0918773138805591  1.0000
  C   C55       1.0  0.6314414837606395  0.33347539280136834  0.05598835774610218  1.0000
  O   O1        1.0  0.5019508017959778  0.4974492900123694  0.5039406309514616  1.0000
  O   O2        1.0  0.45045324982184826  0.6197124656178373  0.3073718762920448  1.0000
  O   O3        1.0  0.6128166951213956  0.3776415895258012  0.6843580642245326  1.0000
  O   O4        1.0  0.42193213032891913  0.4759435869458883  0.3424559794310225  1.0000
  O   O5        1.0  0.48314244582628163  0.5020472458032188  0.6800943894764443  1.0000
  O   O6        1.0  0.4470836946897946  0.7022273899343289  0.5320867176618262  1.0000
  O   O7        1.0  0.6223981574296432  0.259345865653998  0.5716181373191487  1.0000
  O   O8        1.0  0.6596719340583943  0.5314611509386324  0.3969725088912241  1.0000
  O   O9        1.0  0.3093718778302518  0.46755954981013303  0.5055628622298157  1.0000
  O   O10       1.0  0.7198057640847111  0.4287459588314634  0.5283524291113578  1.0000
  O   O11       1.0  0.30088337205468446  0.5830614274742203  0.5555195655424396  1.0000
  O   O12       1.0  0.489786594666448  0.7233869812589832  0.4052108415576823  1.0000
  O   O13       1.0  0.48035668799990827  0.29953510567835917  0.5072495602205364  1.0000
