data_image0
_chemical_formula_structural       Dy4H24C24N8O32
_chemical_formula_sum              "Dy4 H24 C24 N8 O32"
_cell_length_a       7.753126653275858
_cell_length_b       8.439759429505449
_cell_length_c       17.277031260099083
_cell_angle_alpha    89.99964142783256
_cell_angle_beta     89.99996674750601
_cell_angle_gamma    107.59764292782145

_space_group_name_H-M_alt    "P 1"
_space_group_IT_number       1

loop_
  _space_group_symop_operation_xyz
  'x, y, z'

loop_
  _atom_site_type_symbol
  _atom_site_label
  _atom_site_symmetry_multiplicity
  _atom_site_fract_x
  _atom_site_fract_y
  _atom_site_fract_z
  _atom_site_occupancy
  Dy  Dy1       1.0  0.256888176765635  0.23625551847754167  0.4766659877027664  1.0000
  Dy  Dy2       1.0  0.2431150958938773  0.7637456765977291  0.9766665945907107  1.0000
  Dy  Dy3       1.0  0.7431054378264859  0.7637460130362043  0.523334014263689  1.0000
  Dy  Dy4       1.0  0.7568917685459554  0.23626078646530146  0.023335143775859993  1.0000
  H   H1        1.0  0.36486525744228965  0.3982254249553989  0.22888704584288888  1.0000
  H   H2        1.0  0.13513306582332518  0.6017793846036524  0.7288847036177869  1.0000
  H   H3        1.0  0.6351314415761139  0.6017698733947228  0.771111219723238  1.0000
  H   H4        1.0  0.864865147197314  0.3982320866524488  0.2711141407265742  1.0000
  H   H5        1.0  0.6531541441860825  0.8913213770676833  0.2888074283076207  1.0000
  H   H6        1.0  0.8468539798195208  0.10867655226012118  0.7888146383746671  1.0000
  H   H7        1.0  0.3468614187359975  0.1086763443147021  0.7111821552051154  1.0000
  H   H8        1.0  0.15313907994985967  0.8913349370009416  0.21118709998608404  1.0000
  H   H9        1.0  0.023526486908551206  0.17501687441984612  0.3489873484131109  1.0000
  H   H10       1.0  0.47647015390253966  0.8249600634059108  0.8489888631618141  1.0000
  H   H11       1.0  0.9764586643266211  0.8249747308793971  0.6510126535696372  1.0000
  H   H12       1.0  0.5235323001936648  0.17502152556172487  0.1510094024244708  1.0000
  H   H13       1.0  0.8824548970013881  0.15548272259977133  0.4163616850431424  1.0000
  H   H14       1.0  0.617554160963458  0.8445145962303828  0.916359184997681  1.0000
  H   H15       1.0  0.11754056069797506  0.8445088465972502  0.5836452625759989  1.0000
  H   H16       1.0  0.3824540388204341  0.15548812876726711  0.08363734414612618  1.0000
  H   H17       1.0  0.29015785729465193  0.5954742203659225  0.5182981659759349  1.0000
  H   H18       1.0  0.20983207653011957  0.4045162531035018  0.0182947426239579  1.0000
  H   H19       1.0  0.7098525523325917  0.4045235189165339  0.48170878163176667  1.0000
  H   H20       1.0  0.7901543160206047  0.595479081340443  0.9816977349120604  1.0000
  H   H21       1.0  0.12846929260027204  0.47016806194967137  0.5624014421747248  1.0000
  H   H22       1.0  0.37152156990819657  0.5298292348702631  0.06239701382995119  1.0000
  H   H23       1.0  0.8715349952043425  0.5298384100927578  0.43760492661731826  1.0000
  H   H24       1.0  0.6284781195201816  0.4701672975556832  0.9375931484898813  1.0000
  C   C1        1.0  0.48094844623066985  0.5581916726459112  0.3678279017008563  1.0000
  C   C2        1.0  0.019050836408418124  0.441804894035947  0.8678324460938924  1.0000
  C   C3        1.0  0.519035830470358  0.44180118021923687  0.6321680486581015  1.0000
  C   C4        1.0  0.9809500002338113  0.5582028345685828  0.13217218628727068  1.0000
  C   C5        1.0  0.5033714200010309  0.6224159649623003  0.2878620947443834  1.0000
  C   C6        1.0  0.9966353273661427  0.37758944980492976  0.7878643916323895  1.0000
  C   C7        1.0  0.4966214140872011  0.37757934691146733  0.7121355920190949  1.0000
  C   C8        1.0  0.0033701077063526654  0.6224282185461336  0.21213850432354764  1.0000
  C   C9        1.0  0.5829202750619514  0.779823169619142  0.2571071386602027  1.0000
  C   C10       1.0  0.9170781001173297  0.22018023195439443  0.7571110952896729  1.0000
  C   C11       1.0  0.41707421407999584  0.22017711436645726  0.7428917057017443  1.0000
  C   C12       1.0  0.082920573667927  0.7798287486931554  0.2428935370898699  1.0000
  C   C13       1.0  0.5456270969473849  0.7618682107956687  0.17715246248499736  1.0000
  C   C14       1.0  0.9543722675289316  0.238130125683071  0.6771557754538762  1.0000
  C   C15       1.0  0.4543748023347902  0.23812333594025153  0.8228446454798686  1.0000
  C   C16       1.0  0.045629396648870155  0.7618800889983461  0.32284654171080956  1.0000
  C   C17       1.0  0.5818399202593412  0.889141627655448  0.11532914192124369  1.0000
  C   C18       1.0  0.918160691080743  0.11085635753563848  0.6153288017139005  1.0000
  C   C19       1.0  0.4181649693944677  0.1108511530639973  0.8846725964664868  1.0000
  C   C20       1.0  0.08183881026273813  0.8891551092433474  0.38466599100829757  1.0000
  C   C21       1.0  0.4270877155899058  0.9410980392544488  0.5259968591898951  1.0000
  C   C22       1.0  0.072910588211947  0.05890598242242361  0.0259933706059741  1.0000
  C   C23       1.0  0.5729127072775668  0.0589084462948506  0.4740112460120827  1.0000
  C   C24       1.0  0.9270980723365624  0.9410942519666747  0.974008946573008  1.0000
  N   N1        1.0  0.4290574027033572  0.5224361926863139  0.2266989716533985  1.0000
  N   N2        1.0  0.07094314360561782  0.4775636629328516  0.7266993412638526  1.0000
  N   N3        1.0  0.5709406316469057  0.47755536756906736  0.7732981363119719  1.0000
  N   N4        1.0  0.9290559439543955  0.5224465607699286  0.2733018182948754  1.0000
  N   N5        1.0  0.451795479383165  0.6029980331258499  0.1595953031563795  1.0000
  N   N6        1.0  0.04820979674423142  0.3970002911744572  0.6595959249280199  1.0000
  N   N7        1.0  0.5482098710666323  0.39699225706056745  0.8404018048099431  1.0000
  N   N8        1.0  0.951802173920413  0.6030098874592794  0.3404058134321914  1.0000
  O   O1        1.0  0.3846512188410073  0.40745637203008295  0.3757548538772396  1.0000
  O   O2        1.0  0.11534313554160752  0.5925525416132729  0.8757554391751581  1.0000
  O   O3        1.0  0.615326061498031  0.5925464611483591  0.6242382024516998  1.0000
  O   O4        1.0  0.8846730668154591  0.4074626001612813  0.12424166875175754  1.0000
  O   O5        1.0  0.5550805886881846  0.656350218993353  0.42171952370826193  1.0000
  O   O6        1.0  0.9449310136194244  0.3436470131224496  0.9217213593492202  1.0000
  O   O7        1.0  0.4449041487774538  0.34364014326325093  0.5782822146858706  1.0000
  O   O8        1.0  0.055092410772068924  0.6563743257051229  0.07828558822070157  1.0000
  O   O9        1.0  0.7035180817574584  0.027414362331299503  0.1260006774135078  1.0000
  O   O10       1.0  0.7964782336155238  0.9725785049958302  0.6260081565796937  1.0000
  O   O11       1.0  0.296483403763908  0.9725759413829566  0.8739952729470274  1.0000
  O   O12       1.0  0.20351924590502787  0.0274230129900772  0.3739930029925417  1.0000
  O   O13       1.0  0.48458925727681657  0.8539959751581989  0.05477192979989809  1.0000
  O   O14       1.0  0.015399723395027806  0.1459840162889776  0.5547721693900626  1.0000
  O   O15       1.0  0.5154020157792374  0.14598689737687917  0.9452292298016475  1.0000
  O   O16       1.0  0.9845796257602829  0.8540250320271524  0.4452226233385375  1.0000
  O   O17       1.0  0.2907574530339118  0.9886235166826508  0.541896527292394  1.0000
  O   O18       1.0  0.20925193605484083  0.011378990927902101  0.0418914107871942  1.0000
  O   O19       1.0  0.7092491387018071  0.0113705025771438  0.4581028958806356  1.0000
  O   O20       1.0  0.7907594421925596  0.9886100337170163  0.958102803164536  1.0000
  O   O21       1.0  0.453493527108627  0.8078290064647505  0.5483041322911788  1.0000
  O   O22       1.0  0.04650782080205571  0.19216099143852722  0.0483042954324588  1.0000
  O   O23       1.0  0.546516929525893  0.19216499919588867  0.4517062881410822  1.0000
  O   O24       1.0  0.9535107794675639  0.8078342302300429  0.9517038097842697  1.0000
  O   O25       1.0  0.9944127638740881  0.23473408591085834  0.3929645895072439  1.0000
  O   O26       1.0  0.5055866362799436  0.7652573839234549  0.8929704648654277  1.0000
  O   O27       1.0  0.005577954362706854  0.7652587443799137  0.6070371488823126  1.0000
  O   O28       1.0  0.49442124376118807  0.2347366308172738  0.10703069471686888  1.0000
  O   O29       1.0  0.195632325721256  0.4882596648333859  0.5122978902216458  1.0000
  O   O30       1.0  0.30436063462443746  0.5117321296387517  0.012294114002862996  1.0000
  O   O31       1.0  0.804365934301444  0.5117480727883077  0.48770616335671235  1.0000
  O   O32       1.0  0.6956309111688412  0.4882631867792568  0.9876983635324946  1.0000
