data_image0
_chemical_formula_structural       Na2Dy2H32C36O24
_chemical_formula_sum              "Na2 Dy2 H32 C36 O24"
_cell_length_a       6.7913519084519995
_cell_length_b       7.4779717600138955
_cell_length_c       19.863184494667575
_cell_angle_alpha    90.00018899946193
_cell_angle_beta     99.83919261768882
_cell_angle_gamma    89.99985159676427

_space_group_name_H-M_alt    "P 1"
_space_group_IT_number       1

loop_
  _space_group_symop_operation_xyz
  'x, y, z'

loop_
  _atom_site_type_symbol
  _atom_site_label
  _atom_site_symmetry_multiplicity
  _atom_site_fract_x
  _atom_site_fract_y
  _atom_site_fract_z
  _atom_site_occupancy
  Na  Na1       1.0  0.8368257463242159  0.7500836719971032  0.6727985068146226  1.0000
  Na  Na2       1.0  0.16316952584253389  0.2500784053850039  0.3272028302999673  1.0000
  Dy  Dy1       1.0  0.7070773122319522  0.2501811025567732  0.4144745375902091  1.0000
  Dy  Dy2       1.0  0.29292693936957187  0.7501802266971679  0.5855253170928095  1.0000
  H   H1        1.0  0.7041751915985798  0.6507580377944462  0.8107178151263668  1.0000
  H   H2        1.0  0.2958038861790513  0.15075124339078624  0.1892789163156721  1.0000
  H   H3        1.0  0.8922258621972289  0.3486812014160563  0.18933943790385402  1.0000
  H   H4        1.0  0.10776021676718979  0.8487121637319601  0.810662484839  1.0000
  H   H5        1.0  0.7657158402239402  0.6464257939238037  0.9375656919998224  1.0000
  H   H6        1.0  0.2342722138424591  0.14642873405553297  0.062431565100965314  1.0000
  H   H7        1.0  0.8273736318962932  0.35277675416351423  0.06251212847137573  1.0000
  H   H8        1.0  0.17261991013652536  0.852795299258595  0.9374902408723855  1.0000
  H   H9        1.0  0.2195465664727791  0.646950697317159  0.031120396997160103  1.0000
  H   H10       1.0  0.7804504204914339  0.1469549178224625  0.968882423680455  1.0000
  H   H11       1.0  0.18786807974221634  0.3527761459997051  0.9689143833651032  1.0000
  H   H12       1.0  0.8121284739911729  0.8527691621841027  0.031084640018839624  1.0000
  H   H13       1.0  0.2835408502796426  0.6448289406842634  0.15745593342906972  1.0000
  H   H14       1.0  0.7164681034528969  0.14482284719598232  0.8425465856702132  1.0000
  H   H15       1.0  0.12559912036930138  0.3551372702204744  0.8425661321223007  1.0000
  H   H16       1.0  0.8744034090934035  0.8551419418984593  0.1574327442846695  1.0000
  H   H17       1.0  0.4942935833387451  0.768602774781449  0.43615755378626636  1.0000
  H   H18       1.0  0.5057240803591725  0.26860276955275  0.5638426138182311  1.0000
  H   H19       1.0  0.0577487712454712  0.23192223911718196  0.5638204912417423  1.0000
  H   H20       1.0  0.9422734478452384  0.7319278530182841  0.43618141059439364  1.0000
  H   H21       1.0  0.5641065131359397  0.6166038553143378  0.3446209462943132  1.0000
  H   H22       1.0  0.4359040045380951  0.11659144762658258  0.6553806233413726  1.0000
  H   H23       1.0  0.2195758424137324  0.38388076206307886  0.6553506451507758  1.0000
  H   H24       1.0  0.7804340723145486  0.8838806141854146  0.3446522280199674  1.0000
  H   H25       1.0  0.7461912831277004  0.39789360183732464  0.7273015004877907  1.0000
  H   H26       1.0  0.2538081848401603  0.8978994394897412  0.2726937238445686  1.0000
  H   H27       1.0  0.01859141018884  0.6022420129766742  0.2726293556111017  1.0000
  H   H28       1.0  0.9814131617566416  0.10224898258682906  0.7273718444299605  1.0000
  H   H29       1.0  0.9811762138885811  0.4093884507238171  0.7355198701231134  1.0000
  H   H30       1.0  0.018824709843840996  0.9093934444761299  0.2644774684042446  1.0000
  H   H31       1.0  0.24530484116814222  0.590461771962481  0.26438556320600537  1.0000
  H   H32       1.0  0.7546997538091843  0.09046802202941957  0.7356161269958507  1.0000
  C   C1        1.0  0.3642013193389317  0.7498838898014667  0.7272040951289542  1.0000
  C   C2        1.0  0.6357865071252675  0.24988235831377636  0.2727927736892114  1.0000
  C   C3        1.0  0.40209442337951623  0.7497557988543305  0.8029045460838946  1.0000
  C   C4        1.0  0.5978829423119977  0.24974299707061215  0.19709170370664006  1.0000
  C   C5        1.0  0.47365221126943163  0.7496694201302389  0.9465313062833262  1.0000
  C   C6        1.0  0.5263370840644725  0.24966622995899  0.05346967672691252  1.0000
  C   C7        1.0  0.5112050802208971  0.7497723043321113  0.02188324910986241  1.0000
  C   C8        1.0  0.48879318151560375  0.24976928394278985  0.9781182644825325  1.0000
  C   C9        1.0  0.5887443491576079  0.6958494035322288  0.8388320522392194  1.0000
  C   C10       1.0  0.4112316391277204  0.19583807324753613  0.16116455248749165  1.0000
  C   C11       1.0  0.7487657655547437  0.3035593900693101  0.16121339079324312  1.0000
  C   C12       1.0  0.2512174415145196  0.8035782183407247  0.8387857887141621  1.0000
  C   C13       1.0  0.6230214166098021  0.6949550458667273  0.9098505016476967  1.0000
  C   C14       1.0  0.3769665324289094  0.19495119924643226  0.09014630612708172  1.0000
  C   C15       1.0  0.712234159739822  0.3044590995330907  0.09020454087566783  1.0000
  C   C16       1.0  0.2877580119639802  0.8044691013486086  0.9097951700944054  1.0000
  C   C17       1.0  0.5833226047535192  0.749952042502791  0.1661100028343654  1.0000
  C   C18       1.0  0.41668164736275765  0.24994793170585433  0.8338898515923036  1.0000
  C   C19       1.0  0.3627285975978936  0.694336489841895  0.058782935818470626  1.0000
  C   C20       1.0  0.6372682868825378  0.19434081242511778  0.9412194342662376  1.0000
  C   C21       1.0  0.3033813823954716  0.30532852814698686  0.9412264067336481  1.0000
  C   C22       1.0  0.6966137860236471  0.8053300884603516  0.05877197226298852  1.0000
  C   C23       1.0  0.621098109922599  0.750086056534613  0.24219417021003414  1.0000
  C   C24       1.0  0.3789001641478221  0.25007468357483725  0.757805330716373  1.0000
  C   C25       1.0  0.631113515809929  0.6870257091134205  0.4434060093359734  1.0000
  C   C26       1.0  0.36890580157568553  0.18702062052223306  0.5565976787884139  1.0000
  C   C27       1.0  0.1873158503297674  0.313458866483515  0.5565701865778578  1.0000
  C   C28       1.0  0.8127002220899795  0.8134595066133058  0.4434294392115064  1.0000
  C   C29       1.0  0.6465639555346954  0.5865562292992834  0.5107380051705945  1.0000
  C   C30       1.0  0.3534451314856852  0.08655192509446857  0.48926394591905636  1.0000
  C   C31       1.0  0.1355441731514873  0.4139524606567305  0.4892305713991619  1.0000
  C   C32       1.0  0.8644626986052302  0.9139656017085753  0.5107701453648731  1.0000
  C   C33       1.0  0.3984425930462905  0.6928470491520641  0.12976707730109643  1.0000
  C   C34       1.0  0.6015632548813628  0.19284816107902  0.8702368280993728  1.0000
  C   C35       1.0  0.2681428787078133  0.30704129079872183  0.8702301199645318  1.0000
  C   C36       1.0  0.7318612525285602  0.8070367021793102  0.12976879139980474  1.0000
  O   O1        1.0  0.5093342219667392  0.7356805201715982  0.6938959898624475  1.0000
  O   O2        1.0  0.49065809021060147  0.23567160621342248  0.30610565767391057  1.0000
  O   O3        1.0  0.8143344132239817  0.2642712174883285  0.30602181903798004  1.0000
  O   O4        1.0  0.1856459089426323  0.76426887558906  0.6939746237118385  1.0000
  O   O5        1.0  0.47902084560565333  0.7072659329701805  0.27415102862387647  1.0000
  O   O6        1.0  0.5209790054550466  0.2072325419548235  0.7258505261258534  1.0000
  O   O7        1.0  0.20502078746488192  0.2930583327853853  0.7257818718834488  1.0000
  O   O8        1.0  0.7949803730735638  0.7930521836327101  0.2742188601282863  1.0000
  O   O9        1.0  0.8589391458004131  0.48113799473784963  0.7344298730357153  1.0000
  O   O10       1.0  0.1410586289495939  0.9811413666821591  0.2655673684030049  1.0000
  O   O11       1.0  0.12400206005219869  0.5188903763718855  0.26541437126031303  1.0000
  O   O12       1.0  0.8760012132221959  0.018894988299571498  0.7345851379824568  1.0000
  O   O13       1.0  0.7078572466026714  0.42713191746538104  0.5122530837322119  1.0000
  O   O14       1.0  0.2921540660540529  0.9271288493600949  0.48774992591295074  1.0000
  O   O15       1.0  0.19558131631205097  0.5733097635851362  0.48773946966888104  1.0000
  O   O16       1.0  0.8044158577758155  0.073311262167401  0.512259746402947  1.0000
  O   O17       1.0  0.6198150933631653  0.5569287156307325  0.3901506527116113  1.0000
  O   O18       1.0  0.3802075162343215  0.05692139201563859  0.6098510546480684  1.0000
  O   O19       1.0  0.22938025470411819  0.44359192889659477  0.6098015452084979  1.0000
  O   O20       1.0  0.7706235685608579  0.9435935410243841  0.3901980211597049  1.0000
  O   O21       1.0  0.5978541758495625  0.6675865052304387  0.5619168181884293  1.0000
  O   O22       1.0  0.40215325870956775  0.16758163531917353  0.43808161177054933  1.0000
  O   O23       1.0  0.035557303394021696  0.33307481128574773  0.43803441529485815  1.0000
  O   O24       1.0  0.9644482446444513  0.8330761250768716  0.5619676329299779  1.0000
