data_image0
_chemical_formula_structural       Zn2H12C20Br8N4Cl4
_chemical_formula_sum              "Zn2 H12 C20 Br8 N4 Cl4"
_cell_length_a       3.7364217710002667
_cell_length_b       13.785022092000645
_cell_length_c       13.785129295000512
_cell_angle_alpha    89.99998660819423
_cell_angle_beta     90.00002827562732
_cell_angle_gamma    90.0000326023524

_space_group_name_H-M_alt    "P 1"
_space_group_IT_number       1

loop_
  _space_group_symop_operation_xyz
  'x, y, z'

loop_
  _atom_site_type_symbol
  _atom_site_label
  _atom_site_symmetry_multiplicity
  _atom_site_fract_x
  _atom_site_fract_y
  _atom_site_fract_z
  _atom_site_occupancy
  Zn  Zn1       1.0  0.5000012609652204  0.9999998285459457  0.499999579583303  1.0000
  Zn  Zn2       1.0  0.500000284898185  0.49999996289453474  0.9999999751181363  1.0000
  H   H1        1.0  0.7053338670674949  0.7847393966918832  0.5174575613799561  1.0000
  H   H2        1.0  0.2946676837254003  0.5174580004582554  0.215260907291011  1.0000
  H   H3        1.0  0.7053359172970917  0.21525971858036297  0.4825410166863619  1.0000
  H   H4        1.0  0.294665488211912  0.48254177654589375  0.7847390665608314  1.0000
  H   H5        1.0  0.7053333403698973  0.7152604225117687  0.0174586320525876  1.0000
  H   H6        1.0  0.29466722494701963  0.017458068212960105  0.28473945801790274  1.0000
  H   H7        1.0  0.7053337676393808  0.2847394181851186  0.9825413968522339  1.0000
  H   H8        1.0  0.29466862334843563  0.98254243421642  0.715260515834032  1.0000
  H   H9        1.0  0.4999985424034961  0.6883499469780006  0.8116499391712961  1.0000
  H   H10       1.0  0.5000008932826531  0.8116512224245158  0.31165026190944894  1.0000
  H   H11       1.0  0.5000002593918609  0.311650587297443  0.18835006220685807  1.0000
  H   H12       1.0  0.5000005848693335  0.18834858642610902  0.6883497394689684  1.0000
  C   C1        1.0  0.614458232578066  0.7975445835468166  0.5913821415276457  1.0000
  C   C2        1.0  0.38554614061779796  0.5913831716324298  0.2024558017841755  1.0000
  C   C3        1.0  0.6144547690637338  0.20245524305541812  0.4086178751944231  1.0000
  C   C4        1.0  0.3855438140443752  0.40861661946657785  0.79754418425059  1.0000
  C   C5        1.0  0.6144550027894979  0.7024552042731786  0.09138103893305069  1.0000
  C   C6        1.0  0.3855483814592163  0.0913825109674988  0.29754455844012995  1.0000
  C   C7        1.0  0.6144526461381901  0.2975446223285517  0.9086197032080463  1.0000
  C   C8        1.0  0.38554692591848283  0.9086180055569458  0.7024554275949129  1.0000
  C   C9        1.0  0.6211812310445524  0.7252131719528169  0.6620742693859683  1.0000
  C   C10       1.0  0.3788205939984906  0.6620758313692435  0.2747859090057361  1.0000
  C   C11       1.0  0.6211831428145301  0.27478665569245925  0.33792647365711304  1.0000
  C   C12       1.0  0.3788206648037828  0.3379239586869289  0.725213350708202  1.0000
  C   C13       1.0  0.6211781522522201  0.7747880512268569  0.16207169905690924  1.0000
  C   C14       1.0  0.3788173507200412  0.16207373677027456  0.22521370838462926  1.0000
  C   C15       1.0  0.6211728398200336  0.22521250184249209  0.837928318565808  1.0000
  C   C16       1.0  0.37881855536954134  0.8379267787103405  0.7747870021676276  1.0000
  C   C17       1.0  0.5000039026820958  0.7442098567347203  0.7557890129913148  1.0000
  C   C18       1.0  0.4999954315195794  0.7557913257325383  0.2557878979380135  1.0000
  C   C19       1.0  0.49999489911392203  0.25579067754063095  0.244211713806223  1.0000
  C   C20       1.0  0.4999953412028688  0.24420848311724802  0.7442121034396932  1.0000
  Br  Br1       1.0  0.7973094748638233  0.5998902127595402  0.6306817719906448  1.0000
  Br  Br2       1.0  0.20269227192449793  0.6306823096603653  0.4001093536271512  1.0000
  Br  Br3       1.0  0.797314381642238  0.4001110930528642  0.36931826924439537  1.0000
  Br  Br4       1.0  0.20269218058969327  0.36931745307893504  0.5998906078948351  1.0000
  Br  Br5       1.0  0.7973146867661854  0.9001124959293277  0.1306813486465472  1.0000
  Br  Br6       1.0  0.20268880097048486  0.13068242064690594  0.0998887966459066  1.0000
  Br  Br7       1.0  0.7973145224538883  0.09988808445846332  0.8693186925889334  1.0000
  Br  Br8       1.0  0.2026902988283723  0.8693180675171778  0.9001097140368727  1.0000
  N   N1        1.0  0.499998569383358  0.8875748958262335  0.6124250888285232  1.0000
  N   N2        1.0  0.4999978280098247  0.6124241438949908  0.1124261835220679  1.0000
  N   N3        1.0  0.5000002324104856  0.11242418759915303  0.3875749125497947  1.0000
  N   N4        1.0  0.5000009737855321  0.3875763903804455  0.8875738178560866  1.0000
  Cl  Cl1       1.0  1.3287115691999995e-06  0.9133020788602267  0.4133025093679308  1.0000
  Cl  Cl2       1.0  5.101486805999998e-07  0.41330219293229936  0.08669772397546179  1.0000
  Cl  Cl3       1.0  6.234231690999998e-07  0.08669765244250273  0.5866974249817785  1.0000
  Cl  Cl4       1.0  0.9999982916459232  0.5866976159181122  0.9133022774027778  1.0000
