data_image0
_chemical_formula_structural       Mn2H36C32N6O14
_chemical_formula_sum              "Mn2 H36 C32 N6 O14"
_cell_length_a       8.834928671415392
_cell_length_b       10.186496987337659
_cell_length_c       11.175777474173195
_cell_angle_alpha    89.78071188917646
_cell_angle_beta     100.2137547270034
_cell_angle_gamma    109.98617683516308

_space_group_name_H-M_alt    "P 1"
_space_group_IT_number       1

loop_
  _space_group_symop_operation_xyz
  'x, y, z'

loop_
  _atom_site_type_symbol
  _atom_site_label
  _atom_site_symmetry_multiplicity
  _atom_site_fract_x
  _atom_site_fract_y
  _atom_site_fract_z
  _atom_site_occupancy
  Mn  Mn1       1.0  0.2887343758489038  0.13956238183074984  0.095234116561997  1.0000
  Mn  Mn2       1.0  0.7112733162566515  0.8604279029475066  0.9047570633017727  1.0000
  H   H1        1.0  0.6501632242558628  0.5428436002529937  0.1461982150430643  1.0000
  H   H2        1.0  0.3498457939632403  0.4571481482278089  0.8538075358952072  1.0000
  H   H3        1.0  0.5666577379843787  0.18749620814389087  0.9808354426502888  1.0000
  H   H4        1.0  0.4333601404650338  0.812512829755832  0.019158630734281687  1.0000
  H   H5        1.0  0.5754291962281001  0.3200488227092323  0.0652576948815877  1.0000
  H   H6        1.0  0.42458767244548307  0.6799586724351981  0.9347478303603366  1.0000
  H   H7        1.0  0.12375383594604733  0.9513722183115831  0.8983325677906676  1.0000
  H   H8        1.0  0.8762520013879611  0.04863878248755071  0.1016667922966121  1.0000
  H   H9        1.0  0.050961368521910785  0.06836403736545549  0.8845270625824995  1.0000
  H   H10       1.0  0.9490439400309185  0.9316458412176942  0.1154739821361588  1.0000
  H   H11       1.0  0.7474361459385648  0.2056682694556002  0.609760342752125  1.0000
  H   H12       1.0  0.2525494658466413  0.79433931664893  0.39024826675342433  1.0000
  H   H13       1.0  0.6701568405761905  0.33782355380494516  0.6364206094799273  1.0000
  H   H14       1.0  0.32982037585760776  0.6621878115760466  0.3635750949230144  1.0000
  H   H15       1.0  0.6218636787518151  0.49764142697744534  0.5554386554697075  1.0000
  H   H16       1.0  0.37811507045204007  0.5023655923562984  0.4445598930442571  1.0000
  H   H17       1.0  0.7003623311298668  0.6491322839552183  0.4760200674755808  1.0000
  H   H18       1.0  0.2996259663590024  0.3508786144539258  0.5239845578100315  1.0000
  H   H19       1.0  0.7674013520090383  0.6520134018587098  0.6341479327298812  1.0000
  H   H20       1.0  0.23259382783312788  0.34798609974401273  0.3658512909870737  1.0000
  H   H21       1.0  0.15780145959438843  0.8656721102659476  0.5237384043775677  1.0000
  H   H22       1.0  0.8421821562690683  0.1343251007631423  0.47626699254928434  1.0000
  H   H23       1.0  0.9762466178721283  0.817711612612868  0.5832465287240396  1.0000
  H   H24       1.0  0.023756531829228298  0.1822937388754795  0.41676214244976256  1.0000
  H   H25       1.0  0.9647302466334438  0.8233142792115588  0.4240280261576713  1.0000
  H   H26       1.0  0.035262098481730696  0.1766960959773982  0.5759879812617896  1.0000
  H   H27       1.0  0.20962797128856187  0.031733611564369796  0.3676519547452912  1.0000
  H   H28       1.0  0.7903636601684595  0.9682445120814264  0.6323552324329782  1.0000
  H   H29       1.0  0.6576472699149676  0.31529219222684185  0.3070720610431792  1.0000
  H   H30       1.0  0.3423292429091163  0.6846905855088394  0.6929274373004617  1.0000
  H   H31       1.0  0.31228912783432605  0.6256699138441206  0.11936560001892359  1.0000
  H   H32       1.0  0.6877158506761631  0.3743276953150598  0.8806270855765561  1.0000
  H   H33       1.0  0.8924033033727952  0.7337666870708688  0.16352588142378008  1.0000
  H   H34       1.0  0.10760448024606722  0.266224337614915  0.8364724931049566  1.0000
  H   H35       1.0  0.863494219012438  0.3031061501501283  0.16058849631927075  1.0000
  H   H36       1.0  0.1365175723638997  0.6968889870969759  0.8394114945397816  1.0000
  C   C1        1.0  0.8588587579797888  0.39884114699065526  0.5270632399381084  1.0000
  C   C2        1.0  0.1411286011496813  0.6011616207750237  0.4729348035060426  1.0000
  C   C3        1.0  0.870942310918288  0.5404704647829773  0.5262512110941984  1.0000
  C   C4        1.0  0.12904848346070003  0.45953525509718673  0.4737510212412843  1.0000
  C   C5        1.0  0.014497322262471352  0.6427217807774213  0.5015957734036718  1.0000
  C   C6        1.0  0.9854861184920694  0.35727928789480506  0.49839355098431776  1.0000
  C   C7        1.0  0.7137097799375879  0.29139742086815085  0.5673799690668062  1.0000
  C   C8        1.0  0.2862734541604438  0.7086094575538696  0.4326210822846548  1.0000
  C   C9        1.0  0.7329183668704928  0.5857826662852688  0.5493159957350642  1.0000
  C   C10       1.0  0.2670724294374764  0.4142253906010751  0.45068090973384056  1.0000
  C   C11       1.0  0.029945598716466147  0.7948775893373179  0.5079943692719198  1.0000
  C   C12       1.0  0.9700434721499319  0.20512164875032815  0.4920119370889537  1.0000
  C   C13       1.0  0.33543828301245066  0.10325612977025142  0.3833122526768946  1.0000
  C   C14       1.0  0.6645519984993554  0.8967318303043685  0.6166868554628877  1.0000
  C   C15       1.0  0.5611468742602669  0.24511063541595493  0.3483158893669938  1.0000
  C   C16       1.0  0.43883605575783946  0.7548709998903859  0.6516846082161081  1.0000
  C   C17       1.0  0.09709599883819199  0.4545853560239122  0.1431542757637558  1.0000
  C   C18       1.0  0.9029168063737103  0.5454119874243232  0.8568432337621842  1.0000
  C   C19       1.0  0.18657820178592024  0.5959147622317501  0.1338784713928547  1.0000
  C   C20       1.0  0.8134316234104516  0.404089012766498  0.8661169009183639  1.0000
  C   C21       1.0  0.11366562268493394  0.6970258953201094  0.14127818652648466  1.0000
  C   C22       1.0  0.8863407235351347  0.302974889332802  0.8587138848230396  1.0000
  C   C23       1.0  0.9510075570361849  0.6562673718221815  0.15816403357781889  1.0000
  C   C24       1.0  0.04900968934310157  0.3437297924834866  0.841836866715262  1.0000
  C   C25       1.0  0.8612311412281884  0.5151861521287059  0.1626930450611113  1.0000
  C   C26       1.0  0.1387821033823258  0.4848099000676528  0.8373098825593033  1.0000
  C   C27       1.0  0.9338456051891697  0.4138776047135693  0.15807128390568437  1.0000
  C   C28       1.0  0.06616886996185659  0.5861185078319692  0.8419300496000162  1.0000
  C   C29       1.0  0.17144571162988598  0.34527451868444814  0.1267803177917983  1.0000
  C   C30       1.0  0.828574675687065  0.6547353415903246  0.8732186499579484  1.0000
  C   C31       1.0  0.20237946066828263  0.8481227336490988  0.12539211912962134  1.0000
  C   C32       1.0  0.7976284639776169  0.1518760801935883  0.8745965815346964  1.0000
  N   N1        1.0  0.5732116984887983  0.22867136721036732  0.4685457239871056  1.0000
  N   N2        1.0  0.426774414264777  0.7713206652897495  0.531457279989624  1.0000
  N   N3        1.0  0.4295512069862326  0.1380817170938613  0.4931305526366785  1.0000
  N   N4        1.0  0.570435309356867  0.8619143233817183  0.5068770741552271  1.0000
  N   N5        1.0  0.4109921002389427  0.16642048706746237  0.2910330165010464  1.0000
  N   N6        1.0  0.5889879710973317  0.8335600200170604  0.7089696901539496  1.0000
  O   O1        1.0  0.08542331391851118  0.21575706793073832  0.1324119252117839  1.0000
  O   O2        1.0  0.9146058563022166  0.7842463566931742  0.8675883126162063  1.0000
  O   O3        1.0  0.3163735698552728  0.3819683662482447  0.10570805258952018  1.0000
  O   O4        1.0  0.6836508312078705  0.6180486070398602  0.8942961751481986  1.0000
  O   O5        1.0  0.33325679632601174  0.8884445595092032  0.08317642885969428  1.0000
  O   O6        1.0  0.6667371030583881  0.11155585362799772  0.9168020089865436  1.0000
  O   O7        1.0  0.1380437184065143  0.9365415238653438  0.1549160145531587  1.0000
  O   O8        1.0  0.8619503520270726  0.0634543681828887  0.8450695253077071  1.0000
  O   O9        1.0  0.6966487378245461  0.4698113029525715  0.1685388911863512  1.0000
  O   O10       1.0  0.3033633180432672  0.5301823901192718  0.8314700694857252  1.0000
  O   O11       1.0  0.5009003785977201  0.23322574193062454  0.019221545069832823  1.0000
  O   O12       1.0  0.4991171500373923  0.76678299012233  0.9807796317518082  1.0000
  O   O13       1.0  0.15864396963587524  0.05376069641810229  0.908297856315059  1.0000
  O   O14       1.0  0.8413638934402599  0.9462523797771214  0.09170186797256011  1.0000
