data_image0
_chemical_formula_structural       Ag2H18C18S2N4O6
_chemical_formula_sum              "Ag2 H18 C18 S2 N4 O6"
_cell_length_a       7.070294381624386
_cell_length_b       8.253034516363412
_cell_length_c       9.149086243698127
_cell_angle_alpha    70.55633416912495
_cell_angle_beta     84.72218192285708
_cell_angle_gamma    80.90877209973632

_space_group_name_H-M_alt    "P 1"
_space_group_IT_number       1

loop_
  _space_group_symop_operation_xyz
  'x, y, z'

loop_
  _atom_site_type_symbol
  _atom_site_label
  _atom_site_symmetry_multiplicity
  _atom_site_fract_x
  _atom_site_fract_y
  _atom_site_fract_z
  _atom_site_occupancy
  Ag  Ag1       1.0  0.9924406484631801  0.0846620911916887  0.8047459901463153  1.0000
  Ag  Ag2       1.0  0.007559354761660609  0.9153368972201505  0.19525466166473385  1.0000
  H   H1        1.0  0.7154546945262581  0.5065065485374518  0.6428034244711822  1.0000
  H   H2        1.0  0.2845432480560603  0.49348725116583847  0.3571989271707706  1.0000
  H   H3        1.0  0.9251281778726437  0.5042765681724789  0.84865963677624  1.0000
  H   H4        1.0  0.07487199727293609  0.495721135761876  0.15133919733794698  1.0000
  H   H5        1.0  0.8461842611508317  0.35327399428616973  0.12694521456545252  1.0000
  H   H6        1.0  0.15381631547965924  0.6467211095533187  0.8730554542196599  1.0000
  H   H7        1.0  0.5665405661884931  0.18655238305304075  0.20319502635990006  1.0000
  H   H8        1.0  0.433456802988168  0.8134453012226076  0.7968073083079896  1.0000
  H   H9        1.0  0.11228981528889648  0.27915794258224486  0.4462613420873466  1.0000
  H   H10       1.0  0.8877138523053814  0.7208449443200495  0.5537367769514104  1.0000
  H   H11       1.0  0.0015566200411925044  0.2064966062627747  0.316046832499083  1.0000
  H   H12       1.0  0.9984470590817761  0.7935062744115413  0.6839523805526112  1.0000
  H   H13       1.0  0.3192716059902522  0.03611161570253071  0.3787836849928181  1.0000
  H   H14       1.0  0.6807334818815177  0.9638912716871462  0.6212143247884894  1.0000
  H   H15       1.0  0.2551421117419963  0.9783958821018716  0.5807183214629957  1.0000
  H   H16       1.0  0.7448601355747966  0.0216070043130472  0.4192799068332177  1.0000
  H   H17       1.0  0.787104899730771  0.24184005583854437  0.5260731873059539  1.0000
  H   H18       1.0  0.21289877939219798  0.7581628248357716  0.473926025745733  1.0000
  C   C1        1.0  0.5276211670355976  0.34751187242203235  0.8115611244574122  1.0000
  C   C2        1.0  0.47237782892535296  0.6524845091795655  0.1884425652949416  1.0000
  C   C3        1.0  0.6843170072380643  0.4374975631152866  0.7645102336944657  1.0000
  C   C4        1.0  0.3156813807311777  0.562502721742618  0.2354901570450423  1.0000
  C   C5        1.0  0.800061125016505  0.43604815647252343  0.8814236418826266  1.0000
  C   C6        1.0  0.1999334151338701  0.5639495206003887  0.11858000531309894  1.0000
  C   C7        1.0  0.7568759734130879  0.3490429686525687  0.03782027106409197  1.0000
  C   C8        1.0  0.24312240302746344  0.6509573224333212  0.9621790256624788  1.0000
  C   C9        1.0  0.600042531378591  0.2566182098423013  0.0820823721399933  1.0000
  C   C10       1.0  0.3999546428199635  0.7433807713667947  0.917919592198892  1.0000
  C   C11       1.0  0.48604281266013055  0.2557815109163927  0.9662173472409914  1.0000
  C   C12       1.0  0.5139525397760281  0.7442200699002017  0.03378289168442437  1.0000
  C   C13       1.0  0.31540025610575373  0.16408006325307414  0.9839511396943049  1.0000
  C   C14       1.0  0.6845908700839942  0.8359214974174308  0.01605270904226331  1.0000
  C   C15       1.0  0.05023610612283849  0.17043539526547144  0.43572364410573505  1.0000
  C   C16       1.0  0.949769176727038  0.8295661951907579  0.5642747360045701  1.0000
  C   C17       1.0  0.19934097404154721  0.011103618507121401  0.46382778971531724  1.0000
  C   C18       1.0  0.8006612732752528  0.9888992679078045  0.5361704385808963  1.0000
  S   S1        1.0  0.3502106817361579  0.32191867255490797  0.6994116900061869  1.0000
  S   S2        1.0  0.6497857356073168  0.6780854839320085  0.30059098104257487  1.0000
  N   N1        1.0  0.23697650619804017  0.1896977337716592  0.8469595031093956  1.0000
  N   N2        1.0  0.7630220767493083  0.8103012541527974  0.15304125795911006  1.0000
  N   N3        1.0  0.8879346678189888  0.13405264425725963  0.5494009316529185  1.0000
  N   N4        1.0  0.11206919475340979  0.865948945711594  0.4505975577148433  1.0000
  O   O1        1.0  0.22458836740971583  0.48387902873830063  0.6351801963858037  1.0000
  O   O2        1.0  0.7754180853088428  0.5161147801172562  0.36482040569848806  1.0000
  O   O3        1.0  0.4344906249141474  0.23588814777889414  0.5894374448880908  1.0000
  O   O4        1.0  0.5655158047470364  0.764105673532633  0.4105609691703406  1.0000
  O   O5        1.0  0.2570978108315458  0.07304780774622802  0.11447649531915964  1.0000
  O   O6        1.0  0.7428903237271312  0.9269641341324474  0.8855234060299533  1.0000
