data_image0
_chemical_formula_structural       Ga2H6C8O10
_chemical_formula_sum              "Ga2 H6 C8 O10"
_cell_length_a       6.839570904852265
_cell_length_b       8.997897081192823
_cell_length_c       8.997952618953883
_cell_angle_alpha    77.66264512873029
_cell_angle_beta     75.20058844769112
_cell_angle_gamma    75.20088123963139

_space_group_name_H-M_alt    "P 1"
_space_group_IT_number       1

loop_
  _space_group_symop_operation_xyz
  'x, y, z'

loop_
  _atom_site_type_symbol
  _atom_site_label
  _atom_site_symmetry_multiplicity
  _atom_site_fract_x
  _atom_site_fract_y
  _atom_site_fract_z
  _atom_site_occupancy
  Ga  Ga1       1.0  0.5000157310910038  0.4999658580933187  0.49998083232920726  1.0000
  Ga  Ga2       1.0  1.5126977274309038e-05  0.49997858195914796  0.4999651815563767  1.0000
  H   H1        1.0  0.749834997430824  0.6644716617235177  0.3359430601269367  1.0000
  H   H2        1.0  0.24979578843174727  0.33599717759075526  0.6645271202141814  1.0000
  H   H3        1.0  0.22710677010807961  0.013844702593445403  0.47567485377382474  1.0000
  H   H4        1.0  0.2729098497882135  0.5243378380349596  0.9861155563182894  1.0000
  H   H5        1.0  0.7729103184166137  0.9861106767332756  0.5243426254751996  1.0000
  H   H6        1.0  0.7271117355278136  0.47567056357128484  0.013845910052793883  1.0000
  C   C1        1.0  0.1483207044523098  0.7869989166789679  0.49390525747720204  1.0000
  C   C2        1.0  0.3517129218650438  0.5060659183274578  0.2129568878599387  1.0000
  C   C3        1.0  0.8517274743325417  0.21295359868692293  0.5060645360040041  1.0000
  C   C4        1.0  0.6483154323495627  0.49390303882276515  0.7870000989429328  1.0000
  C   C5        1.0  0.0974058091615929  0.958152111465694  0.49178592149105793  1.0000
  C   C6        1.0  0.40263715912331577  0.5082146166439542  0.04181714792208887  1.0000
  C   C7        1.0  0.9026259059019492  0.0418208482338827  0.5082196227000255  1.0000
  C   C8        1.0  0.5973933380203604  0.4917890565937951  0.9581502120760277  1.0000
  O   O1        1.0  0.3410227207746032  0.7239333832675143  0.4719872204058576  1.0000
  O   O2        1.0  0.15902509442697277  0.5279796285814341  0.2760269017139053  1.0000
  O   O3        1.0  0.659011700299267  0.2760249259283968  0.5279840729865414  1.0000
  O   O4        1.0  0.8410256241912322  0.4719904253525442  0.7239344198750216  1.0000
  O   O5        1.0  0.9979726819971191  0.7198160099327922  0.5156774840324801  1.0000
  O   O6        1.0  0.5020550650868998  0.48424898093718843  0.2801557764986812  1.0000
  O   O7        1.0  0.0020422825397191095  0.2801522545276923  0.48424444882033413  1.0000
  O   O8        1.0  0.4979742334038377  0.5156744282665288  0.719819095867301  1.0000
  O   O9        1.0  0.7500153551260665  0.5783220851310631  0.42159989695688443  1.0000
  O   O10       1.0  0.25002242061206914  0.42158242558574693  0.5783104523651093  1.0000
