data_image0
_chemical_formula_structural       Li8H24C16O24
_chemical_formula_sum              "Li8 H24 C16 O24"
_cell_length_a       4.919981229402257
_cell_length_b       10.993947549771882
_cell_length_c       15.731606241646357
_cell_angle_alpha    90.00102685451303
_cell_angle_beta     90.00136456700638
_cell_angle_gamma    90.00065722219885

_space_group_name_H-M_alt    "P 1"
_space_group_IT_number       1

loop_
  _space_group_symop_operation_xyz
  'x, y, z'

loop_
  _atom_site_type_symbol
  _atom_site_label
  _atom_site_symmetry_multiplicity
  _atom_site_fract_x
  _atom_site_fract_y
  _atom_site_fract_z
  _atom_site_occupancy
  Li  Li1       1.0  0.975295147682388  0.26554068245705054  0.4481122494489115  1.0000
  Li  Li2       1.0  0.5246961915486282  0.23446120001788978  0.9481177933134362  1.0000
  Li  Li3       1.0  0.4752947005080799  0.23445646098400633  0.551886614330023  1.0000
  Li  Li4       1.0  0.024705259424131005  0.26554585915348383  0.0518872574438234  1.0000
  Li  Li5       1.0  0.0246927851437206  0.7344606206661978  0.5518858039243354  1.0000
  Li  Li6       1.0  0.4752958065594513  0.765537374421591  0.0518872523493101  1.0000
  Li  Li7       1.0  0.52470542756987  0.7655439326034287  0.4481139817343305  1.0000
  Li  Li8       1.0  0.9753070638845144  0.7344554440660434  0.9481146099980293  1.0000
  H   H1        1.0  0.15011266208691154  0.4940477248169231  0.3987756638267684  1.0000
  H   H2        1.0  0.3498792256904935  0.005956342732190501  0.8987786034901717  1.0000
  H   H3        1.0  0.6501047861400836  0.005959865569238301  0.6012207838037612  1.0000
  H   H4        1.0  0.8498905600154102  0.49404481736805667  0.10122250680137772  1.0000
  H   H5        1.0  0.8498834008652095  0.5059544879149342  0.6012223895828797  1.0000
  H   H6        1.0  0.6501351299732647  0.9940431412642567  0.10121944996884481  1.0000
  H   H7        1.0  0.3498912768922722  0.9940396184256316  0.3987804479022898  1.0000
  H   H8        1.0  0.1501116006011785  0.505954666639731  0.8987787249273325  1.0000
  H   H9        1.0  0.8457809735394405  0.4618404067488983  0.385034359214238  1.0000
  H   H10       1.0  0.6542319731883524  0.038167276892302496  0.8850337412876357  1.0000
  H   H11       1.0  0.345763171035486  0.03816619345224841  0.6149648135660328  1.0000
  H   H12       1.0  0.1542375391305271  0.46184124058865444  0.11496464399571951  1.0000
  H   H13       1.0  0.1542252519697271  0.5381627155661377  0.6149611515873659  1.0000
  H   H14       1.0  0.3457823824722865  0.9618303879288066  0.1149649478219885  1.0000
  H   H15       1.0  0.6542430546677807  0.9618369289222672  0.3850357825395605  1.0000
  H   H16       1.0  0.8457727514223022  0.5381546050336397  0.8850334094234071  1.0000
  H   H17       1.0  0.7955656092587517  0.19715074938015686  0.2836212372597586  1.0000
  H   H18       1.0  0.704413172852135  0.3028509235288582  0.783620149048879  1.0000
  H   H19       1.0  0.2955899409476146  0.3028565477575286  0.7163781982313324  1.0000
  H   H20       1.0  0.20441038043223606  0.19713506671931919  0.21637543059456021  1.0000
  H   H21       1.0  0.2044365515887065  0.8028560113959029  0.7163831728335168  1.0000
  H   H22       1.0  0.2955910201712229  0.6971485604460597  0.21637790437237922  1.0000
  H   H23       1.0  0.704412219719437  0.6971511225504373  0.28362112656414246  1.0000
  H   H24       1.0  0.7955755196772003  0.8028553212955388  0.7836219870337758  1.0000
  C   C1        1.0  0.44611441104984806  0.19860001942457467  0.3717889494746203  1.0000
  C   C2        1.0  0.05386931872990169  0.30139977838440757  0.8717854515795054  1.0000
  C   C3        1.0  0.9461296862934103  0.30139881965963866  0.6282147828576612  1.0000
  C   C4        1.0  0.5538453626016278  0.19861104258607298  0.12821155222576414  1.0000
  C   C5        1.0  0.5538775870762365  0.8013949166716615  0.628218003152334  1.0000
  C   C6        1.0  0.9461369069733649  0.6986033439901077  0.12821514452608804  1.0000
  C   C7        1.0  0.05386231165107349  0.6986033930784855  0.37178454186287985  1.0000
  C   C8        1.0  0.4461283424445597  0.8013911700686835  0.8717839584488234  1.0000
  C   C9        1.0  0.5737375802026533  0.1949872973880815  0.2858642887867973  1.0000
  C   C10       1.0  0.9262495031081528  0.3050071512675033  0.7858623356236905  1.0000
  C   C11       1.0  0.07375774057464209  0.305006325654169  0.7141360410066468  1.0000
  C   C12       1.0  0.42625257282718815  0.19500433789212224  0.2141399778219011  1.0000
  C   C13       1.0  0.4262544175755777  0.804995813968084  0.714138214118613  1.0000
  C   C14       1.0  0.07376282002752528  0.6949923327246382  0.214135717827773  1.0000
  C   C15       1.0  0.9262444199026304  0.6949967966596944  0.28586010544285045  1.0000
  C   C16       1.0  0.5737556856193962  0.8049969653782725  0.785866974908842  1.0000
  O   O1        1.0  0.020430272241235097  0.42605004339824865  0.3993760560003992  1.0000
  O   O2        1.0  0.4795779214411127  0.07395039983449439  0.8993764361053495  1.0000
  O   O3        1.0  0.5204203329253901  0.07395517843171011  0.6006251489988159  1.0000
  O   O4        1.0  0.9795810652142904  0.4260504001323398  0.1006230951969727  1.0000
  O   O5        1.0  0.9795678232632312  0.5739521693453541  0.6006226330797944  1.0000
  O   O6        1.0  0.5204384666536797  0.9260490841365228  0.10061907470922192  1.0000
  O   O7        1.0  0.4795838602118393  0.9260470343396748  0.39937481143002873  1.0000
  O   O8        1.0  0.020423127892428297  0.5739481742809361  0.899377500870088  1.0000
  O   O9        1.0  0.20646284563079584  0.1570540418697561  0.3817676851869152  1.0000
  O   O10       1.0  0.293539938663848  0.34295326610449445  0.8817614488505754  1.0000
  O   O11       1.0  0.7064765777296103  0.34295196823435253  0.6182387161548918  1.0000
  O   O12       1.0  0.7935139700161074  0.15705038403824292  0.1182430566815214  1.0000
  O   O13       1.0  0.793539315224109  0.8429499901470124  0.6182379962137715  1.0000
  O   O14       1.0  0.7064805146631913  0.6570498562778582  0.1182372403188836  1.0000
  O   O15       1.0  0.29352151775059093  0.6570502445018107  0.3817593372623023  1.0000
  O   O16       1.0  0.20646583300371896  0.8429454616384147  0.8817651672323237  1.0000
  O   O17       1.0  0.5896707777534971  0.24235601692204514  0.4324339379783311  1.0000
  O   O18       1.0  0.9102949742299771  0.25764640831564384  0.9324375776310205  1.0000
  O   O19       1.0  0.0896945832919087  0.25764222156060157  0.56756396759598  1.0000
  O   O20       1.0  0.4103045405070347  0.2423559172513663  0.0675563536109252  1.0000
  O   O21       1.0  0.4102968300524524  0.7576416478892515  0.5675723789136028  1.0000
  O   O22       1.0  0.0896949912760405  0.7423585332071951  0.0675630184265614  1.0000
  O   O23       1.0  0.9103055448239914  0.7423590816256579  0.432437264137569  1.0000
  O   O24       1.0  0.5897037170125118  0.7576353802758573  0.9324302578356907  1.0000
