data_image0
_chemical_formula_structural       Ag4H40C24N8O16
_chemical_formula_sum              "Ag4 H40 C24 N8 O16"
_cell_length_a       5.837568892664713
_cell_length_b       8.323137208672811
_cell_length_c       17.972457669807557
_cell_angle_alpha    90.00014816692313
_cell_angle_beta     90.00009100717217
_cell_angle_gamma    91.29248704496273

_space_group_name_H-M_alt    "P 1"
_space_group_IT_number       1

loop_
  _space_group_symop_operation_xyz
  'x, y, z'

loop_
  _atom_site_type_symbol
  _atom_site_label
  _atom_site_symmetry_multiplicity
  _atom_site_fract_x
  _atom_site_fract_y
  _atom_site_fract_z
  _atom_site_occupancy
  Ag  Ag1       1.0  0.6386107748991703  0.6687648716742487  0.691058288152888  1.0000
  Ag  Ag2       1.0  0.361428643782773  0.8312616119631713  0.19105043531904184  1.0000
  Ag  Ag3       1.0  0.3614031762804544  0.3312653705952969  0.3089447220137912  1.0000
  Ag  Ag4       1.0  0.638565128621451  0.16872414470063293  0.8089559130353263  1.0000
  H   H1        1.0  0.2594973566203151  0.34571937005073744  0.6911993774530811  1.0000
  H   H2        1.0  0.7405342134755415  0.15429055630872313  0.19119646030281953  1.0000
  H   H3        1.0  0.7405169192484278  0.654321688174825  0.30880418919196717  1.0000
  H   H4        1.0  0.25943609814991936  0.8456555183466961  0.8088087750227826  1.0000
  H   H5        1.0  0.9526399397116876  0.3252441500835985  0.6976943794488901  1.0000
  H   H6        1.0  0.04740408013235958  0.1747702698018898  0.1976841012139942  1.0000
  H   H7        1.0  0.0473735425457775  0.6747704690622455  0.3023108562423217  1.0000
  H   H8        1.0  0.95257916110436  0.8252070636599457  0.8023200214787989  1.0000
  H   H9        1.0  0.11122834158421568  0.4475274073387681  0.7617511000773187  1.0000
  H   H10       1.0  0.8888032122364039  0.0524789701501973  0.2617384070263355  1.0000
  H   H11       1.0  0.888785537485603  0.5525004313399436  0.23825357929427324  1.0000
  H   H12       1.0  0.11118743976538778  0.947459915895607  0.7382523616280422  1.0000
  H   H13       1.0  0.7753668267513377  0.46004477380193265  0.5990380283941403  1.0000
  H   H14       1.0  0.224674588258452  0.03993254524760911  0.09903632893445286  1.0000
  H   H15       1.0  0.2246395866366555  0.5399626275006923  0.4009660944500552  1.0000
  H   H16       1.0  0.7753272083484646  0.9600351939979389  0.9009633423995991  1.0000
  H   H17       1.0  0.6995397981518394  0.7604856811937211  0.44677331562012745  1.0000
  H   H18       1.0  0.3004324030239474  0.7395591129759396  0.9467662969683341  1.0000
  H   H19       1.0  0.3004111292319962  0.23955651190961905  0.5532330332013727  1.0000
  H   H20       1.0  0.6996428406303252  0.2604014929928907  0.05324505870805038  1.0000
  H   H21       1.0  0.5241696422608302  0.6965419913399061  0.5212232901270679  1.0000
  H   H22       1.0  0.4758203262738974  0.8034316951356362  0.021215694391244693  1.0000
  H   H23       1.0  0.47579522399450974  0.3034509451964596  0.4787858403710812  1.0000
  H   H24       1.0  0.5242041201864182  0.19660576836569993  0.9787973311260882  1.0000
  H   H25       1.0  0.672320893730749  0.5522760374786844  0.4683650250043171  1.0000
  H   H26       1.0  0.3276897151084555  0.9477568948305689  0.9683801419640613  1.0000
  H   H27       1.0  0.32767774763043894  0.4477577940268063  0.5316313083355693  1.0000
  H   H28       1.0  0.6722851407445204  0.052226438752462905  0.03161285264790339  1.0000
  H   H29       1.0  0.9864620278457822  0.8862522244198487  0.4326675178024359  1.0000
  H   H30       1.0  0.013535638636412292  0.6137512452304604  0.9326678271623973  1.0000
  H   H31       1.0  0.0135329347534849  0.1137731910942108  0.5673271462683329  1.0000
  H   H32       1.0  0.9864890774214458  0.38623814961651703  0.0673246109774013  1.0000
  H   H33       1.0  0.24272371593199438  0.9513353366741345  0.4777796632670712  1.0000
  H   H34       1.0  0.7572982932113631  0.5486622839735774  0.9777837422294763  1.0000
  H   H35       1.0  0.7572763859613686  0.0486900842583182  0.5222150007928474  1.0000
  H   H36       1.0  0.24272427690136308  0.45131268771801564  0.02221092144641549  1.0000
  H   H37       1.0  0.1670475835736056  0.7892696867946398  0.58161095296132  1.0000
  H   H38       1.0  0.832963156395948  0.7107250184268352  0.08160672759437657  1.0000
  H   H39       1.0  0.8329607951152057  0.2107461290707633  0.41837981616849607  1.0000
  H   H40       1.0  0.1670456006804031  0.2892463335203531  0.9183868232727901  1.0000
  C   C1        1.0  0.10004051422379939  0.40825875241500154  0.703485597407848  1.0000
  C   C2        1.0  0.8999507518752381  0.09175772376680412  0.2034845089583114  1.0000
  C   C3        1.0  0.8999910369524572  0.5917871309416682  0.2965190820466289  1.0000
  C   C4        1.0  0.1000112107105053  0.9081955525046368  0.7965207264330086  1.0000
  C   C5        1.0  0.08333375106838761  0.5517850079016071  0.6533020232455156  1.0000
  C   C6        1.0  0.9166891278453874  0.9482097089124721  0.15329782836001016  1.0000
  C   C7        1.0  0.9166692000215662  0.44822118804228234  0.3467009867841141  1.0000
  C   C8        1.0  0.0832973591313504  0.05176161937328771  0.8467029558442716  1.0000
  C   C9        1.0  0.888676262360228  0.5656188667259628  0.6047366556806748  1.0000
  C   C10       1.0  0.1113550888040109  0.9343963281746143  0.10473123823069126  1.0000
  C   C11       1.0  0.11132412825475063  0.434416168276215  0.39526301610511877  1.0000
  C   C12       1.0  0.8886642355014658  0.06558464876296453  0.8952639818990488  1.0000
  C   C13       1.0  0.8785926473513896  0.6824617384988231  0.5466357753356589  1.0000
  C   C14       1.0  0.12140386944898299  0.8175166849090232  0.04663932838215599  1.0000
  C   C15       1.0  0.12138981860474729  0.31754683943224654  0.45336278349782305  1.0000
  C   C16       1.0  0.8786081336766643  0.18244866154052633  0.9533636813558954  1.0000
  C   C17       1.0  0.6853652313152666  0.6735071440570836  0.4920654025773173  1.0000
  C   C18       1.0  0.31463622550634085  0.8264669035248107  0.9920600397558201  1.0000
  C   C19       1.0  0.31462022808396745  0.32648701603912406  0.507939276629912  1.0000
  C   C20       1.0  0.6853849564260627  0.17351888207899444  0.007944639319866597  1.0000
  C   C21       1.0  0.059875675884846685  0.9241825915755442  0.486238367811758  1.0000
  C   C22       1.0  0.9400887131010691  0.5758217533631935  0.9862370264965106  1.0000
  C   C23       1.0  0.9400795606629728  0.0758319665533804  0.513751288608425  1.0000
  C   C24       1.0  0.0599353176379651  0.42414480765749124  0.013759862747917897  1.0000
  N   N1        1.0  0.04237714067336639  0.7954015280225731  0.5405200498250904  1.0000
  N   N2        1.0  0.9576060251935914  0.7045988201049269  0.04052801177509478  1.0000
  N   N3        1.0  0.9576040809455362  0.20462267139384244  0.45946960660431535  1.0000
  N   N4        1.0  0.042397700934905906  0.2953761316213815  0.9594705467890986  1.0000
  N   N5        1.0  0.5510708390212926  0.0408875482868893  0.656488062529007  1.0000
  N   N6        1.0  0.448930615956492  0.45914692555454917  0.15648154432622616  1.0000
  N   N7        1.0  0.44892587276452645  0.9591390707937608  0.343507157953013  1.0000
  N   N8        1.0  0.5510805396980842  0.5408472618572875  0.8435142323158542  1.0000
  O   O1        1.0  0.24538541871810082  0.657054928687778  0.6529323712366659  1.0000
  O   O2        1.0  0.7546111509218534  0.8429770329843009  0.15292133897952448  1.0000
  O   O3        1.0  0.7546187228492939  0.34299092581277096  0.34707063905490526  1.0000
  O   O4        1.0  0.2453653456907574  0.15700389905170908  0.8470638659159275  1.0000
  O   O5        1.0  0.625664171297835  0.9535322291669601  0.7100898879741278  1.0000
  O   O6        1.0  0.37429619249745366  0.5465112401061916  0.21006928011028944  1.0000
  O   O7        1.0  0.37429131824615064  0.0464907408937449  0.2899192427441689  1.0000
  O   O8        1.0  0.6257565467010197  0.4534986134968193  0.7899353990590254  1.0000
  O   O9        1.0  0.4711647855910144  0.9765668575126581  0.5986314891077951  1.0000
  O   O10       1.0  0.5289022816637187  0.5234498838443999  0.09862828028170867  1.0000
  O   O11       1.0  0.5288951305004375  0.023453819466624306  0.4013659568283926  1.0000
  O   O12       1.0  0.4710929872401763  0.47652866413265127  0.9013719475451861  1.0000
  O   O13       1.0  0.5617048558792419  0.1921467026276815  0.6643722220518736  1.0000
  O   O14       1.0  0.4382781723076761  0.30788855677830906  0.16437096491313943  1.0000
  O   O15       1.0  0.43830031327910046  0.8078763200484433  0.335627449643688  1.0000
  O   O16       1.0  0.5616748824888873  0.6921103761411658  0.8356320451737953  1.0000
