data_image0
_chemical_formula_structural       Gd2H22C10O16
_chemical_formula_sum              "Gd2 H22 C10 O16"
_cell_length_a       6.5782693623485144
_cell_length_b       7.791261132416791
_cell_length_c       9.922799026372635
_cell_angle_alpha    109.49594276409182
_cell_angle_beta     89.9992248443122
_cell_angle_gamma    89.99941205232402

_space_group_name_H-M_alt    "P 1"
_space_group_IT_number       1

loop_
  _space_group_symop_operation_xyz
  'x, y, z'

loop_
  _atom_site_type_symbol
  _atom_site_label
  _atom_site_symmetry_multiplicity
  _atom_site_fract_x
  _atom_site_fract_y
  _atom_site_fract_z
  _atom_site_occupancy
  Gd  Gd1       1.0  0.7500071510352341  0.5050622408463709  0.7488485315860487  1.0000
  Gd  Gd2       1.0  0.24999328933761697  0.49493895394007836  0.2511523685831847  1.0000
  H   H1        1.0  0.8729679287911765  0.7043570492529413  0.054087627777818253  1.0000
  H   H2        1.0  0.37297713790879783  0.2956410526686497  0.9459133815271699  1.0000
  H   H3        1.0  0.12703403174867842  0.2956441503994398  0.9459122658860791  1.0000
  H   H4        1.0  0.6270248226343469  0.7043574141405106  0.054087804327203205  1.0000
  H   H5        1.0  0.6269801088389001  0.7126339504416068  0.552967247084979  1.0000
  H   H6        1.0  0.12697841518863842  0.2873635057826507  0.4470367750352438  1.0000
  H   H7        1.0  0.37301577103129807  0.28736859616866883  0.4470360265050389  1.0000
  H   H8        1.0  0.8730174647038851  0.7126376841591551  0.5529651316584109  1.0000
  H   H9        1.0  0.7500046867571016  0.11345187930972143  0.0385552515376943  1.0000
  H   H10       1.0  0.25000031411676105  0.8865493300745231  0.9614426291155241  1.0000
  H   H11       1.0  0.6135156071192897  0.9779609691851764  0.8851764449484849  1.0000
  H   H12       1.0  0.113504220712521  0.022039423077892195  0.11482343455091382  1.0000
  H   H13       1.0  0.38649091391287993  0.022038873766817305  0.11482208179042891  1.0000
  H   H14       1.0  0.8865023003196484  0.9779604198741013  0.8851750921880069  1.0000
  H   H15       1.0  0.7499979414716406  0.09770077147954478  0.2599235458112048  1.0000
  H   H16       1.0  0.24999945861020487  0.9022990666597152  0.7400759874807507  1.0000
  H   H17       1.0  0.8868469549357983  0.9641386977452555  0.343947982433484  1.0000
  H   H18       1.0  0.3868485717109563  0.03585650634447289  0.6560481059358167  1.0000
  H   H19       1.0  0.11315044517002802  0.035858417303920496  0.6560508300573462  1.0000
  H   H20       1.0  0.6131473082262175  0.9641419702603855  0.3439510669651185  1.0000
  H   H21       1.0  0.2500194821578532  0.39031071403022116  0.7215558443235325  1.0000
  H   H22       1.0  0.7499824783820019  0.6096904856221599  0.27844404934036504  1.0000
  C   C1        1.0  0.7500091559624594  0.22027788021864578  0.8697658994272432  1.0000
  C   C2        1.0  0.24999584490270624  0.7797219578674089  0.13023363381701367  1.0000
  C   C3        1.0  0.7500050365313838  0.060730138183672  0.9210602902178878  1.0000
  C   C4        1.0  0.24999844422011824  0.9392683529977007  0.07893586314795445  1.0000
  C   C5        1.0  0.7499995181541906  0.20858144898049608  0.48415638185374393  1.0000
  C   C6        1.0  0.24999940210664556  0.7914170324796572  0.515841784532313  1.0000
  C   C7        1.0  0.7499942765745331  0.0466092944565517  0.350686415014728  1.0000
  C   C8        1.0  0.24999856302534346  0.9533919052596787  0.6493134787064037  1.0000
  C   C9        1.0  0.2499938684616367  0.5411886612108177  0.7578984166343546  1.0000
  C   C10       1.0  0.7500080920352161  0.45881388535688933  0.24210485691749986  1.0000
  O   O1        1.0  0.9177035249052565  0.29052931939185106  0.8470787289845492  1.0000
  O   O2        1.0  0.4176982008564636  0.70947495432182  0.15292553391875435  1.0000
  O   O3        1.0  0.08229843563459842  0.7094718802605302  0.15292116467934858  1.0000
  O   O4        1.0  0.5823022395387129  0.2905248837961665  0.847073999354123  1.0000
  O   O5        1.0  0.9176793591795018  0.28013578915737725  0.5428703672234222  1.0000
  O   O6        1.0  0.4176813225238832  0.7198548937760236  0.45712525945284455  1.0000
  O   O7        1.0  0.08231652075602372  0.7198640538690952  0.4571281595822754  1.0000
  O   O8        1.0  0.5823160775563282  0.2801463107848506  0.5428736277438733  1.0000
  O   O9        1.0  0.07997885091357658  0.6224393962493338  0.7775720419605818  1.0000
  O   O10       1.0  0.5799549434658077  0.37754380453051795  0.22241552137165851  1.0000
  O   O11       1.0  0.9200215894282592  0.3775617839074031  0.22243187769605302  1.0000
  O   O12       1.0  0.42004245655235917  0.6224573707709311  0.777589404799848  1.0000
  O   O13       1.0  0.7499944164132445  0.6877969833850769  0.9918431236482235  1.0000
  O   O14       1.0  0.25000602397159355  0.3122028498563268  0.008157416120447217  1.0000
  O   O15       1.0  0.7499983725447451  0.6925914586938545  0.6049974659396328  1.0000
  O   O16       1.0  0.24999598714482127  0.30741381101714177  0.39500652846104606  1.0000
