data_image0
_chemical_formula_structural       Ag8H16C16O20
_chemical_formula_sum              "Ag8 H16 C16 O20"
_cell_length_a       5.447112323475921
_cell_length_b       6.531098407619778
_cell_length_c       19.051992643060228
_cell_angle_alpha    90.00019019779259
_cell_angle_beta     89.99979018193363
_cell_angle_gamma    110.92024664739348

_space_group_name_H-M_alt    "P 1"
_space_group_IT_number       1

loop_
  _space_group_symop_operation_xyz
  'x, y, z'

loop_
  _atom_site_type_symbol
  _atom_site_label
  _atom_site_symmetry_multiplicity
  _atom_site_fract_x
  _atom_site_fract_y
  _atom_site_fract_z
  _atom_site_occupancy
  Ag  Ag1       1.0  0.40324287692718025  0.9509249245160798  0.6011163109262797  1.0000
  Ag  Ag2       1.0  0.5967602714047189  0.5490744250531775  0.10112163804657111  1.0000
  Ag  Ag3       1.0  0.5967381541619049  0.0490746227914585  0.3988771697121082  1.0000
  Ag  Ag4       1.0  0.40325732916284807  0.4509334544621666  0.8988755167339021  1.0000
  Ag  Ag5       1.0  0.2711815723780688  0.7180393286272845  0.17661580268181615  1.0000
  Ag  Ag6       1.0  0.7288256677646174  0.7819591358615978  0.676613701550359  1.0000
  Ag  Ag7       1.0  0.7288424211169584  0.2819489413706719  0.8233866008825643  1.0000
  Ag  Ag8       1.0  0.27115653821455515  0.21805187057998401  0.32338817716372154  1.0000
  H   H1        1.0  0.10443807791178729  0.9870267496381542  0.8338984191670775  1.0000
  H   H2        1.0  0.8955421019156161  0.5129649518213454  0.3339008055399049  1.0000
  H   H3        1.0  0.895576778634492  0.012987663885084497  0.16610240977368562  1.0000
  H   H4        1.0  0.10441426975168602  0.487006676521794  0.666103172688807  1.0000
  H   H5        1.0  0.9393338905602135  0.7013394177149267  0.820644171682183  1.0000
  H   H6        1.0  0.06065998449126643  0.7986538475210592  0.32064548997921355  1.0000
  H   H7        1.0  0.060661882095907095  0.2986732809290444  0.1793613811824031  1.0000
  H   H8        1.0  0.9393366056115866  0.20131303746953927  0.6793605877461817  1.0000
  H   H9        1.0  0.9093397613747882  0.7267644341627528  0.9485195343234667  1.0000
  H   H10       1.0  0.09066282060261698  0.7732579283237155  0.4485208034716308  1.0000
  H   H11       1.0  0.09069924371281957  0.27325498778694157  0.051486543402489815  1.0000
  H   H12       1.0  0.9092977691468177  0.2267497164789915  0.5514836996489123  1.0000
  H   H13       1.0  0.1512051679320265  0.994439368831351  0.9566251948622907  1.0000
  H   H14       1.0  0.848826731197576  0.5055701026458336  0.4566270954262209  1.0000
  H   H15       1.0  0.8488464697337221  0.005575196172863198  0.043381932614607904  1.0000
  H   H16       1.0  0.1511457978224655  0.49443104604973337  0.5433816067218231  1.0000
  C   C1        1.0  0.22902120524877023  0.7486899910748973  0.017208362348021904  1.0000
  C   C2        1.0  0.7709889963600532  0.7513232982074243  0.5172124947400363  1.0000
  C   C3        1.0  0.7710180115434468  0.2513212500844091  0.9827872177849528  1.0000
  C   C4        1.0  0.2289720459005409  0.24868107577583487  0.482784135186769  1.0000
  C   C5        1.0  0.3027299384352914  0.842452400020171  0.7645112982652691  1.0000
  C   C6        1.0  0.6972706913875584  0.6575419833170739  0.26451346595826664  1.0000
  C   C7        1.0  0.6972750003733027  0.15754724575814547  0.2354879560359393  1.0000
  C   C8        1.0  0.3027197466325617  0.34244942112371746  0.7354821141902692  1.0000
  C   C9        1.0  0.13563859904638056  0.8295855508204112  0.8291014677534889  1.0000
  C   C10       1.0  0.8643620977497902  0.6704110974219472  0.32910348492245595  1.0000
  C   C11       1.0  0.8643774032702325  0.17042723109334898  0.17089831142711637  1.0000
  C   C12       1.0  0.1356161309741637  0.3295688025106712  0.6708962942632013  1.0000
  C   C13       1.0  0.12328672508218824  0.8193475445682236  0.9516461316707208  1.0000
  C   C14       1.0  0.8767137175490163  0.6806568399650172  0.4516444709714307  1.0000
  C   C15       1.0  0.8767486019056961  0.18067186222117468  0.0483567967801122  1.0000
  C   C16       1.0  0.12325052117275702  0.319337729262095  0.5483553082268104  1.0000
  O   O1        1.0  0.11727602422313765  0.7695465142266541  0.0741463007184109  1.0000
  O   O2        1.0  0.8827418572895734  0.7304477246711653  0.5741482094009953  1.0000
  O   O3        1.0  0.8827624117521465  0.2304238156904148  0.9258550530729011  1.0000
  O   O4        1.0  0.11723302162516798  0.26957634217809096  0.4258536693218177  1.0000
  O   O5        1.0  0.19081908475375522  0.8519466969431871  0.7065273948159929  1.0000
  O   O6        1.0  0.8091839463717321  0.6480471322517473  0.20653259651340516  1.0000
  O   O7        1.0  0.809166047757749  0.1480365040303298  0.29346608581389694  1.0000
  O   O8        1.0  0.1908230723339983  0.35195743103697197  0.793462458752913  1.0000
  O   O9        1.0  0.4140840741027034  0.6753069457346043  0.0109711011528688  1.0000
  O   O10       1.0  0.5859254947070837  0.8247046439346445  0.5109728458050427  1.0000
  O   O11       1.0  0.5859456774299049  0.3246862568933863  0.9890218545800664  1.0000
  O   O12       1.0  0.41402933709893114  0.1752980681439595  0.4890216846061719  1.0000
  O   O13       1.0  0.5369720511336098  0.847756478279116  0.7714684651880789  1.0000
  O   O14       1.0  0.4630431945328937  0.6522249423277271  0.27146822965258377  1.0000
  O   O15       1.0  0.4630372590797052  0.15224482182370738  0.22853131399116935  1.0000
  O   O16       1.0  0.5369646999430628  0.3477599887107842  0.7285289251234062  1.0000
  O   O17       1.0  0.2554147586910602  0.7855154426636018  0.8906240910774841  1.0000
  O   O18       1.0  0.744580276838306  0.7144785080844968  0.3906246840456903  1.0000
  O   O19       1.0  0.7446099864349874  0.21450064789917173  0.1093767378591934  1.0000
  O   O20       1.0  0.2553869175482788  0.28550134640535413  0.6093735205068144  1.0000
