data_image0
_chemical_formula_structural       Zn8H32C96O58F8
_chemical_formula_sum              "Zn8 H32 C96 O58 F8"
_cell_length_a       23.64651041935172
_cell_length_b       23.64812304142198
_cell_length_c       23.6460738034278
_cell_angle_alpha    67.07771130748304
_cell_angle_beta     72.23365001518798
_cell_angle_gamma    107.77915803753825

_space_group_name_H-M_alt    "P 1"
_space_group_IT_number       1

loop_
  _space_group_symop_operation_xyz
  'x, y, z'

loop_
  _atom_site_type_symbol
  _atom_site_label
  _atom_site_symmetry_multiplicity
  _atom_site_fract_x
  _atom_site_fract_y
  _atom_site_fract_z
  _atom_site_occupancy
  Zn  Zn1       1.0  0.05847975826714724  0.9573394242103463  0.48913334391386326  1.0000
  Zn  Zn2       1.0  0.0584799997974699  0.1011362189788372  0.4523944527678055  1.0000
  Zn  Zn3       1.0  0.941508195237752  0.9891214581401898  0.4573327854061517  1.0000
  Zn  Zn4       1.0  0.9415211730680613  0.9523904561054481  0.6011395623778525  1.0000
  Zn  Zn5       1.0  0.9464692913539849  0.547605469353357  0.010870614946618742  1.0000
  Zn  Zn6       1.0  0.053539129487667605  0.5108654871652407  0.04761580550637481  1.0000
  Zn  Zn7       1.0  0.9464594347898866  0.39885698503431405  0.04265651803437719  1.0000
  Zn  Zn8       1.0  0.0535268160975095  0.5426517326789979  0.8988586360317969  1.0000
  H   H1        1.0  0.9417298406323342  0.736875563553511  0.1554388745555428  1.0000
  H   H2        1.0  0.05826753232017281  0.6554174283402149  0.2369292654927478  1.0000
  H   H3        1.0  0.906561873355166  0.8033609455959052  0.3108770707738699  1.0000
  H   H4        1.0  0.09339347529650158  0.8108426153179097  0.3034396502745978  1.0000
  H   H5        1.0  0.05825369350020548  0.40280887112867  0.704838439837616  1.0000
  H   H6        1.0  0.9417197553552159  0.20481274765869273  0.9028577281625091  1.0000
  H   H7        1.0  0.09339096410080576  0.2825553968385464  0.6031838287225356  1.0000
  H   H8        1.0  0.9065938829525138  0.10316591841682773  0.7825546505528113  1.0000
  H   H9        1.0  0.6142725071953808  0.396824067170748  0.19656841135986264  1.0000
  H   H10       1.0  0.6142548808968372  0.21744489381873686  0.189149009339701  1.0000
  H   H11       1.0  0.3923222863403524  0.2951750535851261  0.2630793327922092  1.0000
  H   H12       1.0  0.3923464999822314  0.09718636023789168  0.3445413112505166  1.0000
  H   H13       1.0  0.38574521586387084  0.6965852428195093  0.8968295613970485  1.0000
  H   H14       1.0  0.3857199423917379  0.6891307199894855  0.7174586042554624  1.0000
  H   H15       1.0  0.6076876474563024  0.7630967180976498  0.7951730513208518  1.0000
  H   H16       1.0  0.6076337780643472  0.8445217267798031  0.597181178298804  1.0000
  H   H17       1.0  0.8546898679120005  0.5947405199408777  0.13312061574468723  1.0000
  H   H18       1.0  0.14530373375980338  0.6331244509313693  0.09475289066610053  1.0000
  H   H19       1.0  0.9211940628827335  0.9378062914968552  0.28932741025563746  1.0000
  H   H20       1.0  0.07876813306052828  0.789312109468682  0.4378854670264047  1.0000
  H   H21       1.0  0.14530047988983347  0.5121695195735043  0.7599535665843578  1.0000
  H   H22       1.0  0.8546925662628126  0.25994295596355244  0.01218161860474241  1.0000
  H   H23       1.0  0.07876904546124314  0.2894641043112216  0.4833635376610135  1.0000
  H   H24       1.0  0.92122200824808  0.9833766904487578  0.7894723983023297  1.0000
  H   H25       1.0  0.727156027652356  0.5166250378837417  0.062148370741653025  1.0000
  H   H26       1.0  0.7271532033779309  0.21052984725685764  0.2106951601742113  1.0000
  H   H27       1.0  0.22787983632677822  0.24004757679055191  0.4052416296486784  1.0000
  H   H28       1.0  0.2278586009032114  0.9878126880544473  0.3668787931113187  1.0000
  H   H29       1.0  0.27284492771783425  0.5621482006808237  0.016645065205210578  1.0000
  H   H30       1.0  0.27282299707287916  0.7106633875909271  0.7105467381407424  1.0000
  H   H31       1.0  0.7721398202584597  0.9052519001582696  0.7400527750676036  1.0000
  H   H32       1.0  0.7720981717427191  0.8668317735511335  0.48783650322952377  1.0000
  C   C1        1.0  0.18283202259886622  0.09141669883667451  0.40858288940690113  1.0000
  C   C2        1.0  0.9999976393988704  0.137969509295587  0.36201582258322434  1.0000
  C   C3        1.0  0.9999773515982756  0.9119887378858494  0.4120242406668524  1.0000
  C   C4        1.0  0.8171621613073015  0.9085757458638071  0.5914122982981952  1.0000
  C   C5        1.0  4.456915065034705e-06  0.8620224485093008  0.637977999320661  1.0000
  C   C6        1.0  0.9999993144273418  0.08798997946843216  0.5879877780303462  1.0000
  C   C7        1.0  8.543413784433063e-06  0.591412121288414  0.09141569068734873  1.0000
  C   C8        1.0  1.1283823014496757e-06  0.3620173868686437  0.1379778348596403  1.0000
  C   C9        1.0  0.8240158232009521  0.41201071084817187  0.08798909276288915  1.0000
  C   C10       1.0  0.9999910855488282  0.40857791088347295  0.9085830194688641  1.0000
  C   C11       1.0  1.1700090356911525e-06  0.6379757797251246  0.8620207459080119  1.0000
  C   C12       1.0  0.17597909408139845  0.587980939349208  0.9120192941331456  1.0000
  C   C13       1.0  7.60641141526468e-06  0.8048247620022052  0.6951738068903809  1.0000
  C   C14       1.0  3.176790237161356e-06  0.695172312378233  0.8048208650894751  1.0000
  C   C15       1.0  0.95718563128041  0.7768554950046536  0.7663091178250102  1.0000
  C   C16       1.0  0.04316430123736847  0.7234870939563933  0.7336877969383125  1.0000
  C   C17       1.0  0.9568389089628941  0.7231419041955294  0.8196758617106071  1.0000
  C   C18       1.0  0.04282331909671234  0.7765061645047951  0.6803237375383303  1.0000
  C   C19       1.0  0.999994601418493  0.1951699370909453  0.3048218655967715  1.0000
  C   C20       1.0  0.9999954071784956  0.3048150951746038  0.19517623215643454  1.0000
  C   C21       1.0  0.957168452715095  0.1803181871830191  0.27650287221055686  1.0000
  C   C22       1.0  0.043165038570215634  0.31966646480490374  0.22315108127506997  1.0000
  C   C23       1.0  0.9568241188520828  0.2336829657274321  0.22348499177219605  1.0000
  C   C24       1.0  0.04281954329053414  0.26630000157938133  0.2768607878505449  1.0000
  C   C25       1.0  1.1303184393845994e-05  0.629020235456089  0.12903688224647422  1.0000
  C   C26       1.0  0.9661201668007633  0.6692052016354707  0.12462941186596783  1.0000
  C   C27       1.0  0.9663429832395781  0.7044256885585657  0.16011401054362295  1.0000
  C   C28       1.0  6.582327572901223e-07  0.7002619763923336  0.20029470227137114  1.0000
  C   C29       1.0  0.03365988769275683  0.6600925041039788  0.20446687647420692  1.0000
  C   C30       1.0  0.03389687162300707  0.6246196814288184  0.16923307098588222  1.0000
  C   C31       1.0  0.9999894142359554  0.736143941309898  0.23619656557858798  1.0000
  C   C32       1.0  0.9999775641189217  0.7670955945719058  0.2671624973729507  1.0000
  C   C33       1.0  0.9999741871147168  0.802957404515148  0.3030197761611288  1.0000
  C   C34       1.0  0.9475822178580627  0.8195465135614696  0.3226891343637421  1.0000
  C   C35       1.0  0.947240084935267  0.8543901273316695  0.3585460643713104  1.0000
  C   C36       1.0  0.9999740896009542  0.874286492021085  0.37433441974520304  1.0000
  C   C37       1.0  0.052710432119866604  0.858503719571573  0.35445569241604596  1.0000
  C   C38       1.0  0.05236488356265336  0.8226370572890931  0.31962059532196446  1.0000
  C   C39       1.0  0.9999929917436532  0.37095877143277545  0.8709757337312284  1.0000
  C   C40       1.0  0.03387583067116406  0.40924204931151564  0.7969002857213143  1.0000
  C   C41       1.0  0.03364503434431053  0.3735305165720676  0.761908559535037  1.0000
  C   C42       1.0  0.999980874379723  0.2996964382474091  0.7997384055261066  1.0000
  C   C43       1.0  0.9663297196637758  0.26188003068839544  0.8735693647669864  1.0000
  C   C44       1.0  0.9661003834085307  0.2968810412721297  0.9092769819612629  1.0000
  C   C45       1.0  0.9999883367744077  0.26380500179416805  0.7638428797443739  1.0000
  C   C46       1.0  0.9999885176832921  0.2328495549304536  0.7328785971153167  1.0000
  C   C47       1.0  0.999993541515849  0.19700299118025538  0.6970093367046604  1.0000
  C   C48       1.0  0.05237256767944843  0.22972415495449644  0.6280222422816665  1.0000
  C   C49       1.0  0.052722032235685404  0.1942113060752462  0.5928368089579409  1.0000
  C   C50       1.0  0.9999968411737541  0.12568546640835632  0.6256849535929235  1.0000
  C   C51       1.0  0.9472692932414617  0.09283496790762764  0.6942042306303267  1.0000
  C   C52       1.0  0.947615102984372  0.12801382827482405  0.7297240646252448  1.0000
  C   C53       1.0  0.7486267771171172  0.3743122918617275  0.1256832100633077  1.0000
  C   C54       1.0  0.7129564514799329  0.4071611300969168  0.1455603734490438  1.0000
  C   C55       1.0  0.6422570494384418  0.3719797369189237  0.18039299673934295  1.0000
  C   C56       1.0  0.6059813610716063  0.30299301212379964  0.19699769859836652  1.0000
  C   C57       1.0  0.6422479419210064  0.2702763365070595  0.17733630633772177  1.0000
  C   C58       1.0  0.7129462545597821  0.30578937531602435  0.14148067461786706  1.0000
  C   C59       1.0  0.5342654696410423  0.2671397161913733  0.23285055508899433  1.0000
  C   C60       1.0  0.4723442546136171  0.2361878571486785  0.2638075449198638  1.0000
  C   C61       1.0  0.4005605679916755  0.20029312440492927  0.29969640547599147  1.0000
  C   C62       1.0  0.3645468931580069  0.2381118440210201  0.2955344648270995  1.0000
  C   C63       1.0  0.29383960456792835  0.20311074159721443  0.33076730225223383  1.0000
  C   C64       1.0  0.2580579185304048  0.1290361671172065  0.3709616887975429  1.0000
  C   C65       1.0  0.29384713443988625  0.09075036630332532  0.3753590373188943  1.0000
  C   C66       1.0  0.3645534768209727  0.12646160006328702  0.33987188301433247  1.0000
  C   C67       1.0  0.25137002853895757  0.6256733652853725  0.8743218806696619  1.0000
  C   C68       1.0  0.2870520975046277  0.6455584716325048  0.9071725347407384  1.0000
  C   C69       1.0  0.3577515619254614  0.6803950478077426  0.8719888838775276  1.0000
  C   C70       1.0  0.39401215524996064  0.6969935478254854  0.8030059221289819  1.0000
  C   C71       1.0  0.3577346349751808  0.6773172445569814  0.7702917729943551  1.0000
  C   C72       1.0  0.2870388964109552  0.6414603535045913  0.8058041167994291  1.0000
  C   C73       1.0  0.4657294033069805  0.7328529081647163  0.7671490048279638  1.0000
  C   C74       1.0  0.5276491073253101  0.7638074381287085  0.7361876194129238  1.0000
  C   C75       1.0  0.5994343706607592  0.7996926996554307  0.7002901559459932  1.0000
  C   C76       1.0  0.6354560051547725  0.7955442421462637  0.7381046517444644  1.0000
  C   C77       1.0  0.7061639040068715  0.8307744584504136  0.7031010007626147  1.0000
  C   C78       1.0  0.7419351546307028  0.8709603883108982  0.6290263021610158  1.0000
  C   C79       1.0  0.7061361022353767  0.8753492010190271  0.5907420075091921  1.0000
  C   C80       1.0  0.6354295909934041  0.8398584241015288  0.6264560618561389  1.0000
  C   C81       1.0  0.9371197593365681  0.6863881606069386  0.07497095760613347  1.0000
  C   C82       1.0  0.06291334074424539  0.5749892602088097  0.18641969436690425  1.0000
  C   C83       1.0  0.8868554815897416  0.8650813247517208  0.38461803208530654  1.0000
  C   C84       1.0  0.11310036796022173  0.8845959708759422  0.365147467877634  1.0000
  C   C85       1.0  0.06288661627987581  0.48789202453530583  0.750701315267648  1.0000
  C   C86       1.0  0.9371033445709144  0.25070246724271794  0.9879196092756007  1.0000
  C   C87       1.0  0.11310861222609962  0.2285167651129854  0.5217641272268524  1.0000
  C   C88       1.0  0.8868892286524214  0.02175629719735645  0.728502593276602  1.0000
  C   C89       1.0  0.749732307120837  0.47823742746425785  0.13487196391185569  1.0000
  C   C90       1.0  0.749713176223409  0.2714824228833096  0.11540447945249356  1.0000
  C   C91       1.0  0.26137196907399135  0.24928686808351602  0.3135928704711334  1.0000
  C   C92       1.0  0.2614009622774701  0.01210096032588839  0.4250043560393309  1.0000
  C   C93       1.0  0.25028488889645223  0.634872544564665  0.9782461797405805  1.0000
  C   C94       1.0  0.25025392575498273  0.6153743883590934  0.7715048519533102  1.0000
  C   C95       1.0  0.7386346612723644  0.8136032261518055  0.7492824392523262  1.0000
  C   C96       1.0  0.7385703038147896  0.9249733247432914  0.5120906441501561  1.0000
  O   O1        1.0  0.9999942359445698  0.9999943278683008  0.49999594847567164  1.0000
  O   O2        1.0  0.15355254445139374  0.028525029342787906  0.42358306055366063  1.0000
  O   O3        1.0  0.0532088262898256  0.15375898714188452  0.36847796045202597  1.0000
  O   O4        1.0  0.9742451543701949  0.9525636157663656  0.3998531639878707  1.0000
  O   O5        1.0  0.15356198661081072  0.12502771610259342  0.42286205186682224  1.0000
  O   O6        1.0  0.025717723999250354  0.8998340248460794  0.45260033854935233  1.0000
  O   O7        1.0  0.9467848086251465  0.07829878596528762  0.39941895108194825  1.0000
  O   O8        1.0  0.8464338487482903  0.9235827609585099  0.5285163369867832  1.0000
  O   O9        1.0  0.9468019948513486  0.8684911046919694  0.6537721537127724  1.0000
  O   O10       1.0  0.846442967135289  0.922855492676895  0.6250239318229164  1.0000
  O   O11       1.0  0.05321643092967346  0.8994355176931708  0.578306274152176  1.0000
  O   O12       1.0  0.02573006212416833  0.12588645984918403  0.5216753918209849  1.0000
  O   O13       1.0  0.9742729766591154  0.021683668952498254  0.6258855903166707  1.0000
  O   O14       1.0  1.2751359365330315e-06  0.49999592630108225  0.9999982057767485  1.0000
  O   O15       1.0  0.9521125341366315  0.5771289212085193  0.07642210901926212  1.0000
  O   O16       1.0  0.022260939819652596  0.42168676578146613  0.1315177492832902  1.0000
  O   O17       1.0  0.8524327239253467  0.37411318479421846  0.10015321832439399  1.0000
  O   O18       1.0  0.04789489885187248  0.5764055420934113  0.07715425600114409  1.0000
  O   O19       1.0  0.8524273083352157  0.4783165236967691  0.047410236872515665  1.0000
  O   O20       1.0  0.9777351141264887  0.3462229429919221  0.10056186602612611  1.0000
  O   O21       1.0  0.9520997893445442  0.3749673900423431  0.9714682295151251  1.0000
  O   O22       1.0  0.022256105335266393  0.6005610144630893  0.8462238550596625  1.0000
  O   O23       1.0  0.047883965940847914  0.47146653163593294  0.8749708556476393  1.0000
  O   O24       1.0  0.9777425870610231  0.6315116310622245  0.9216885005164317  1.0000
  O   O25       1.0  0.14757235773917196  0.5474099466753871  0.978325786496271  1.0000
  O   O26       1.0  0.14756549134240524  0.6001505980834169  0.8741147474603042  1.0000
  O   O27       1.0  0.8725051745365561  0.6433493384964208  0.09570346112599287  1.0000
  O   O28       1.0  0.9705804897064709  0.7428226350920683  0.01958766985644196  1.0000
  O   O29       1.0  0.1275162384337208  0.5957263427278789  0.1433609479607441  1.0000
  O   O30       1.0  0.029479700143355204  0.5196286457933965  0.2428746052519628  1.0000
  O   O31       1.0  0.8802801117818363  0.9116730690142204  0.3347600313980409  1.0000
  O   O32       1.0  0.8437627790609311  0.8313957015373106  0.4461093941938544  1.0000
  O   O33       1.0  0.11968245685174167  0.8347503324983453  0.41174611358287183  1.0000
  O   O34       1.0  0.15617899835984184  0.9460929669175899  0.33145106182568895  1.0000
  O   O35       1.0  0.12749658137162367  0.5317643699581894  0.7291415105542002  1.0000
  O   O36       1.0  0.029436087837894035  0.509817159087973  0.7277042540629851  1.0000
  O   O37       1.0  0.8724980816458086  0.229143700098092  0.03179178410088918  1.0000
  O   O38       1.0  0.9705546486872693  0.22771453470976166  0.009845425098312328  1.0000
  O   O39       1.0  0.11968256662255786  0.2849430673791886  0.46858941152974154  1.0000
  O   O40       1.0  0.15619500817279428  0.21011232286708287  0.5123762307949137  1.0000
  O   O41       1.0  0.88030840313494  0.9685914120667931  0.784944804057709  1.0000
  O   O42       1.0  0.8438011028815707  0.012355050678493866  0.7100883744394224  1.0000
  O   O43       1.0  0.7464639870228211  0.5314058068369149  0.0882821641179063  1.0000
  O   O44       1.0  0.7775442011063447  0.48763245565542945  0.16856225402178646  1.0000
  O   O45       1.0  0.7464515424377751  0.21505202685774805  0.1652599879911563  1.0000
  O   O46       1.0  0.7775101955361522  0.2898832744101016  0.053911814912723274  1.0000
  O   O47       1.0  0.23906889508329962  0.2708508848656309  0.3566357863050413  1.0000
  O   O48       1.0  0.26242752770776434  0.27227396596680364  0.2571548538813247  1.0000
  O   O49       1.0  0.23907804195530982  0.9682198556436248  0.4042767690891866  1.0000
  O   O50       1.0  0.26248205535967656  0.9901825618958144  0.48037458470327715  1.0000
  O   O51       1.0  0.25354644107594754  0.5882828480317245  0.031420910051380674  1.0000
  O   O52       1.0  0.22248553041908545  0.6685630915609125  0.9876383266138477  1.0000
  O   O53       1.0  0.2535153854138059  0.6652265078988365  0.7150698157059097  1.0000
  O   O54       1.0  0.22244659238172199  0.553879681145041  0.7899125799745835  1.0000
  O   O55       1.0  0.7609465560698826  0.8566465336157026  0.7708522647946694  1.0000
  O   O56       1.0  0.7375819542135033  0.7571698395265682  0.7722609058609679  1.0000
  O   O57       1.0  0.7608941835893361  0.9042346952742406  0.46822520344271357  1.0000
  O   O58       1.0  0.7374925183645332  0.9803391397273417  0.4901552895209634  1.0000
  F   F1        1.0  0.9156710288621566  0.8015695890882099  0.7859557384054273  1.0000
  F   F2        1.0  0.08752181305680312  0.7016154135507336  0.7140440436013338  1.0000
  F   F3        1.0  0.9124808919539903  0.6984310522872621  0.8859022963339387  1.0000
  F   F4        1.0  0.08433949457327129  0.7983819553388829  0.6140912256754236  1.0000
  F   F5        1.0  0.9156470080002989  0.1140873118947497  0.29837279049755244  1.0000
  F   F6        1.0  0.08752727964336773  0.38589822002481367  0.19844362715814168  1.0000
  F   F7        1.0  0.9124625616819698  0.2140402216984113  0.2016109736758694  1.0000
  F   F8        1.0  0.08433914908030006  0.28594703027330587  0.30157912363949185  1.0000
