data_image0
_chemical_formula_structural       Na4H72C44S4N4O8
_chemical_formula_sum              "Na4 H72 C44 S4 N4 O8"
_cell_length_a       7.291560107023258
_cell_length_b       11.545417768928564
_cell_length_c       15.718651350468116
_cell_angle_alpha    89.99976877307094
_cell_angle_beta     90.00087104654847
_cell_angle_gamma    109.4005398917039

_space_group_name_H-M_alt    "P 1"
_space_group_IT_number       1

loop_
  _space_group_symop_operation_xyz
  'x, y, z'

loop_
  _atom_site_type_symbol
  _atom_site_label
  _atom_site_symmetry_multiplicity
  _atom_site_fract_x
  _atom_site_fract_y
  _atom_site_fract_z
  _atom_site_occupancy
  Na  Na1       1.0  0.7672925998335814  0.4856301251253471  0.9776462661306053  1.0000
  Na  Na2       1.0  0.23270568212416984  0.0143696536484512  0.4776499099889192  1.0000
  Na  Na3       1.0  0.23269970815277935  0.5143582568068652  0.022348029680699693  1.0000
  Na  Na4       1.0  0.7673062632984158  0.9856390657613049  0.5223475667954246  1.0000
  H   H1        1.0  0.7934480167690766  0.006521865732501901  0.0228011461350306  1.0000
  H   H2        1.0  0.2065569421913551  0.49347204593058785  0.522802481870343  1.0000
  H   H3        1.0  0.2065604633915258  0.9934603697217669  0.9772020563581094  1.0000
  H   H4        1.0  0.7934398507005582  0.5065309850937753  0.47720771860749517  1.0000
  H   H5        1.0  0.8365188065246445  0.9481102619997942  0.17176689509975765  1.0000
  H   H6        1.0  0.16348894134651465  0.5518972754010748  0.6717584098081841  1.0000
  H   H7        1.0  0.16349916398058184  0.05189398707695863  0.8282426692631191  1.0000
  H   H8        1.0  0.8365157111025923  0.4481022233491388  0.32825433544977045  1.0000
  H   H9        1.0  0.9245970860304381  0.11185309199501599  0.2848398324541605  1.0000
  H   H10       1.0  0.07539361696030514  0.388158217006108  0.7848367465565927  1.0000
  H   H11       1.0  0.07539782673714528  0.88815446936097  0.7151601890201674  1.0000
  H   H12       1.0  0.9246262787454783  0.6118360333219144  0.21516900070626113  1.0000
  H   H13       1.0  0.959893502572463  0.3256692484549362  0.24869977308352983  1.0000
  H   H14       1.0  0.040095110142829134  0.17433469889886774  0.7486932508915203  1.0000
  H   H15       1.0  0.04009135367802235  0.6743290522313715  0.751300248369361  1.0000
  H   H16       1.0  0.9599358159115141  0.8256624456184339  0.2513048621627546  1.0000
  H   H17       1.0  0.8480486101672255  0.057677262634229  0.8885428377420436  1.0000
  H   H18       1.0  0.15196179312263067  0.44232806374638045  0.3885478462463467  1.0000
  H   H19       1.0  0.15195882787661946  0.9423195418949392  0.11144954954890099  1.0000
  H   H20       1.0  0.8480368341464414  0.5576759053323102  0.611447085751017  1.0000
  H   H21       1.0  0.7363676695549516  0.13802640606954236  0.8206961797912978  1.0000
  H   H22       1.0  0.2636472883114039  0.3619843815065665  0.320697111820202  1.0000
  H   H23       1.0  0.26364894174904674  0.8619750887950914  0.17930066083297894  1.0000
  H   H24       1.0  0.7363527886143545  0.6380114049640966  0.6793003649417811  1.0000
  H   H25       1.0  0.6022588641030782  0.05241224936134611  0.908686211676567  1.0000
  H   H26       1.0  0.3977485778973389  0.44758849851224625  0.4086922798242297  1.0000
  H   H27       1.0  0.3977417789735186  0.9475707841555093  0.09130363086332237  1.0000
  H   H28       1.0  0.6022611024640129  0.5524156305567162  0.5913001074637947  1.0000
  H   H29       1.0  0.5601706442949065  0.4010499287119274  0.7138819460739894  1.0000
  H   H30       1.0  0.4397965350578589  0.09895184751402303  0.21388551163879294  1.0000
  H   H31       1.0  0.43981004428601284  0.5989510461762748  0.28611298586530853  1.0000
  H   H32       1.0  0.5601998273555964  0.9010475312334307  0.7861164184132574  1.0000
  H   H33       1.0  0.46533404002016715  0.29944391029702894  0.8007740795218153  1.0000
  H   H34       1.0  0.5346471260777932  0.20056089742273292  0.3007811885997498  1.0000
  H   H35       1.0  0.5346678487987477  0.7005555484390273  0.19921830774592308  1.0000
  H   H36       1.0  0.4653404935539811  0.7994374432661715  0.6992245585447561  1.0000
  H   H37       1.0  0.7203290859157007  0.34536700362149025  0.7754896517594573  1.0000
  H   H38       1.0  0.2796438586797265  0.15463674608074743  0.2754919390965043  1.0000
  H   H39       1.0  0.2796658040107547  0.6546432919289772  0.22449955453356543  1.0000
  H   H40       1.0  0.7203377812702886  0.8453605965391305  0.7245068099728015  1.0000
  H   H41       1.0  0.3605275331849853  0.4760095728265555  0.8648578343033007  1.0000
  H   H42       1.0  0.6394599579382431  0.0239953961411175  0.3648572838897833  1.0000
  H   H43       1.0  0.6394729062044959  0.523998068528087  0.13514536812462544  1.0000
  H   H44       1.0  0.3605276616610665  0.9760029445462731  0.6351465546940387  1.0000
  H   H45       1.0  0.45622283927928464  0.552455746547551  0.7686990423926686  1.0000
  H   H46       1.0  0.543763291695143  0.9475570524451413  0.2687016740146148  1.0000
  H   H47       1.0  0.5437776000236242  0.4475518948030699  0.23129907054009635  1.0000
  H   H48       1.0  0.45623397676228455  0.05244416243953509  0.731303436972375  1.0000
  H   H49       1.0  0.7124634834202227  0.7137029857033212  0.8528405045383136  1.0000
  H   H50       1.0  0.28752378875101686  0.7862953371537531  0.3528386437457485  1.0000
  H   H51       1.0  0.28754073847466793  0.2862928607664514  0.14715951698558163  1.0000
  H   H52       1.0  0.7124610901999093  0.2137002293315362  0.6471639224588088  1.0000
  H   H53       1.0  0.4649229658319456  0.7065495028872419  0.8724170326214489  1.0000
  H   H54       1.0  0.5350722430442191  0.7934608057816277  0.372421327636502  1.0000
  H   H55       1.0  0.535091720206566  0.2934619907231095  0.12757980798147625  1.0000
  H   H56       1.0  0.4649185928230964  0.20653849297067955  0.6275818747702218  1.0000
  H   H57       1.0  0.5562353446398236  0.7978085802874446  0.014504556226597697  1.0000
  H   H58       1.0  0.4437519456862662  0.7021875518355645  0.5145077608443315  1.0000
  H   H59       1.0  0.443761946334071  0.20218990038766546  0.9854922843348317  1.0000
  H   H60       1.0  0.5562416534974021  0.297811786916327  0.48549735013263257  1.0000
  H   H61       1.0  0.8013732127226164  0.8132316808710981  0.981726407514088  1.0000
  H   H62       1.0  0.19862521675088374  0.6867833508544122  0.48173248980841504  1.0000
  H   H63       1.0  0.19862627526529764  0.18677959275036218  0.0182710692231467  1.0000
  H   H64       1.0  0.8013725047772343  0.31321878210113147  0.5182770744870737  1.0000
  H   H65       1.0  0.7044210938330056  0.733988487678488  0.07782993677310657  1.0000
  H   H66       1.0  0.29557245057747406  0.7660132729083032  0.5778357397931089  1.0000
  H   H67       1.0  0.2955775334685313  0.2660154814017091  0.9221669037849408  1.0000
  H   H68       1.0  0.7044225302806169  0.233986085844137  0.42217127974932106  1.0000
  H   H69       1.0  0.9521761686332796  0.46440694104398994  0.1437770554260354  1.0000
  H   H70       1.0  0.04783009751210441  0.035592590177238  0.6437779916457129  1.0000
  H   H71       1.0  0.04781659231554875  0.5355823589540663  0.8562153318248136  1.0000
  H   H72       1.0  0.9521906813207721  0.9644062304789643  0.3562156680625178  1.0000
  C   C1        1.0  0.896376594676802  0.29329993821073697  0.1148318805251733  1.0000
  C   C2        1.0  0.10361212962779831  0.20669657308202713  0.6148307952083556  1.0000
  C   C3        1.0  0.10361292742262411  0.7066911379289422  0.8851655962069671  1.0000
  C   C4        1.0  0.8963916166041913  0.7933010895229206  0.38516859012433696  1.0000
  C   C5        1.0  0.8489254526132157  0.19749330767174908  0.051507720723350296  1.0000
  C   C6        1.0  0.15108872749771518  0.30250623774864493  0.5515073212946433  1.0000
  C   C7        1.0  0.1510806492220382  0.8024980084578601  0.9484916646268358  1.0000
  C   C8        1.0  0.8489324364560318  0.6975017035885144  0.4484920640836164  1.0000
  C   C9        1.0  0.8280927579072641  0.07643032343738551  0.07236521294435508  1.0000
  C   C10       1.0  0.17193411354396196  0.42356851686111696  0.5723620590933363  1.0000
  C   C11       1.0  0.17191705859180934  0.9235574004224745  0.9276386257322924  1.0000
  C   C12       1.0  0.8280765183596445  0.5764319799475645  0.42764432431501825  1.0000
  C   C13       1.0  0.8548761122917982  0.0433346332346076  0.15625868436391238  1.0000
  C   C14       1.0  0.14513279799753329  0.4566749764438215  0.656250157481878  1.0000
  C   C15       1.0  0.14512899301155374  0.9566657835764192  0.8437457904646306  1.0000
  C   C16       1.0  0.8548626585775668  0.5433225661759593  0.3437606791862464  1.0000
  C   C17       1.0  0.9031843270310987  0.1346508084062989  0.21897593143068406  1.0000
  C   C18       1.0  0.09680184751677257  0.36535854039063054  0.7189717890350521  1.0000
  C   C19       1.0  0.09680967973580576  0.8653549168144749  0.7810234538562851  1.0000
  C   C20       1.0  0.9032051377918723  0.6346373460832526  0.2810358667411491  1.0000
  C   C21       1.0  0.9217210905001993  0.25541713348675193  0.19913124118910724  1.0000
  C   C22       1.0  0.07826850846146981  0.24459771235499517  0.6991241426984515  1.0000
  C   C23       1.0  0.0782719876737944  0.7445894898048521  0.8008713250277919  1.0000
  C   C24       1.0  0.9217471515167119  0.7554074147799809  0.30087142554339846  1.0000
  C   C25       1.0  0.7468490514456931  0.10999152431919872  0.886671383141177  1.0000
  C   C26       1.0  0.25315854755137224  0.39001102490345824  0.3866766133367178  1.0000
  C   C27       1.0  0.2531497117446478  0.8899960395403357  0.11332227650689927  1.0000
  C   C28       1.0  0.7468501816032075  0.6099967364413742  0.6133214996247245  1.0000
  C   C29       1.0  0.5927124881251302  0.3753023183356774  0.7781770532779786  1.0000
  C   C30       1.0  0.40726976641521173  0.12470065753950622  0.2781803168764511  1.0000
  C   C31       1.0  0.4072907370538844  0.6247026288069719  0.22181724254706126  1.0000
  C   C32       1.0  0.592721998066651  0.87529774314298  0.7218209769741293  1.0000
  C   C33       1.0  0.49485437196347704  0.5364865505213033  0.8345146431480968  1.0000
  C   C34       1.0  0.505127157917137  0.9635180498601841  0.33451695900544104  1.0000
  C   C35       1.0  0.5051414920541646  0.463517378560823  0.1654821974003866  1.0000
  C   C36       1.0  0.4948604616388863  0.036480290825203106  0.6654843348308004  1.0000
  C   C37       1.0  0.5709294558714649  0.6578496874360625  0.8798837624038709  1.0000
  C   C38       1.0  0.4290665053071552  0.8421560826903731  0.37988590429505104  1.0000
  C   C39       1.0  0.4290751736715849  0.3421525455056127  0.12011435055140397  1.0000
  C   C40       1.0  0.570925689544957  0.15784597026400604  0.6201172981123619  1.0000
  C   C41       1.0  0.6684526929385228  0.7532475898875788  0.012853470982903997  1.0000
  C   C42       1.0  0.3315519816217575  0.7467560841570702  0.5128583085248904  1.0000
  C   C43       1.0  0.3315501019676431  0.2467537049877038  0.9871446419673544  1.0000
  C   C44       1.0  0.6684494318264456  0.2532451907277249  0.4871506195978127  1.0000
  S   S1        1.0  0.8355460926927308  0.25016499516026874  0.9470182668500156  1.0000
  S   S2        1.0  0.16446403483198685  0.24983583326883974  0.44701056654828614  1.0000
  S   S3        1.0  0.16445355405758738  0.7498271390475466  0.05298875271924429  1.0000
  S   S4        1.0  0.8355271859614036  0.7501725861553867  0.5529869101643567  1.0000
  N   N1        1.0  0.9168300913126545  0.4094243380453122  0.0908927048995096  1.0000
  N   N2        1.0  0.08316470411045172  0.0905749696207252  0.5908924536746127  1.0000
  N   N3        1.0  0.0831658859366372  0.5905659200191736  0.9091009547349242  1.0000
  N   N4        1.0  0.9168321111355981  0.90942532718654  0.4090999335742395  1.0000
  O   O1        1.0  0.6403955777386158  0.4784545179382321  0.8340889896078563  1.0000
  O   O2        1.0  0.3595899606548302  0.021548566280777903  0.3340922235111491  1.0000
  O   O3        1.0  0.3595993802675182  0.521547575008185  0.16590657856637847  1.0000
  O   O4        1.0  0.6403995161627591  0.9784479782664591  0.6659071617735037  1.0000
  O   O5        1.0  0.5957163241076772  0.6379110096989963  0.9690410179670436  1.0000
  O   O6        1.0  0.40427990710672673  0.8620948613064531  0.469046109791442  1.0000
  O   O7        1.0  0.40428830542455074  0.3620912232421746  0.030956458801334494  1.0000
  O   O8        1.0  0.5957104531626173  0.137906253584049  0.530960273545439  1.0000
