data_image0
_chemical_formula_structural       Al4H16C32S8N4O20
_chemical_formula_sum              "Al4 H16 C32 S8 N4 O20"
_cell_length_a       6.728465519594097
_cell_length_b       16.83318759451339
_cell_length_c       18.011649722675333
_cell_angle_alpha    89.97744757714398
_cell_angle_beta     88.49256048919742
_cell_angle_gamma    91.28007258710436

_space_group_name_H-M_alt    "P 1"
_space_group_IT_number       1

loop_
  _space_group_symop_operation_xyz
  'x, y, z'

loop_
  _atom_site_type_symbol
  _atom_site_label
  _atom_site_symmetry_multiplicity
  _atom_site_fract_x
  _atom_site_fract_y
  _atom_site_fract_z
  _atom_site_occupancy
  Al  Al1       1.0  0.006915962562260298  0.9983960049794907  0.49966129138342563  1.0000
  Al  Al2       1.0  0.5075258062180054  0.0010891606298742  0.4956546139292827  1.0000
  Al  Al3       1.0  0.9878988490881753  0.49924115174349754  0.0011674157979157998  1.0000
  Al  Al4       1.0  0.4879296577498025  0.4997288188528447  0.9981760247383068  1.0000
  H   H1        1.0  0.7596320116915792  0.10108476238203683  0.5197697738811443  1.0000
  H   H2        1.0  0.2574052816259353  0.8951457990408116  0.5104650302171623  1.0000
  H   H3        1.0  0.7329921727700892  0.3951455342217189  0.9921844917445883  1.0000
  H   H4        1.0  0.24256018695594853  0.6037463094495125  0.9902604196558473  1.0000
  H   H5        1.0  0.5458215206887616  0.3539492893700855  0.7984309461725304  1.0000
  H   H6        1.0  0.0358328415030797  0.6445261759877284  0.19884116559550347  1.0000
  H   H7        1.0  0.4522979304742023  0.6437326487455767  0.8001722358270628  1.0000
  H   H8        1.0  0.536811842199107  0.3066071906632574  0.14983758763553115  1.0000
  H   H9        1.0  0.7923752382732657  0.1641877231502989  0.7239259766467259  1.0000
  H   H10       1.0  0.8903705164570398  0.10259411985033753  0.6558673601733178  1.0000
  H   H11       1.0  0.2958070276559255  0.8337828352298121  0.2768895008635185  1.0000
  H   H12       1.0  0.3919950030254142  0.8951321865881497  0.3451319384454338  1.0000
  H   H13       1.0  0.2035372738563055  0.8392837574582689  0.7234817444857597  1.0000
  H   H14       1.0  0.10976754985602348  0.9028343222353002  0.6578412273563716  1.0000
  H   H15       1.0  0.7870753227816394  0.21237223722690868  0.3294847741656071  1.0000
  H   H16       1.0  0.8817461079150634  0.13902781535900036  0.38513365773930275  1.0000
  C   C1        1.0  0.2635960559771319  0.09155955952832073  0.3941211945960107  1.0000
  C   C2        1.0  0.2598357695577461  0.10143062764557703  0.5945736936510502  1.0000
  C   C3        1.0  0.7434086299909314  0.9048528946503469  0.6006064536075257  1.0000
  C   C4        1.0  0.7582239527772643  0.8987612538178101  0.40226590581031024  1.0000
  C   C5        1.0  0.2272495173283602  0.4027958158862648  0.0985876324895472  1.0000
  C   C6        1.0  0.23932817653768274  0.4027561827176954  0.9000630654031601  1.0000
  C   C7        1.0  0.7513152990619005  0.5949600957598521  0.8987374615425809  1.0000
  C   C8        1.0  0.7349431890330891  0.5954837186751337  0.09892073725160343  1.0000
  C   C9        1.0  0.09259765235915299  0.17864623024942722  0.6994413505967145  1.0000
  C   C10       1.0  0.39965036650751545  0.32594868158253837  0.7931154562609423  1.0000
  C   C11       1.0  0.2570641995627838  0.15992638738423892  0.6532938796870058  1.0000
  C   C12       1.0  0.23923924865621157  0.34525320573822443  0.8386600633993668  1.0000
  C   C13       1.0  0.34590598856863153  0.2667206937887345  0.7415060189532597  1.0000
  C   C14       1.0  0.1464767334584991  0.24087842150628808  0.7493785329373496  1.0000
  C   C15       1.0  0.5918517591207362  0.8201082718197343  0.29977663283707306  1.0000
  C   C16       1.0  0.892097587599608  0.672408786584832  0.20497287685027746  1.0000
  C   C17       1.0  0.7545190718088294  0.8392452957695585  0.3446793918342976  1.0000
  C   C18       1.0  0.7341940621929195  0.6529366883580611  0.16031683277171996  1.0000
  C   C19       1.0  0.8395420883193695  0.7317072302756249  0.25676154280969143  1.0000
  C   C20       1.0  0.6438151660964946  0.7575279109276566  0.24984803572999686  1.0000
  C   C21       1.0  0.9052657679391134  0.8253575524414105  0.7018624427778023  1.0000
  C   C22       1.0  0.5979614822503335  0.6726660585410047  0.7940986328068151  1.0000
  C   C23       1.0  0.7425515425608537  0.8450173133813126  0.658232018247084  1.0000
  C   C24       1.0  0.7560313141794596  0.6529954994816197  0.8376128822789966  1.0000
  C   C25       1.0  0.6527712451507952  0.7339295895656195  0.7436307772298891  1.0000
  C   C26       1.0  0.8505416736987143  0.7608433895534648  0.7502730680134209  1.0000
  C   C27       1.0  0.08706196536522269  0.1927140636845835  0.3162452836394537  1.0000
  C   C28       1.0  0.3907416230161117  0.29796499797559056  0.17622487771912185  1.0000
  C   C29       1.0  0.254707449051736  0.14876146345052635  0.3346461075774698  1.0000
  C   C30       1.0  0.2286851422779179  0.341936932234738  0.15698326891531886  1.0000
  C   C31       1.0  0.3388989867621249  0.24319332714932076  0.23305525229667984  1.0000
  C   C32       1.0  0.1391445533890945  0.24684807860544572  0.25724289362169384  1.0000
  S   S1        1.0  0.47086570423111596  0.21667850180664777  0.6717037217247112  1.0000
  S   S2        1.0  0.02300905378843508  0.291476119727875  0.8190904913404824  1.0000
  S   S3        1.0  0.9631249848936887  0.7818123109779908  0.3257976699269705  1.0000
  S   S4        1.0  0.5216569957775761  0.7066275763037313  0.18099491532421305  1.0000
  S   S5        1.0  0.5303078599472856  0.7856296470421146  0.6766721669160419  1.0000
  S   S6        1.0  0.971520833061348  0.7087447167434179  0.8172686301018574  1.0000
  S   S7        1.0  0.46643827808926375  0.17233096702537412  0.2801906965319959  1.0000
  S   S8        1.0  0.013219395060119196  0.31707990421517723  0.20826393776467  1.0000
  N   N1        1.0  0.9137321143470131  0.13994164682868163  0.6992544492753654  1.0000
  N   N2        1.0  0.41668503978529253  0.8582007033759781  0.30129161274258826  1.0000
  N   N3        1.0  0.0836733892406158  0.8644133446088778  0.7007972366699775  1.0000
  N   N4        1.0  0.907467973114457  0.1873270282011462  0.35186456589597986  1.0000
  O   O1        1.0  0.0949762863250712  0.06819358789564943  0.4229406286073783  1.0000
  O   O2        1.0  0.4290944072732756  0.08094241971854643  0.5668729534477068  1.0000
  O   O3        1.0  0.5785304230497132  0.923990830524318  0.5720174043231694  1.0000
  O   O4        1.0  0.9246532245243487  0.9175455883802504  0.4315781991390822  1.0000
  O   O5        1.0  0.9159772478516715  0.9345489492776412  0.5817704187949391  1.0000
  O   O6        1.0  0.5900851938619667  0.9290041463546291  0.42073513452681516  1.0000
  O   O7        1.0  0.4336909337699879  0.06898334567323873  0.41514498245107495  1.0000
  O   O8        1.0  0.0895991422213456  0.07423096670631682  0.5739645856805211  1.0000
  O   O9        1.0  0.7604470999165827  0.04913512466993813  0.4965419451829192  1.0000
  O   O10       1.0  0.2559637697635893  0.95173141477639  0.5009064666852298  1.0000
  O   O11       1.0  0.05844613090383889  0.4275143020646724  0.07903206574864903  1.0000
  O   O12       1.0  0.4093575001288201  0.42724695432460896  0.9209082934716906  1.0000
  O   O13       1.0  0.5786837714378451  0.5713892498102737  0.9211667052179707  1.0000
  O   O14       1.0  0.9048710284457684  0.5718394041461039  0.07667670331108672  1.0000
  O   O15       1.0  0.9177290038475335  0.5746591629848015  0.9246978751218581  1.0000
  O   O16       1.0  0.5668221420985448  0.5753610499986481  0.0725012031507148  1.0000
  O   O17       1.0  0.396833203023128  0.42459654246578554  0.07150507383731511  1.0000
  O   O18       1.0  0.0699951593427457  0.4219620289488405  0.9276112957085304  1.0000
  O   O19       1.0  0.7354847664021376  0.4521196037987993  0.999425035284361  1.0000
  O   O20       1.0  0.24005747641722763  0.5469185660594394  0.998610547287726  1.0000
