data_image0
_chemical_formula_structural       Zn2H45C47N7O23
_chemical_formula_sum              "Zn2 H45 C47 N7 O23"
_cell_length_a       9.86698500385792
_cell_length_b       11.037804661558159
_cell_length_c       17.660005509851118
_cell_angle_alpha    88.86768142217292
_cell_angle_beta     92.20058039588187
_cell_angle_gamma    95.43693106998845

_space_group_name_H-M_alt    "P 1"
_space_group_IT_number       1

loop_
  _space_group_symop_operation_xyz
  'x, y, z'

loop_
  _atom_site_type_symbol
  _atom_site_label
  _atom_site_symmetry_multiplicity
  _atom_site_fract_x
  _atom_site_fract_y
  _atom_site_fract_z
  _atom_site_occupancy
  Zn  Zn1       1.0  0.6467729014227784  0.5042138087631541  0.5065816901514494  1.0000
  Zn  Zn2       1.0  0.3556900824702325  0.49788665214984457  0.4993825099475017  1.0000
  H   H1        1.0  0.6951542083625312  0.6601610808264199  0.8764754627886546  1.0000
  H   H2        1.0  0.2903229078022349  0.470165961496477  0.8789919211276143  1.0000
  H   H3        1.0  0.6823675304913904  0.6584782998042229  0.12175925764876888  1.0000
  H   H4        1.0  0.35933602316918467  0.09175847037183621  0.6031549453809504  1.0000
  H   H5        1.0  0.7322277447722384  0.18538974649190723  0.3961587615529821  1.0000
  H   H6        1.0  0.8068092792746951  0.9855530728501306  0.44535523566669605  1.0000
  H   H7        1.0  0.12766513476256588  0.3308795094745349  0.5476312709932569  1.0000
  H   H8        1.0  0.8733516589654471  0.3188526150561302  0.5579023597077395  1.0000
  H   H9        1.0  0.8559401160056197  0.7011877954003297  0.3870096087540347  1.0000
  H   H10       1.0  0.8607976656835348  0.7678254722823186  0.4787770674236  1.0000
  H   H11       1.0  0.6162281922674779  0.28341531880224125  0.2974699886169887  1.0000
  H   H12       1.0  0.4456747402811132  0.21375168455926996  0.2982618745176282  1.0000
  H   H13       1.0  0.6596905559709114  0.17614811598220834  0.18088577373568873  1.0000
  H   H14       1.0  0.5040472705827596  0.0853134819876118  0.18656082243568048  1.0000
  H   H15       1.0  0.37552812245169054  0.2696464946330437  0.1575449092646934  1.0000
  H   H16       1.0  0.48849742959347964  0.24306021462090402  0.0848776011188974  1.0000
  H   H17       1.0  0.5324297593140628  0.36088825859977197  0.15019022577968846  1.0000
  H   H18       1.0  0.8678017794330587  0.8365459761670591  0.2831745385944302  1.0000
  H   H19       1.0  0.9384183744979351  0.9249663832993136  0.3608277894076011  1.0000
  H   H20       1.0  0.7945690724938358  0.024577785156516502  0.2191124458657825  1.0000
  H   H21       1.0  0.8598844004333586  0.1131757333800749  0.2964556740735418  1.0000
  H   H22       1.0  0.096237849232736  0.0540713371686792  0.2763672819131529  1.0000
  H   H23       1.0  0.030205478512492303  0.12791046508469614  0.1953388719968245  1.0000
  H   H24       1.0  0.03351220798392522  0.9673060499543242  0.1965619212304901  1.0000
  H   H25       1.0  0.3045318000865577  0.6967823959965999  0.3722924484552691  1.0000
  H   H26       1.0  0.2998678265775395  0.8539244127667374  0.3938673805538713  1.0000
  H   H27       1.0  0.229557241625443  0.7341925988029632  0.2410528972734198  1.0000
  H   H28       1.0  0.206441614048714  0.8873135625956866  0.26001484371960254  1.0000
  H   H29       1.0  0.45589928556618986  0.9373739956140458  0.2829138613502664  1.0000
  H   H30       1.0  0.4285395926989253  0.8646699876334412  0.1941497115737647  1.0000
  H   H31       1.0  0.4865269131825798  0.7841902833718493  0.2748910487953893  1.0000
  H   H32       1.0  0.942489775557874  0.6022701207247325  0.2577351069807463  1.0000
  H   H33       1.0  0.8560346110688712  0.6081214026828833  0.1679744571020976  1.0000
  H   H34       1.0  0.8628380686872961  0.39119494766487156  0.2780373093458479  1.0000
  H   H35       1.0  0.7250694536012148  0.4006547509275509  0.2121188860737746  1.0000
  H   H36       1.0  0.881374141453911  0.4133502989794523  0.1040253683008174  1.0000
  H   H37       1.0  0.8953187870110353  0.2786728369916673  0.15878646211413638  1.0000
  H   H38       1.0  0.0237881508848048  0.4013272155499478  0.16786337582681196  1.0000
  H   H39       1.0  0.0760091538149794  0.5203358517298469  0.0469359219154555  1.0000
  H   H40       1.0  0.23142926520480242  0.5956927889516734  0.014870450193875196  1.0000
  H   H41       1.0  0.08107011357751051  0.6791347204700459  0.1502718541689347  1.0000
  H   H42       1.0  0.22047164718060944  0.7605526100208595  0.1066272804387793  1.0000
  H   H43       1.0  0.07459572504060931  0.7798932441769679  0.9855505663694402  1.0000
  H   H44       1.0  0.0023661710717349143  0.8443558226949506  0.06405880333608849  1.0000
  H   H45       1.0  0.9353264728798576  0.6990932072886055  0.0309306547272072  1.0000
  C   C1        1.0  0.5295325690457559  0.7381597083490374  0.5141095162733577  1.0000
  C   C2        1.0  0.5079743157891627  0.5217584900894678  0.356630173645513  1.0000
  C   C3        1.0  0.4694022119560016  0.26504464927869253  0.4994514472979503  1.0000
  C   C4        1.0  0.5094847004184616  0.4949202477255029  0.6484514115779803  1.0000
  C   C5        1.0  0.6091026319543005  0.6085443779318497  0.8479606675519803  1.0000
  C   C6        1.0  0.6150891542461848  0.5793711826621504  0.7721310807437617  1.0000
  C   C7        1.0  0.5082836876652835  0.5131018206934429  0.7323526423682053  1.0000
  C   C8        1.0  0.39403163705694066  0.47374596423842524  0.7743191851310485  1.0000
  C   C9        1.0  0.3819089916210103  0.5024946718425197  0.8494232067949878  1.0000
  C   C10       1.0  0.4909406037942503  0.5709014025005247  0.8875138854920692  1.0000
  C   C11       1.0  0.48269459547568516  0.5934408141468168  0.9655267686575187  1.0000
  C   C12       1.0  0.47083057644052667  0.6006823753386642  0.0337783526681932  1.0000
  C   C13       1.0  0.5958602539993194  0.6200848142480595  0.1536302145241564  1.0000
  C   C14       1.0  0.6135394144749213  0.5928857411752873  0.23054851525077416  1.0000
  C   C15       1.0  0.500132000505566  0.5438800657674604  0.27226350234180785  1.0000
  C   C16       1.0  0.37502945955657907  0.5218516190524767  0.23147042347959262  1.0000
  C   C17       1.0  0.3561368050889229  0.545117185473444  0.1536690442842641  1.0000
  C   C18       1.0  0.4711488393065437  0.5940175189193938  0.11363492681645938  1.0000
  C   C19       1.0  0.5904792942660961  0.9537079738480828  0.46272812671001157  1.0000
  C   C20       1.0  0.5279214798690006  0.8748991713740182  0.5169205020675064  1.0000
  C   C21       1.0  0.44815722042880424  0.9334672724509969  0.5674651753621589  1.0000
  C   C22       1.0  0.42137992535007374  0.055606580500644015  0.5607829029812592  1.0000
  C   C23       1.0  0.47885750531553134  0.13041638863074206  0.5032089440261416  1.0000
  C   C24       1.0  0.5631066867681511  0.07562917212869992  0.45533484643365085  1.0000
  C   C25       1.0  0.6586346556380605  0.10403445305910711  0.3904695762099806  1.0000
  C   C26       1.0  0.7112389200333381  0.9737029512844162  0.4099765059522865  1.0000
  C   C27       1.0  0.0705861772286553  0.5935466493595599  0.4741333689045959  1.0000
  C   C28       1.0  0.07067049574821033  0.4059373052661997  0.5275986622072181  1.0000
  C   C29       1.0  0.9289327214497688  0.39880292702986964  0.5328611917165134  1.0000
  C   C30       1.0  0.9292496032350783  0.5839850081804201  0.4782089324151144  1.0000
  C   C31       1.0  0.9083759535448905  0.705056612768722  0.442970537425218  1.0000
  C   C32       1.0  0.0687474298104434  0.7246433230316711  0.43905471160806536  1.0000
  C   C33       1.0  0.5497073385256214  0.20138251318437034  0.2808868568905822  1.0000
  C   C34       1.0  0.5526683517838009  0.17790511195955364  0.1959828463128304  1.0000
  C   C35       1.0  0.4832438162424992  0.2678653447104722  0.14458471645770737  1.0000
  C   C36       1.0  0.857089538010527  0.9185915487300919  0.3158854099003107  1.0000
  C   C37       1.0  0.8744154663220627  0.03135775556146571  0.2643570644070934  1.0000
  C   C38       1.0  0.0160887912757133  0.045695318063430114  0.2312509286626465  1.0000
  C   C39       1.0  0.2564897276693259  0.7798844959486432  0.3569816367476406  1.0000
  C   C40       1.0  0.2704539341761034  0.8132718875909362  0.2741251054348695  1.0000
  C   C41       1.0  0.41789550616733356  0.8519337082657755  0.2556048863609632  1.0000
  C   C42       1.0  0.8501691396544331  0.5678541421217461  0.22552482598605647  1.0000
  C   C43       1.0  0.8338220623011025  0.4292400423065885  0.2223797102209844  1.0000
  C   C44       1.0  0.9137114775845063  0.3782934301593956  0.15999474358457627  1.0000
  C   C45       1.0  0.1671654429620375  0.5796187963827465  0.06415332779614862  1.0000
  C   C46       1.0  0.12827001078831302  0.6983257337341302  0.0954313617909364  1.0000
  C   C47       1.0  0.029993741987013305  0.758762415015326  0.040912599873451  1.0000
  N   N1        1.0  0.1452732474231127  0.5046683629715504  0.4979481780385412  1.0000
  N   N2        1.0  0.8548326344268489  0.48971359036782763  0.5075040511431155  1.0000
  N   N3        1.0  0.7430452999144989  0.6235611593179654  0.7344047206583963  1.0000
  N   N4        1.0  0.11878059582975453  0.8205142014745949  0.501592969633208  1.0000
  N   N5        1.0  0.2828399086283255  0.39068761518601053  0.7396951677201642  1.0000
  N   N6        1.0  0.2522574886177864  0.459141304506062  0.26707312174981707  1.0000
  N   N7        1.0  0.4013253456364367  0.8680183406242961  0.6372839934558882  1.0000
  O   O1        1.0  0.6415626086467796  0.6912117872548437  0.5222734084121754  1.0000
  O   O2        1.0  0.41374343699825294  0.6828914162645104  0.49680280276148636  1.0000
  O   O3        1.0  0.622774344547487  0.5352240969820059  0.3913390886418711  1.0000
  O   O4        1.0  0.393644433227216  0.4931406091041595  0.3869084381354426  1.0000
  O   O5        1.0  0.5834966459470365  0.3260539685250521  0.48811253342528  1.0000
  O   O6        1.0  0.3563373297645001  0.3080412090647542  0.5080724632974523  1.0000
  O   O7        1.0  0.6230472693513036  0.47891715227204673  0.6208848164146374  1.0000
  O   O8        1.0  0.39600404294008473  0.50171333919581  0.6134847605644538  1.0000
  O   O9        1.0  0.5979918809755488  0.09546163585260813  0.31706998242364637  1.0000
  O   O10       1.0  0.726646930758001  0.8953586408844602  0.3503707969208278  1.0000
  O   O11       1.0  0.11061548358981813  0.7586979851823019  0.3693532521057605  1.0000
  O   O12       1.0  0.7407955928257479  0.7138153443604836  0.6924251248673272  1.0000
  O   O13       1.0  0.8430044723785884  0.5677140938034385  0.751511798883655  1.0000
  O   O14       1.0  0.1333722190797317  0.9279392670284993  0.48066552501946797  1.0000
  O   O15       1.0  0.1321570445310059  0.780949423196809  0.566852882181891  1.0000
  O   O16       1.0  0.316812002917068  0.2983208095545038  0.7097821956362722  1.0000
  O   O17       1.0  0.1650451334473857  0.41737901234313324  0.7461200149005193  1.0000
  O   O18       1.0  0.7396412755289391  0.613586037164531  0.26520442274402  1.0000
  O   O19       1.0  0.16224683640953688  0.5222705172134212  0.2852876325578819  1.0000
  O   O20       1.0  0.2446618648213743  0.34698374108594987  0.2701584892474357  1.0000
  O   O21       1.0  0.23324946993702156  0.5055016620359681  0.1210021860543691  1.0000
  O   O22       1.0  0.3304032141385561  0.9202116391170704  0.6801978613247427  1.0000
  O   O23       1.0  0.44163748269147624  0.7662074624650403  0.650066914625441  1.0000
