data_image0
_chemical_formula_structural       La2H20C22N2O14
_chemical_formula_sum              "La2 H20 C22 N2 O14"
_cell_length_a       7.849863965736441
_cell_length_b       8.18327259257489
_cell_length_c       10.156662030799948
_cell_angle_alpha    82.03072911805843
_cell_angle_beta     84.2941938761789
_cell_angle_gamma    70.6458839653566

_space_group_name_H-M_alt    "P 1"
_space_group_IT_number       1

loop_
  _space_group_symop_operation_xyz
  'x, y, z'

loop_
  _atom_site_type_symbol
  _atom_site_label
  _atom_site_symmetry_multiplicity
  _atom_site_fract_x
  _atom_site_fract_y
  _atom_site_fract_z
  _atom_site_occupancy
  La  La1       1.0  0.22915618737253848  0.08984357866335557  0.5354515047906998  1.0000
  La  La2       1.0  0.7708454897600487  0.9101558372026374  0.4645466962636958  1.0000
  H   H1        1.0  0.8650377674751868  0.08300363066670259  0.8470442843593062  1.0000
  H   H2        1.0  0.1349634600409217  0.9169970845570035  0.15295577677218117  1.0000
  H   H3        1.0  0.9102277548307642  0.18524614356334718  0.051090950020238765  1.0000
  H   H4        1.0  0.08977219154326113  0.8147545744276243  0.9489092024069519  1.0000
  H   H5        1.0  0.331287212434809  0.34027197708849843  0.1468343881127083  1.0000
  H   H6        1.0  0.6687123274105249  0.6597261387690662  0.8531650916900304  1.0000
  H   H7        1.0  0.29234325272845035  0.23651666486053807  0.940075637899355  1.0000
  H   H8        1.0  0.707659290811016  0.7634801440430223  0.059922784646211376  1.0000
  H   H9        1.0  0.3780157015461114  0.5363323465923456  0.24094373094033017  1.0000
  H   H10       1.0  0.621982548950612  0.4636657699707384  0.7590568255694521  1.0000
  H   H11       1.0  0.5317379392481812  0.5419235508061105  0.3536560396289943  1.0000
  H   H12       1.0  0.4682624403292762  0.4580758637036482  0.6463442235437853  1.0000
  H   H13       1.0  0.7869798564769828  0.5171523182817878  0.2735224754224248  1.0000
  H   H14       1.0  0.2130205231004752  0.482847096227978  0.7264777877503548  1.0000
  H   H15       1.0  0.8799674506885325  0.4189943814147695  0.12851020556033182  1.0000
  H   H16       1.0  0.12003122274992259  0.5810063414052208  0.8714890527512438  1.0000
  H   H17       1.0  0.8564409749367956  0.3935514221089634  0.5864280300411407  1.0000
  H   H18       1.0  0.14355940464066927  0.6064479924008025  0.4135722331316387  1.0000
  H   H19       1.0  0.836427782324435  0.20893409665867316  0.643076288361975  1.0000
  H   H20       1.0  0.16357344519167336  0.7910666185650329  0.3569237727695125  1.0000
  C   C1        1.0  0.5735880779533391  0.16311433704255757  0.8740453077013581  1.0000
  C   C2        1.0  0.426414032382688  0.8368837753422155  0.1259530040986192  1.0000
  C   C3        1.0  0.7476550341969317  0.1439625818509427  0.9109708305845385  1.0000
  C   C4        1.0  0.2523432060380772  0.8560394444502676  0.08902831698144807  1.0000
  C   C5        1.0  0.7729453013655601  0.20309008589705968  0.02650673732907898  1.0000
  C   C6        1.0  0.22705464500845818  0.796910632093919  0.9734934150981188  1.0000
  C   C7        1.0  0.6226724060342974  0.2874941219975257  0.11003610314737236  1.0000
  C   C8        1.0  0.3773271071362815  0.7125078994746659  0.8899639385342437  1.0000
  C   C9        1.0  0.44927653404270973  0.2894798021889001  0.08032849010180601  1.0000
  C   C10       1.0  0.5507238455347548  0.7105196123208656  0.9196717730709734  1.0000
  C   C11       1.0  0.42679015588780095  0.2300593066298902  0.9641848394332015  1.0000
  C   C12       1.0  0.5732102401026964  0.7699401120033684  0.035813452916905  1.0000
  C   C13       1.0  0.5441202386741965  0.12558062627323346  0.7417931597752129  1.0000
  C   C14       1.0  0.45587587248008543  0.8744201020812948  0.2582062811277765  1.0000
  C   C15       1.0  0.49280401810334257  0.4538143961069423  0.2996491730391568  1.0000
  C   C16       1.0  0.5071950803320322  0.5461850211700892  0.7003511814293333  1.0000
  C   C17       1.0  0.42127162728603207  0.33685459885796115  0.4037453999600871  1.0000
  C   C18       1.0  0.5787274711493424  0.66314481841907  0.5962549545083959  1.0000
  C   C19       1.0  0.8141676172288329  0.39659175339289016  0.22706848712385147  1.0000
  C   C20       1.0  0.18583276234862472  0.6034076611168685  0.772931776048928  1.0000
  C   C21       1.0  0.9525302240702587  0.255675356950931  0.31140672947024944  1.0000
  C   C22       1.0  0.04747355752350297  0.7443253506764903  0.6885941344811498  1.0000
  N   N1        1.0  0.6451175530585543  0.3677892163896033  0.21443105221581496  1.0000
  N   N2        1.0  0.35488238510895087  0.6322114995396292  0.7855700856227158  1.0000
  O   O1        1.0  0.6796740636524633  0.09324908909236025  0.6548381796213574  1.0000
  O   O2        1.0  0.32032505940247086  0.9067503343699171  0.34515921861312643  1.0000
  O   O3        1.0  0.3850760055710866  0.1346818522002948  0.7154668081816098  1.0000
  O   O4        1.0  0.6149239408029319  0.8653188657906836  0.2845333442455882  1.0000
  O   O5        1.0  0.2855635789268903  0.40787287468710787  0.47934034497147593  1.0000
  O   O6        1.0  0.7144363756536551  0.592127845365617  0.520658822044389  1.0000
  O   O7        1.0  0.4941263306129072  0.17126153770554708  0.4107016107922873  1.0000
  O   O8        1.0  0.5058753301066404  0.8287378740369459  0.5892985610847816  1.0000
  O   O9        1.0  0.9167745572982968  0.120037085855266  0.36850466376287017  1.0000
  O   O10       1.0  0.08322754483121025  0.879961024467768  0.6314946334484475  1.0000
  O   O11       1.0  0.09733799910131324  0.2844850236644802  0.3257433943764809  1.0000
  O   O12       1.0  0.9026606743371418  0.7155156991555175  0.6742558639350875  1.0000
  O   O13       1.0  0.925867477459846  0.27326446443657904  0.6250559777391231  1.0000
  O   O14       1.0  0.0741324607076522  0.7267362514926459  0.37494516009940776  1.0000
