data_image0
_chemical_formula_structural       Co2H30C22N2O18
_chemical_formula_sum              "Co2 H30 C22 N2 O18"
_cell_length_a       6.993734103746077
_cell_length_b       10.369777926472374
_cell_length_c       10.500771341456092
_cell_angle_alpha    110.51199171298808
_cell_angle_beta     102.03207058534805
_cell_angle_gamma    91.11101834035696

_space_group_name_H-M_alt    "P 1"
_space_group_IT_number       1

loop_
  _space_group_symop_operation_xyz
  'x, y, z'

loop_
  _atom_site_type_symbol
  _atom_site_label
  _atom_site_symmetry_multiplicity
  _atom_site_fract_x
  _atom_site_fract_y
  _atom_site_fract_z
  _atom_site_occupancy
  Co  Co1       1.0  0.49999587530171385  1.8617451760045632e-07  0.5000003561443762  1.0000
  Co  Co2       1.0  0.5000065954828443  0.4999997204434267  2.4781635161386407e-06  1.0000
  H   H1        1.0  0.6583947915578889  0.6776337976856086  0.5835382705764969  1.0000
  H   H2        1.0  0.34160125938119995  0.322370794855118  0.416460771011728  1.0000
  H   H3        1.0  0.8254126761878593  0.15894490554322974  0.5000833090756343  1.0000
  H   H4        1.0  0.1745784887631885  0.8410565666633546  0.4999177466195871  1.0000
  H   H5        1.0  0.765670302251003  0.18649330801801514  0.652587468018069  1.0000
  H   H6        1.0  0.23432300051936036  0.8135029725808424  0.3474130158894083  1.0000
  H   H7        1.0  0.20128090510948474  0.16266387236147045  0.5320213132435967  1.0000
  H   H8        1.0  0.7987061585035419  0.8373396614054304  0.4679827413232046  1.0000
  H   H9        1.0  0.33906204899003706  0.19761202724092197  0.6897515393947058  1.0000
  H   H10       1.0  0.6609348243481745  0.8023884058332414  0.31024805890474727  1.0000
  H   H11       1.0  0.2152617846408234  0.659731265451221  0.08586420524905945  1.0000
  H   H12       1.0  0.7847489163940936  0.3402639371621632  0.9141364731700035  1.0000
  H   H13       1.0  0.1549736897783305  0.5012912461147893  0.06094743714971432  1.0000
  H   H14       1.0  0.844956203820942  0.4986984161020305  0.9389893014651204  1.0000
  H   H15       1.0  0.402011975725472  0.15944752680367466  0.17075328982959795  1.0000
  H   H16       1.0  0.5979982137624872  0.8405445333270337  0.82925097052378  1.0000
  H   H17       1.0  0.17161485945406696  0.047549474066180215  0.7280351779533871  1.0000
  H   H18       1.0  0.8283952267468845  0.9524612460506675  0.2719727835928864  1.0000
  H   H19       1.0  0.0842282491996968  0.7602915334477276  0.9263015340749519  1.0000
  H   H20       1.0  0.9157635638498434  0.2397141009474241  0.07369822303540019  1.0000
  H   H21       1.0  0.5511074642847403  0.2739902479504437  0.5051872072865251  1.0000
  H   H22       1.0  0.44889114269388836  0.7260215913544387  0.49481379880535303  1.0000
  H   H23       1.0  0.6168884926242343  0.32893896128727823  0.31177374956406817  1.0000
  H   H24       1.0  0.3831096305962589  0.6710697582708396  0.6882279933759461  1.0000
  H   H25       1.0  0.7626793210181473  0.4368689992832986  0.47888212607063696  1.0000
  H   H26       1.0  0.23730389822664924  0.563137714272081  0.5211148820104157  1.0000
  H   H27       1.0  0.6115703151093966  0.493588455633578  0.6882523205532463  1.0000
  H   H28       1.0  0.3884254342404887  0.5064234464350151  0.31174163402737776  1.0000
  H   H29       1.0  0.3680007891085851  0.4199152718198819  0.6609862536061398  1.0000
  H   H30       1.0  0.6319986587950551  0.5800924231757068  0.3390134124728517  1.0000
  C   C1        1.0  0.25206628952266635  0.9552110668957425  0.06282429989692406  1.0000
  C   C2        1.0  0.7479417806718587  0.04478619999996171  0.9371786355200696  1.0000
  C   C3        1.0  0.32423287926776817  0.08500758458311712  0.07034698424683937  1.0000
  C   C4        1.0  0.6757834653137279  0.9149865258473898  0.9296588753108707  1.0000
  C   C5        1.0  0.2967313564486601  0.11957237644342913  0.9511521263162092  1.0000
  C   C6        1.0  0.7032859278602785  0.8804279507447109  0.04885510463141434  1.0000
  C   C7        1.0  0.19641902897008376  0.0224776924447241  0.8220575826281902  1.0000
  C   C8        1.0  0.8035870492195939  0.9775257933432334  0.17794725956394342  1.0000
  C   C9        1.0  0.12011504650666179  0.8934798551228057  0.8136943656429452  1.0000
  C   C10       1.0  0.8798896075001179  0.10652366583632764  0.18630647661252195  1.0000
  C   C11       1.0  0.14779383621165468  0.8601798410616155  0.9342346831765835  1.0000
  C   C12       1.0  0.8522107900062962  0.1398236571616138  0.06576900416506953  1.0000
  C   C13       1.0  0.28393438108794555  0.9240545752359568  0.19434103358192795  1.0000
  C   C14       1.0  0.7160571502929043  0.0759396404932033  0.8056584705864791  1.0000
  C   C15       1.0  0.3732163257214295  0.2593076296139146  0.9647433712854647  1.0000
  C   C16       1.0  0.6268136259414446  0.7406895341177704  0.03526645490605768  1.0000
  C   C17       1.0  0.9898534002795711  0.7980647381008339  0.6787770437110722  1.0000
  C   C18       1.0  0.010145197436116901  0.20194709362541372  0.3212249107428703  1.0000
  C   C19       1.0  0.613785141134535  0.41050279591044614  0.4113506338760472  1.0000
  C   C20       1.0  0.3862000145374509  0.5894976532808656  0.588650157602238  1.0000
  C   C21       1.0  0.4667571010077437  0.46465671355432664  0.6157044422593713  1.0000
  C   C22       1.0  0.5332393719388122  0.5353406679807834  0.38428735762967386  1.0000
  N   N1        1.0  0.4861448747682289  0.35656310917577383  0.4825359062421412  1.0000
  N   N2        1.0  0.5138494325701828  0.643439441231152  0.5174593105208273  1.0000
  O   O1        1.0  0.38469960569263145  0.015881303716796004  0.3049849511653804  1.0000
  O   O2        1.0  0.6152826559961468  0.9841098062481209  0.6950159476447622  1.0000
  O   O3        1.0  0.2069575748899126  0.808314275263534  0.18997760005884595  1.0000
  O   O4        1.0  0.7930293089467922  0.19167792320236293  0.8100157695833443  1.0000
  O   O5        1.0  0.4522563484916802  0.34916978422827344  0.08525330132464856  1.0000
  O   O6        1.0  0.5478032498721461  0.6508200713651676  0.9147534129360648  1.0000
  O   O7        1.0  0.36177297245319545  0.2948808579251576  0.8577281494470623  1.0000
  O   O8        1.0  0.6382307387362118  0.7051267239782748  0.1422844648039644  1.0000
  O   O9        1.0  0.9946273529608118  0.8214984539346663  0.5670297773048886  1.0000
  O   O10       1.0  0.005364239473401301  0.17851546422243564  0.43297286631968024  1.0000
  O   O11       1.0  0.8767645039412669  0.7039116618053642  0.6835236020133733  1.0000
  O   O12       1.0  0.12323480741083867  0.29609501348433304  0.31647378071616566  1.0000
  O   O13       1.0  0.7142495035926331  0.16689018707529615  0.5491194832989591  1.0000
  O   O14       1.0  0.2857449217714247  0.8331133678802591  0.4508799135375836  1.0000
  O   O15       1.0  0.3290949723085176  0.14798813991387758  0.5879511559306108  1.0000
  O   O16       1.0  0.6708966486118368  0.8520164293035682  0.4120520080026608  1.0000
  O   O17       1.0  0.22151142018388734  0.5593386432636508  0.024460857379118222  1.0000
  O   O18       1.0  0.7785191078665503  0.4406617160011594  0.9755387483436662  1.0000
