data_image0
_chemical_formula_structural       Cd4H32C60N16O20
_chemical_formula_sum              "Cd4 H32 C60 N16 O20"
_cell_length_a       11.955255099160116
_cell_length_b       12.960392864338482
_cell_length_c       13.042929498685425
_cell_angle_alpha    94.45505053309375
_cell_angle_beta     111.85374232539765
_cell_angle_gamma    110.45432568880751

_space_group_name_H-M_alt    "P 1"
_space_group_IT_number       1

loop_
  _space_group_symop_operation_xyz
  'x, y, z'

loop_
  _atom_site_type_symbol
  _atom_site_label
  _atom_site_symmetry_multiplicity
  _atom_site_fract_x
  _atom_site_fract_y
  _atom_site_fract_z
  _atom_site_occupancy
  Cd  Cd1       1.0  0.5242732552130036  0.322326522248467  0.32510812987219856  1.0000
  Cd  Cd2       1.0  0.4757268022901969  0.6776719711679106  0.6748900421508921  1.0000
  Cd  Cd3       1.0  0.8557572907628669  0.5465015258501181  0.5285060251814216  1.0000
  Cd  Cd4       1.0  0.14424367052516374  0.45349698022396007  0.4714947572342539  1.0000
  H   H1        1.0  0.73758974039864  0.6957522044828792  0.9095714941297359  1.0000
  H   H2        1.0  0.26241292725773496  0.3042479991975284  0.09042999577233961  1.0000
  H   H3        1.0  0.4477077985153244  0.5790684800525553  0.2935807222379268  1.0000
  H   H4        1.0  0.5522943694297879  0.4209325701750188  0.7064206581681561  1.0000
  H   H5        1.0  0.7448988077063916  0.6546100475084558  0.1655803059024237  1.0000
  H   H6        1.0  0.25510295678333245  0.34539014723215183  0.8344193407958826  1.0000
  H   H7        1.0  0.3667538421501604  0.655692705365851  0.9633056180348518  1.0000
  H   H8        1.0  0.6332466188084354  0.34430664353748586  0.03669428769600815  1.0000
  H   H9        1.0  0.9479819753502311  0.27339718301806215  0.6536661619669245  1.0000
  H   H10       1.0  0.052016279528757585  0.7266013148261122  0.3463329267815354  1.0000
  H   H11       1.0  0.809379323111152  0.9709975465724268  0.7693637176925421  1.0000
  H   H12       1.0  0.19061852831244863  0.02900009578477379  0.2306336373481486  1.0000
  H   H13       1.0  0.5429553313558841  0.12434278755356588  0.6071207473591329  1.0000
  H   H14       1.0  0.4570437298157017  0.875657417546634  0.3928810416160573  1.0000
  H   H15       1.0  0.267552840294762  0.9279753990678258  0.8601857107631687  1.0000
  H   H16       1.0  0.7324475231715935  0.07202564443383609  0.13981428480182959  1.0000
  H   H17       1.0  0.2082217923769605  0.08981209241054701  0.896922106933303  1.0000
  H   H18       1.0  0.7917785704712158  0.9101889473732212  0.10307712144287956  1.0000
  H   H19       1.0  0.879444276966403  0.959702542685413  0.5656054949758201  1.0000
  H   H20       1.0  0.12055909330851478  0.04030102567033819  0.4343911130989397  1.0000
  H   H21       1.0  0.9382272392461741  0.800263253588085  0.5277828389422012  1.0000
  H   H22       1.0  0.06177492498984801  0.19973777433207823  0.47221393833096675  1.0000
  H   H23       1.0  0.9535461596061339  0.4944481282675283  0.7646197844682094  1.0000
  H   H24       1.0  0.046457409362339976  0.5055520731989774  0.23538124707117447  1.0000
  H   H25       1.0  0.39012441968007766  0.8978664373963882  0.7060999113978497  1.0000
  H   H26       1.0  0.6098751387300467  0.10213290628504978  0.29389891831805676  1.0000
  H   H27       1.0  0.00685591186533722  0.7895550324670498  0.9872688767577389  1.0000
  H   H28       1.0  0.9931449513122744  0.21044516448745296  0.012731228303252464  1.0000
  H   H29       1.0  0.1428541533015348  0.4788551323956367  0.9170322064381722  1.0000
  H   H30       1.0  0.8571489165738626  0.5211459193359359  0.08296948279404154  1.0000
  H   H31       1.0  0.19685655132188623  0.7725074403833074  0.13969914818948576  1.0000
  H   H32       1.0  0.8031447140747546  0.22749360462236  0.8603011562016434  1.0000
  C   C1        1.0  0.5654624091242653  0.9519530629819996  0.7135866472529814  1.0000
  C   C2        1.0  0.43453584513654414  0.048045431144274196  0.2864116743066631  1.0000
  C   C3        1.0  0.14964696348270945  0.7641357560968344  0.671687289731466  1.0000
  C   C4        1.0  0.8503534980940657  0.23586359652440336  0.3283133831882098  1.0000
  C   C5        1.0  0.6047598356995465  0.6136266881521591  0.2390889464520214  1.0000
  C   C6        1.0  0.39524192940835684  0.3863735103063489  0.7609114674351004  1.0000
  C   C7        1.0  0.479232120397235  0.6010201758889976  0.2268413006262548  1.0000
  C   C8        1.0  0.5207696440924892  0.3989800188516098  0.7731583460720515  1.0000
  C   C9        1.0  0.6462973568486774  0.6435087331227719  0.15449694273681297  1.0000
  C   C10       1.0  0.3537040066583828  0.35649062100247136  0.8455040390089935  1.0000
  C   C11       1.0  0.6955480107496542  0.5921821491273532  0.34087962290008994  1.0000
  C   C12       1.0  0.3044529499201971  0.4078163532288243  0.6591203923267699  1.0000
  C   C13       1.0  0.5937661830002483  0.6724830741425264  0.9577518571856629  1.0000
  C   C14       1.0  0.40623558272584154  0.3275171280338752  0.0422493238902817  1.0000
  C   C15       1.0  0.5581506193258576  0.6550172061418706  0.05466675693259763  1.0000
  C   C16       1.0  0.44185064668896945  0.34498384258169756  0.9453343146473543  1.0000
  C   C17       1.0  0.4323875427658522  0.6446269628395171  0.04160800225550791  1.0000
  C   C18       1.0  0.5676142211056927  0.35537322818318984  0.958390877253983  1.0000
  C   C19       1.0  0.7184484508577851  0.2994944270240295  0.5674269613501791  1.0000
  C   C20       1.0  0.28155151100772713  0.7005057721443676  0.43257360207349654  1.0000
  C   C21       1.0  0.8682682773093687  0.20743051669023768  0.6630312259276393  1.0000
  C   C22       1.0  0.1317317820483766  0.7925679878798418  0.3369692476619051  1.0000
  C   C23       1.0  0.8914502442712617  0.12161576403207867  0.7136260051348772  1.0000
  C   C24       1.0  0.1085480106077269  0.8783827338120954  0.2863730836135828  1.0000
  C   C25       1.0  0.7917748713847528  0.0374583000809778  0.7283276929068947  1.0000
  C   C26       1.0  0.2082233834942357  0.9625401977631892  0.27167139584156524  1.0000
  C   C27       1.0  0.6668052933422146  0.03986342897862729  0.6913619315076431  1.0000
  C   C28       1.0  0.33319296091858763  0.9601350651476392  0.3086363900520013  1.0000
  C   C29       1.0  0.6405716782263937  0.12349690754370361  0.6372685122952788  1.0000
  C   C30       1.0  0.3594278814200891  0.8765024435735355  0.3627318517982658  1.0000
  C   C31       1.0  0.7420267522574805  0.20747951224027616  0.6238878137469828  1.0000
  C   C32       1.0  0.2579732083716735  0.7925206794923197  0.37611121529906205  1.0000
  C   C33       1.0  0.8517338410615379  0.6513529728239148  0.7790976503783043  1.0000
  C   C34       1.0  0.1482683256472086  0.34864806996785797  0.2209021956501402  1.0000
  C   C35       1.0  0.3949472948881266  0.620157584555855  0.1293008973878642  1.0000
  C   C36       1.0  0.6050557743690916  0.3798434634578172  0.8707000246555269  1.0000
  C   C37       1.0  0.18278949299347866  0.9354337895563772  0.7957953313957802  1.0000
  C   C38       1.0  0.8172117724031622  0.06456725544929039  0.20420497299535606  1.0000
  C   C39       1.0  0.150356056945796  0.025269254984124197  0.8170805941205402  1.0000
  C   C40       1.0  0.8496452078326655  0.9747317863036427  0.1829189430817735  1.0000
  C   C41       1.0  0.963215592948572  0.9516319867149007  0.6305786278603592  1.0000
  C   C42       1.0  0.036787376961861205  0.0483707447433943  0.36942008245072344  1.0000
  C   C43       1.0  0.9962029643126726  0.8616711461011802  0.609918206610871  1.0000
  C   C44       1.0  0.0037991042856547245  0.13833158757100958  0.3900809620628962  1.0000
  C   C45       1.0  0.10633839336076524  0.8527953789311337  0.6921697348904061  1.0000
  C   C46       1.0  0.893662469816853  0.14720481802336846  0.30783037017058495  1.0000
  C   C47       1.0  0.968052691209266  0.6440900679815369  0.8648952588649125  1.0000
  C   C48       1.0  0.031949476735846416  0.35591098224603707  0.1351061215411633  1.0000
  C   C49       1.0  0.18114796016364207  0.6260857039238771  0.03654600757719346  1.0000
  C   C50       1.0  0.8188538055624477  0.3739144982525317  0.9634551734987511  1.0000
  C   C51       1.0  0.008783377798337735  0.557915563043295  0.8453636487892099  1.0000
  C   C52       1.0  0.9912178869801237  0.442085478244472  0.1546358884131038  1.0000
  C   C53       1.0  0.0408247871074678  0.0333075146035782  0.7339501559225  1.0000
  C   C54       1.0  0.9591755751225222  0.9666935214622823  0.2660483052648672  1.0000
  C   C55       1.0  0.036988344620724166  0.7219360072327207  0.9713390765188806  1.0000
  C   C56       1.0  0.9630138220880298  0.2780650355590454  0.028660769509563973  1.0000
  C   C57       1.0  0.11488853388987512  0.5484627138826993  0.9309546976230934  1.0000
  C   C58       1.0  0.8851127315067658  0.45153833112296843  0.06904560676803587  1.0000
  C   C59       1.0  0.1434039433836958  0.7133085688871927  0.05664737390991798  1.0000
  C   C60       1.0  0.8565973226311314  0.28669247983637547  0.943353697670034  1.0000
  N   N1        1.0  0.2782716125185444  0.7844072809612183  0.7081785336480806  1.0000
  N   N2        1.0  0.7217279471279381  0.21559207015602055  0.2918218304454641  1.0000
  N   N3        1.0  0.2812868466203682  0.6855621733701652  0.675318222992253  1.0000
  N   N4        1.0  0.7187127130261146  0.31443717774707375  0.32468214110129173  1.0000
  N   N5        1.0  0.1608781172676927  0.6067639042863602  0.6207756225352979  1.0000
  N   N6        1.0  0.8391227459099183  0.3932362926681421  0.3792244825257001  1.0000
  N   N7        1.0  0.07586835673762254  0.6536718139001039  0.6168790706786852  1.0000
  N   N8        1.0  0.9241312035270468  0.3463275409350288  0.38312206060367526  1.0000
  N   N9        1.0  0.8097362675231139  0.6270505318047909  0.6647473881213699  1.0000
  N   N10       1.0  0.1902663995150817  0.37294966815771596  0.33525333459189  1.0000
  N   N11       1.0  0.699290544227644  0.644669321166532  0.6192064769044168  1.0000
  N   N12       1.0  0.3007117205915222  0.35533003074480957  0.38079404647870524  1.0000
  N   N13       1.0  0.6751176652129587  0.6784157171916049  0.7028714064598418  1.0000
  N   N14       1.0  0.3248836970577358  0.3215836294978373  0.2971280409083334  1.0000
  N   N15       1.0  0.7676920406936318  0.6840659973089129  0.803797028173264  1.0000
  N   N16       1.0  0.2323093221952419  0.31593335309842974  0.1962031863837268  1.0000
  O   O1        1.0  0.5873648758344528  0.8734883728687561  0.7545560091904662  1.0000
  O   O2        1.0  0.41263347282767876  0.12650840806968228  0.2454383865909477  1.0000
  O   O3        1.0  0.819004675096906  0.648270369547397  0.37990498828373376  1.0000
  O   O4        1.0  0.1809957852435034  0.3517289756380393  0.6200941502583035  1.0000
  O   O5        1.0  0.6454350071703844  0.5154968187200311  0.38783967196928154  1.0000
  O   O6        1.0  0.3545654531700251  0.4845025264654054  0.6121594665727558  1.0000
  O   O7        1.0  0.7188628406150386  0.6959979660707275  0.9821655805590765  1.0000
  O   O8        1.0  0.2811385216556559  0.3040013806187145  0.017833866809098688  1.0000
  O   O9        1.0  0.5084261040681569  0.6628302228597177  0.8622101212414535  1.0000
  O   O10       1.0  0.4915778665011672  0.33717082294005957  0.1377903424392599  1.0000
  O   O11       1.0  0.8223593093206532  0.3890448254548671  0.5928311452751629  1.0000
  O   O12       1.0  0.17764376240929647  0.6109562374304148  0.4071728455234975  1.0000
  O   O13       1.0  0.601035939659816  0.2807036551451532  0.4999890504444977  1.0000
  O   O14       1.0  0.3989667255238275  0.7192965336636521  0.5000093707023013  1.0000
  O   O15       1.0  0.2778139246764794  0.6145138273816995  0.1293962973464176  1.0000
  O   O16       1.0  0.7221891445807387  0.38548722063197244  0.8706046246969735  1.0000
  O   O17       1.0  0.019234989088111814  0.12850666275664926  0.7570287720531184  1.0000
  O   O18       1.0  0.9807649727774007  0.871493536411755  0.24297179137056454  1.0000
  O   O19       1.0  0.45410026037018986  0.9645804880075061  0.6891237072697649  1.0000
  O   O20       1.0  0.5458961906482216  0.035418006828656694  0.3108747638264333  1.0000
