data_image0
_chemical_formula_structural       Zr6H38C88Br10N4O40
_chemical_formula_sum              "Zr6 H38 C88 Br10 N4 O40"
_cell_length_a       19.15028679761176
_cell_length_b       19.095899565015312
_cell_length_c       19.18154044578287
_cell_angle_alpha    59.65694894464275
_cell_angle_beta     59.75765073588909
_cell_angle_gamma    60.200389681725035

_space_group_name_H-M_alt    "P 1"
_space_group_IT_number       1

loop_
  _space_group_symop_operation_xyz
  'x, y, z'

loop_
  _atom_site_type_symbol
  _atom_site_label
  _atom_site_symmetry_multiplicity
  _atom_site_fract_x
  _atom_site_fract_y
  _atom_site_fract_z
  _atom_site_occupancy
  Zr  Zr1       1.0  0.9040651059006632  0.41021226614665096  0.5880732170041301  1.0000
  Zr  Zr2       1.0  0.09771992356169783  0.5874600419041016  0.41071483458568997  1.0000
  Zr  Zr3       1.0  0.08905370005980721  0.40234600957019484  0.5958869927828447  1.0000
  Zr  Zr4       1.0  0.9127285403002074  0.5953255826897745  0.4029255921573808  1.0000
  Zr  Zr5       1.0  0.9088138880685218  0.5909466266643049  0.5914952240407559  1.0000
  Zr  Zr6       1.0  0.0928882435152757  0.40677405513127946  0.40741147401290334  1.0000
  H   H1        1.0  0.9210429915765058  0.4264024210101238  0.7181510538399112  1.0000
  H   H2        1.0  0.9344853520095596  0.7175706592176565  0.4268967332613657  1.0000
  H   H3        1.0  0.2187481329210496  0.4203454546749725  0.4329900161854568  1.0000
  H   H4        1.0  0.9278960984770986  0.43243371366700234  0.42096000024146474  1.0000
  H   H5        1.0  0.4858507776093786  0.5778365014545699  0.06880243472439673  1.0000
  H   H6        1.0  0.5599849053347582  0.3717009825247998  0.9705032185168464  1.0000
  H   H7        1.0  0.662469231658818  0.6222926550724422  0.7958130241904017  1.0000
  H   H8        1.0  0.5330311448142591  0.6277227394393987  0.9260152162577813  1.0000
  H   H9        1.0  0.2955217494777784  0.41954593047350386  0.16270504094398322  1.0000
  H   H10       1.0  0.41995883291346553  0.4186817844428532  0.02814960089461497  1.0000
  H   H11       1.0  0.09721523943269243  0.9704652346664132  0.3719800273046446  1.0000
  H   H12       1.0  0.8671096389703976  0.06836853311486374  0.5789132181727653  1.0000
  H   H13       1.0  0.12162427374855869  0.16266647124466252  0.4195562787505196  1.0000
  H   H14       1.0  0.13238258308102482  0.028379798855539186  0.41841503840154814  1.0000
  H   H15       1.0  0.9190067750600189  0.7955459713532845  0.6224856967772399  1.0000
  H   H16       1.0  0.9124418505346267  0.9258996055832966  0.6279110556478502  1.0000
  H   H17       1.0  0.44728684812880465  0.03775099022819698  0.3935117481177529  1.0000
  H   H18       1.0  0.5469833448915506  0.9520210490601996  0.613153626596919  1.0000
  H   H19       1.0  0.6818756816770133  0.8160132054841537  0.39485757964514817  1.0000
  H   H20       1.0  0.5521329629195005  0.9412059998326184  0.3907203063094331  1.0000
  H   H21       1.0  0.31445544032334255  0.17656267184540303  0.6089887351217842  1.0000
  H   H22       1.0  0.4448921338851191  0.05191308439650992  0.6126967331128128  1.0000
  H   H23       1.0  0.8880485559474491  0.6125683168021678  0.9524949924682531  1.0000
  H   H24       1.0  0.12175691547759009  0.39293555479562053  0.03821152269716065  1.0000
  H   H25       1.0  0.9003440050766186  0.6086711324267353  0.17679086313639653  1.0000
  H   H26       1.0  0.8911704950585669  0.6126044708245146  0.05185423350932439  1.0000
  H   H27       1.0  0.10794302989825146  0.394842245779337  0.8159267506469733  1.0000
  H   H28       1.0  0.11689061031633921  0.39091382845110445  0.9408701275833808  1.0000
  H   H29       1.0  0.12200066103236658  0.8219360629309944  0.17130023919231968  1.0000
  H   H30       1.0  0.8952498321986295  0.815767659311035  0.1858917933291195  1.0000
  H   H31       1.0  0.8849817595397412  0.17053210678049155  0.8223260587299921  1.0000
  H   H32       1.0  0.10300104837344985  0.1853894938636599  0.8164786469824252  1.0000
  H   H33       1.0  0.4549958594929392  0.38515720279018956  0.6184873756803598  1.0000
  H   H34       1.0  0.5413299709777133  0.6178511808643561  0.38576104487120244  1.0000
  H   H35       1.0  0.678877483086964  0.4078489642765601  0.6050134562818458  1.0000
  H   H36       1.0  0.5506782075724742  0.39668665513161716  0.6174266929177605  1.0000
  H   H37       1.0  0.3083695612210844  0.6044747565628014  0.4083297467692121  1.0000
  H   H38       1.0  0.4353434254257209  0.6168252812814571  0.3972304119799049  1.0000
  C   C1        1.0  0.7598669324787504  0.5008562818721315  0.728216400017651  1.0000
  C   C2        1.0  0.011090837070760425  0.7277415262676782  0.5012164533235078  1.0000
  C   C3        1.0  0.23867170061144785  0.4997616396298099  0.2673580768228235  1.0000
  C   C4        1.0  0.9939791430147692  0.2668901252388023  0.5004568940846356  1.0000
  C   C5        1.0  0.9945777235911631  0.26055474827842307  0.7333262754785254  1.0000
  C   C6        1.0  0.763132405254069  0.5142935612836863  0.4907009641820396  1.0000
  C   C7        1.0  0.011573260201131858  0.7327450178176491  0.2611190401733055  1.0000
  C   C8        1.0  0.23195905825065904  0.49017846575702617  0.514715952943405  1.0000
  C   C9        1.0  0.9964508783475379  0.49972773822080513  0.7357075534411168  1.0000
  C   C10       1.0  0.22740824556452569  0.25643077167026707  0.5044749561289238  1.0000
  C   C11       1.0  0.01168911964550975  0.5038280734492062  0.2570506438564665  1.0000
  C   C12       1.0  0.7682347378077308  0.7352720708072765  0.500234748869069  1.0000
  C   C13       1.0  0.31767709696103447  0.5009053799091348  0.19016680450888399  1.0000
  C   C14       1.0  0.6828109358475198  0.49669340760657826  0.8073179007189213  1.0000
  C   C15       1.0  0.3724998321908542  0.545873764635651  0.16209825538837921  1.0000
  C   C16       1.0  0.4434780051899309  0.5444257247919494  0.08742183007940701  1.0000
  C   C17       1.0  0.6515697662628454  0.42657599053226364  0.8572344339240348  1.0000
  C   C18       1.0  0.5804820160722244  0.4281313380147933  0.9317953186997489  1.0000
  C   C19       1.0  0.6385124179311671  0.5680012266745037  0.8349390876749613  1.0000
  C   C20       1.0  0.5668261227830838  0.570346519013327  0.9081785526054775  1.0000
  C   C21       1.0  0.33799298708665754  0.4543076943304171  0.140687059059367  1.0000
  C   C22       1.0  0.40797784520790975  0.45350657027645247  0.06592459103580951  1.0000
  C   C23       1.0  0.46193128062297706  0.49918907966674897  0.037780931573678324  1.0000
  C   C24       1.0  0.5368970965884684  0.4996257054666061  0.9584505217557577  1.0000
  C   C25       1.0  0.012935406895224029  0.8070287283614661  0.49695651142997127  1.0000
  C   C26       1.0  0.9908965457388063  0.18979941291340896  0.5015532411035866  1.0000
  C   C27       1.0  0.06425722745240123  0.8570700799725158  0.42684197978267946  1.0000
  C   C28       1.0  0.058973337027829496  0.9317558670003192  0.42838207817035123  1.0000
  C   C29       1.0  0.9192254039316475  0.16162258707340268  0.5468024556647607  1.0000
  C   C30       1.0  0.9242417095387836  0.08707969057439843  0.5451885801161256  1.0000
  C   C31       1.0  0.06645109744057004  0.14055470458895059  0.45454578464614315  1.0000
  C   C32       1.0  0.0718960901702914  0.06592631936300815  0.4535970242082287  1.0000
  C   C33       1.0  0.9581004528510703  0.8347154733135579  0.5682136076285147  1.0000
  C   C34       1.0  0.9539634333033931  0.9080763626164622  0.5705363181995154  1.0000
  C   C35       1.0  0.004294422768637639  0.9584165170309545  0.4998582248720071  1.0000
  C   C36       1.0  0.0004640843834805929  0.03765427252788097  0.49953340202236524  1.0000
  C   C37       1.0  0.30545166411705793  0.17868471820288062  0.5012462931909313  1.0000
  C   C38       1.0  0.6892653046531192  0.8119006087117381  0.5045701575065138  1.0000
  C   C39       1.0  0.345195188565576  0.13739790611568017  0.440638284492458  1.0000
  C   C40       1.0  0.41956252945901445  0.06667672000321548  0.44196715005005427  1.0000
  C   C41       1.0  0.6490331855362328  0.8524324696563425  0.5659182552416483  1.0000
  C   C42       1.0  0.5750287740997417  0.9235427311746988  0.5642686895083175  1.0000
  C   C43       1.0  0.6512591420866514  0.8469836452821224  0.44243289460498414  1.0000
  C   C44       1.0  0.5777063187001087  0.9176843444582943  0.44079441816792564  1.0000
  C   C45       1.0  0.34445059441169684  0.14465980132819567  0.5623159364151179  1.0000
  C   C46       1.0  0.41835911092923056  0.07433462097288401  0.5636914026575184  1.0000
  C   C47       1.0  0.4581573856831723  0.03329214788394807  0.502959622758965  1.0000
  C   C48       1.0  0.5373050152690835  0.9579027859907466  0.5023107868863479  1.0000
  C   C49       1.0  0.9946253557584303  0.5041884477645623  0.8121876511218888  1.0000
  C   C50       1.0  0.014764694760074757  0.5006842621202877  0.1791819945797428  1.0000
  C   C51       1.0  0.9328527875570455  0.5653875999555706  0.8528790206116099  1.0000
  C   C52       1.0  0.9374868139033766  0.5638190721380311  0.9238931138617661  1.0000
  C   C53       1.0  0.07694322151220943  0.4400638759983195  0.1379075796176964  1.0000
  C   C54       1.0  0.07212375377632438  0.44144902722519674  0.067074105632166  1.0000
  C   C55       1.0  0.9488908493223318  0.5619232236968654  0.14496402152354193  1.0000
  C   C56       1.0  0.9441289857334635  0.5634237890627884  0.07447466243529273  1.0000
  C   C57       1.0  0.059947072985742735  0.44231887329492986  0.8469915437973371  1.0000
  C   C58       1.0  0.06455839754107719  0.44077983493615136  0.9175787447200179  1.0000
  C   C59       1.0  0.00301484044805972  0.5020807065237847  0.9580310768591291  1.0000
  C   C60       1.0  0.006081466477851865  0.5026122877114574  0.03350197599241512  1.0000
  C   C61       1.0  0.07151288820401877  0.8514525584327544  0.14442774429651453  1.0000
  C   C62       1.0  0.0684695800124258  0.926256610552123  0.07190371617477351  1.0000
  C   C63       1.0  0.12895877584229237  0.9706885535072871  0.030256238149625976  1.0000
  C   C64       1.0  0.9427448505537797  0.8478908986614538  0.1522580948711436  1.0000
  C   C65       1.0  0.9372602753022006  0.9227242193443316  0.08047525405896046  1.0000
  C   C66       1.0  0.8706405788145302  0.9607528893190319  0.04538429399203628  1.0000
  C   C67       1.0  0.9327137304958839  0.14376290815691553  0.8519492765985961  1.0000
  C   C68       1.0  0.9334513889098303  0.07125126898522861  0.9267684143379216  1.0000
  C   C69       1.0  0.870213830416759  0.029579334422557096  0.9711484569008066  1.0000
  C   C70       1.0  0.057039932753539635  0.15174103890007729  0.8485707246313796  1.0000
  C   C71       1.0  0.059451430078951255  0.07996435210294794  0.9234046468353014  1.0000
  C   C72       1.0  0.12310939343333846  0.044920267297633945  0.9614340904264015  1.0000
  C   C73       1.0  0.009358147843478454  0.8126864076934196  0.18340218795449914  1.0000
  C   C74       1.0  0.001203173969486156  0.9628296143795082  0.03804719194432242  1.0000
  C   C75       1.0  0.9945615559036083  0.18282058211734373  0.813285146679178  1.0000
  C   C76       1.0  0.9979104921009065  0.03744486747994088  0.9634403018893566  1.0000
  C   C77       1.0  0.30852971718249467  0.48987149800769453  0.5177919046690745  1.0000
  C   C78       1.0  0.6837990985043944  0.517318977776199  0.4904233938474151  1.0000
  C   C79       1.0  0.35154973572258513  0.4286471961597372  0.5771690459918517  1.0000
  C   C80       1.0  0.4241247418436912  0.4346767991531378  0.57130964276152  1.0000
  C   C81       1.0  0.6426134455970351  0.5766217593203179  0.4291922121547885  1.0000
  C   C82       1.0  0.5698779994680975  0.5707099772858298  0.43526386471829437  1.0000
  C   C83       1.0  0.6473956683648435  0.453515984596329  0.5574266582265038  1.0000
  C   C84       1.0  0.5751056937519152  0.4477343085444898  0.5637305843211848  1.0000
  C   C85       1.0  0.34176550277645373  0.5568639613626302  0.45400131775922864  1.0000
  C   C86       1.0  0.4135184080266256  0.5631532184525552  0.44826816655846363  1.0000
  C   C87       1.0  0.45704108791388603  0.5015707702644575  0.507062080630611  1.0000
  C   C88       1.0  0.5343388588201491  0.5064670292864547  0.5021673748463658  1.0000
  Br  Br1       1.0  0.36016987547584023  0.6082461781963177  0.22218481343037416  1.0000
  Br  Br2       1.0  0.7007907275245772  0.32297791872366555  0.8330804732408197  1.0000
  Br  Br3       1.0  0.1430452895696772  0.8328774462442112  0.3233101100433374  1.0000
  Br  Br4       1.0  0.809353638679802  0.22126741610678372  0.6099128116230119  1.0000
  Br  Br5       1.0  0.3051467659032027  0.17021606301762646  0.35171285157964866  1.0000
  Br  Br6       1.0  0.6882176762274029  0.818512182989039  0.6558980902544463  1.0000
  Br  Br7       1.0  0.8371543633213319  0.6548492369579076  0.8194834200941656  1.0000
  Br  Br8       1.0  0.17308553491033507  0.35113758543959517  0.1707682643179852  1.0000
  Br  Br9       1.0  0.3179544102637449  0.33304397586195467  0.6699720402801574  1.0000
  Br  Br10      1.0  0.6790619821592682  0.6693163346428717  0.3334833220546828  1.0000
  N   N1        1.0  0.18465122895878489  0.09060715096273235  0.923022711040588  1.0000
  N   N2        1.0  0.19741636789915845  0.9361771288703907  0.06543793810578791  1.0000
  N   N3        1.0  0.8010659652384716  0.06491585397478145  0.936606885840952  1.0000
  N   N4        1.0  0.8016592810823436  0.9225533154159109  0.09108741406005542  1.0000
  O   O1        1.0  0.7907363909991642  0.44436538927613606  0.6941437128430865  1.0000
  O   O2        1.0  0.0708445609250035  0.6936457240236464  0.444770290251519  1.0000
  O   O3        1.0  0.20669369630742532  0.5582089822600693  0.29932896345964377  1.0000
  O   O4        1.0  0.9355935574769205  0.2988879756957059  0.5588996836558026  1.0000
  O   O5        1.0  0.054554559828886684  0.290358701841285  0.7038655749585916  1.0000
  O   O6        1.0  0.7981573974950538  0.5711978651375912  0.43150498555746  1.0000
  O   O7        1.0  0.9512837619499023  0.7032424903964409  0.2909165290645037  1.0000
  O   O8        1.0  0.19919840024931526  0.43101339360098484  0.5716309703507109  1.0000
  O   O9        1.0  0.9397311066833253  0.5586482383343138  0.7017318963697576  1.0000
  O   O10       1.0  0.19641932716595523  0.2910451337197698  0.44487242905016444  1.0000
  O   O11       1.0  0.06754239511989346  0.44411345520192924  0.29177152140766793  1.0000
  O   O12       1.0  0.7999776541366828  0.7012435235472053  0.5591877911750416  1.0000
  O   O13       1.0  0.1979463864617869  0.284294977910207  0.5654329174890977  1.0000
  O   O14       1.0  0.9523893013773304  0.5648313072910439  0.2848565496470103  1.0000
  O   O15       1.0  0.7992552590266655  0.7090759241140174  0.4377448698455452  1.0000
  O   O16       1.0  0.05403351228284217  0.43716992667010157  0.7095749005619114  1.0000
  O   O17       1.0  0.9359978867256586  0.2905789663358431  0.7029962289050221  1.0000
  O   O18       1.0  0.20491417886231728  0.5501946548632545  0.45327906385011824  1.0000
  O   O19       1.0  0.0704524455888203  0.7024258498319682  0.2911369760000754  1.0000
  O   O20       1.0  0.7915660807985173  0.4528801751773058  0.5507486138307061  1.0000
  O   O21       1.0  0.05530464693423202  0.2953081277535147  0.44138513960852793  1.0000
  O   O22       1.0  0.7904778886191297  0.5597819432409494  0.7004523523799623  1.0000
  O   O23       1.0  0.9494001953791624  0.6998764994921554  0.560225407782639  1.0000
  O   O24       1.0  0.20796175929743999  0.4407039518317006  0.2958297922474316  1.0000
  O   O25       1.0  0.9486051834926239  0.45166004101977086  0.44293585006099084  1.0000
  O   O26       1.0  0.1568383073619444  0.4423286695254518  0.452187509172042  1.0000
  O   O27       1.0  0.9542700757026382  0.6554420902884883  0.4461973560227792  1.0000
  O   O28       1.0  0.9440964321943707  0.4456629859352858  0.6560233724845904  1.0000
  O   O29       1.0  0.03920057887793839  0.5335032889417305  0.5409672294495992  1.0000
  O   O30       1.0  0.8863651583290135  0.5404242817688284  0.5340854891908934  1.0000
  O   O31       1.0  0.042455096638888995  0.5377948569204918  0.3844843267661347  1.0000
  O   O32       1.0  0.035250935033957154  0.38392307290996547  0.5384062914700963  1.0000
  O   O33       1.0  0.15403365787098955  0.1656673241977416  0.9207280753102868  1.0000
  O   O34       1.0  0.2612246842543512  0.050708310818982964  0.8951934407266507  1.0000
  O   O35       1.0  0.2473632267457687  0.8631753880134027  0.06629697773233525  1.0000
  O   O36       1.0  0.19799889200490356  0.9825954249914447  0.0922535941065873  1.0000
  O   O37       1.0  0.823212507981715  0.06539585672515365  0.8637783594516438  1.0000
  O   O38       1.0  0.727317255263905  0.09228574443365985  0.9827935693016274  1.0000
  O   O39       1.0  0.759832978160993  0.919911199038587  0.16628488919078427  1.0000
  O   O40       1.0  0.7922764276367146  0.8953148480885458  0.0510543010554657  1.0000
