data_image0
_chemical_formula_structural       Al4H40C76O28
_chemical_formula_sum              "Al4 H40 C76 O28"
_cell_length_a       6.6580187364326004
_cell_length_b       21.444772396647824
_cell_length_c       25.553707797572653
_cell_angle_alpha    95.80721688511034
_cell_angle_beta     89.9552190720992
_cell_angle_gamma    89.98650368204153

_space_group_name_H-M_alt    "P 1"
_space_group_IT_number       1

loop_
  _space_group_symop_operation_xyz
  'x, y, z'

loop_
  _atom_site_type_symbol
  _atom_site_label
  _atom_site_symmetry_multiplicity
  _atom_site_fract_x
  _atom_site_fract_y
  _atom_site_fract_z
  _atom_site_occupancy
  Al  Al1       1.0  0.21298214417174682  0.7480735172331447  0.748039597270605  1.0000
  Al  Al2       1.0  0.8016729584475328  0.24867152221496971  0.2484415766843711  1.0000
  Al  Al3       1.0  0.7129829200081303  0.7519952048135037  0.7519859553912696  1.0000
  Al  Al4       1.0  0.30169617294786377  0.2512773844886666  0.2514880380522726  1.0000
  H   H1        1.0  0.9462479533361404  0.6262670714450633  0.4108693289477614  1.0000
  H   H2        1.0  0.7683764128302143  0.38556211381640537  0.5772622353475114  1.0000
  H   H3        1.0  0.44835176443370983  0.8736681701385077  0.08910640351390953  1.0000
  H   H4        1.0  0.2663341785335192  0.11433389196294287  0.9229478329544137  1.0000
  H   H5        1.0  0.0715895390661103  0.6287169392655724  0.589977480033383  1.0000
  H   H6        1.0  0.0611720943487057  0.3690381190565971  0.41180885208534335  1.0000
  H   H7        1.0  0.5719329134277799  0.87137715647399  0.909833933959213  1.0000
  H   H8        1.0  0.5603599650461604  0.1309720328183204  0.08810030241315299  1.0000
  H   H9        1.0  0.7961456300749674  0.5480992965295569  0.7191891002047726  1.0000
  H   H10       1.0  0.0041846599191828005  0.4618665617555138  0.2710814517416651  1.0000
  H   H11       1.0  0.2944974429663744  0.9518748488696787  0.7809454774215752  1.0000
  H   H12       1.0  0.5060229381051045  0.038067272390364296  0.2288733873035369  1.0000
  H   H13       1.0  0.9822217722007024  0.5644073423143964  0.3253269852548187  1.0000
  H   H14       1.0  0.7597525365297598  0.4462985629159631  0.6634277407608024  1.0000
  H   H15       1.0  0.4837971284479464  0.9355663001781518  0.1746182458286896  1.0000
  H   H16       1.0  0.25762104016043  0.05364645591233599  0.8367880501462182  1.0000
  H   H17       1.0  0.701726331502769  0.9774794939449902  0.587726778046985  1.0000
  H   H18       1.0  0.30413334647702334  0.09804249892027167  0.46599733179813535  1.0000
  H   H19       1.0  0.201765065893504  0.5224963059164338  0.9123275234720438  1.0000
  H   H20       1.0  0.8043739052575702  0.4019263826870939  0.0339595895216931  1.0000
  H   H21       1.0  0.6837286701182491  0.9048748093433044  0.6581120282705939  1.0000
  H   H22       1.0  0.322072397112251  0.16605682235917382  0.3924453980905511  1.0000
  H   H23       1.0  0.1838450754012371  0.5951281335351196  0.8419757080319242  1.0000
  H   H24       1.0  0.8219574468539007  0.33388439751456633  0.10751118745341869  1.0000
  H   H25       1.0  0.261020925903054  0.8910662990555659  0.5336976923244094  1.0000
  H   H26       1.0  0.759132410167105  0.014671822073552186  0.3990677764524335  1.0000
  H   H27       1.0  0.7608166397111873  0.6088973481419656  0.966262003090428  1.0000
  H   H28       1.0  0.25921565810985203  0.4854048772217679  0.1010200707412281  1.0000
  H   H29       1.0  0.8778579583762891  0.6442245900612702  0.5446196990950511  1.0000
  H   H30       1.0  0.8288833691784845  0.3683939037318637  0.44285721901079006  1.0000
  H   H31       1.0  0.3790404399080601  0.8557132145264954  0.9554220874726057  1.0000
  H   H32       1.0  0.3277070056798976  0.1314920385170524  0.0572960568465746  1.0000
  H   H33       1.0  0.21867460896449134  0.7572749657088806  0.6095131629479197  1.0000
  H   H34       1.0  0.7932547080153541  0.08830161852981178  0.275124032218848  1.0000
  H   H35       1.0  0.7183030228524458  0.7426904436355597  0.8903383296994747  1.0000
  H   H36       1.0  0.2932064444398534  0.4122239203650436  0.22505996467019432  1.0000
  H   H37       1.0  0.47563431032478576  0.7309379432473901  0.6811747892614051  1.0000
  H   H38       1.0  0.5600247136256726  0.2873412544912597  0.313257785233084  1.0000
  H   H39       1.0  0.9751761774939284  0.7684120029880928  0.8189753981730589  1.0000
  H   H40       1.0  0.0606076457854812  0.21258729744506866  0.18669223977322963  1.0000
  C   C1        1.0  0.4584219420103182  0.6804835150223806  0.8192802410440833  1.0000
  C   C2        1.0  0.5513639787602357  0.3226832574346118  0.18304442800126708  1.0000
  C   C3        1.0  0.9582942559673738  0.8195396771996923  0.6807639451649762  1.0000
  C   C4        1.0  0.0518217274772113  0.17728764052006338  0.31691017099078067  1.0000
  C   C5        1.0  0.45692916265702616  0.8456217988950949  0.8091654762966911  1.0000
  C   C6        1.0  0.548014929066241  0.1524750382561351  0.192905913585065  1.0000
  C   C7        1.0  0.9576213410681547  0.6544420731380498  0.6907891148937395  1.0000
  C   C8        1.0  0.046977733317845605  0.3474989726544989  0.30698859779549537  1.0000
  C   C9        1.0  0.029660496866341597  0.4093353907679357  0.33943957654693685  1.0000
  C   C10       1.0  0.9343277630854203  0.5942300652320964  0.6566733985227984  1.0000
  C   C11       1.0  0.5304238279448228  0.09062490614518029  0.1604938864207952  1.0000
  C   C12       1.0  0.4337148698146791  0.9058138764316791  0.8433112244165456  1.0000
  C   C13       1.0  0.9905065727348729  0.5210880842657417  0.3442445794653181  1.0000
  C   C14       1.0  0.8188154267318808  0.4874891310784049  0.6468517730627  1.0000
  C   C15       1.0  0.4919661493323916  0.9788914520948849  0.15571611431687415  1.0000
  C   C16       1.0  0.31717915600567176  0.012466192447838852  0.8532775783098073  1.0000
  C   C17       1.0  0.0063348716246239  0.46429112037020553  0.31398807512777427  1.0000
  C   C18       1.0  0.842330884114446  0.5432119560094222  0.6780401141293737  1.0000
  C   C19       1.0  0.507905440377357  0.035661745694312685  0.18597491528685586  1.0000
  C   C20       1.0  0.34100951078931974  0.9567763069934255  0.8220447421610046  1.0000
  C   C21       1.0  0.023769325486277595  0.4116502422168863  0.3938818939378521  1.0000
  C   C22       1.0  0.9861032381721131  0.5902003965170053  0.6038120768045231  1.0000
  C   C23       1.0  0.5235724489824206  0.08833766080903158  0.1060592036489325  1.0000
  C   C24       1.0  0.4859568985107856  0.9098624966775757  0.8961243034653704  1.0000
  C   C25       1.0  0.984158422942663  0.46863573219855664  0.4256719698732071  1.0000
  C   C26       1.0  0.9366971597921108  0.5363832397434078  0.5690799585639894  1.0000
  C   C27       1.0  0.48422016901780296  0.031340618973032995  0.07429519175353509  1.0000
  C   C28       1.0  0.4361997559111188  0.9636104522314921  0.9309259135935193  1.0000
  C   C29       1.0  0.9806525703061266  0.5249394577142039  0.3998821796555845  1.0000
  C   C30       1.0  0.864907094852022  0.4825386137254738  0.5923966077420245  1.0000
  C   C31       1.0  0.48161593805980374  0.9750375355405934  0.1000811667146664  1.0000
  C   C32       1.0  0.36367364399978197  0.017425852675351905  0.9076991825729053  1.0000
  C   C33       1.0  0.9463117971571221  0.4731293214587992  0.4817345899807179  1.0000
  C   C34       1.0  0.9535262459711474  0.5326812448527746  0.5123354242453644  1.0000
  C   C35       1.0  0.44592095659094605  0.026838506974385692  0.018272955588152198  1.0000
  C   C36       1.0  0.45353400545430833  0.967301962382656  0.9876615561503143  1.0000
  C   C37       1.0  0.9523385887463006  0.5878332749105367  0.48421771344125375  1.0000
  C   C38       1.0  0.8755241493945576  0.42040199840778286  0.5075233031281242  1.0000
  C   C39       1.0  0.45325537044259784  0.9121419023674588  0.0157641525136896  1.0000
  C   C40       1.0  0.37434370962439806  0.07952216259014475  0.9925781035230158  1.0000
  C   C41       1.0  0.9600741346483873  0.5834555837739684  0.4302408685485872  1.0000
  C   C42       1.0  0.832636780494795  0.42579815135603366  0.5603815757974075  1.0000
  C   C43       1.0  0.46137440816822567  0.9165062627756694  0.0697329739166008  1.0000
  C   C44       1.0  0.33104171191973825  0.07411827298729179  0.9397593642852797  1.0000
  C   C45       1.0  0.8203162510418097  0.9432476252907943  0.5916895416994095  1.0000
  C   C46       1.0  0.18853812450356602  0.09514255986871227  0.4356780490037906  1.0000
  C   C47       1.0  0.32031778189063687  0.5567312413255863  0.9083690155802487  1.0000
  C   C48       1.0  0.688723074461251  0.4048622742431291  0.06431280032209229  1.0000
  C   C49       1.0  0.8097579042834938  0.9027434293865109  0.6307733856418878  1.0000
  C   C50       1.0  0.19895735986055743  0.13296293812761914  0.394685814476901  1.0000
  C   C51       1.0  0.30977673963247554  0.5972504615503096  0.8692937746304067  1.0000
  C   C52       1.0  0.6989451369386189  0.3670239043544043  0.105294917675522  1.0000
  C   C53       1.0  0.9619372011420567  0.8588201512281797  0.6359520641410654  1.0000
  C   C54       1.0  0.049179002983635194  0.13026936959962396  0.3561268315080852  1.0000
  C   C55       1.0  0.46188173288862794  0.641178205763964  0.8640823533440953  1.0000
  C   C56       1.0  0.5491312444128056  0.36977574534799357  0.14390521687762708  1.0000
  C   C57       1.0  0.12445077087782862  0.8542892188608842  0.600187484822996  1.0000
  C   C58       1.0  0.8909456137756634  0.08655692666160056  0.35760671913377706  1.0000
  C   C59       1.0  0.6243189984448919  0.6456902615599273  0.899802595218034  1.0000
  C   C60       1.0  0.39095083413764087  0.41354907658838164  0.1424878727138434  1.0000
  C   C61       1.0  0.13594725112321274  0.8954021381826889  0.561378368802984  1.0000
  C   C62       1.0  0.8807197870138737  0.04868346138857049  0.3988501373602062  1.0000
  C   C63       1.0  0.6358308800035247  0.6045734470390441  0.9386032562095964  1.0000
  C   C64       1.0  0.38086581533968206  0.4514044747877504  0.1012459842158151  1.0000
  C   C65       1.0  0.9849116742849019  0.9404828488651087  0.5566824271709122  1.0000
  C   C66       1.0  0.026968798961590306  0.05301776471397797  0.43878238387159024  1.0000
  C   C67       1.0  0.4849014875090917  0.5594744760336068  0.9433190474696859  1.0000
  C   C68       1.0  0.5271526305377776  0.447004910662727  0.0612491462168023  1.0000
  C   C69       1.0  0.99805661011694  0.9811288244232655  0.5163544378308416  1.0000
  C   C70       1.0  0.0127092948438658  0.014745380453966589  0.48077427757689145  1.0000
  C   C71       1.0  0.4980841807068828  0.518846375568067  0.9836609703564463  1.0000
  C   C72       1.0  0.5128751436694046  0.48524281197247615  0.019244007605372804  1.0000
  C   C73       1.0  0.2763083475304668  0.8030188101656816  0.598793681789047  1.0000
  C   C74       1.0  0.7439200473623445  0.07474435502565059  0.3138982829168384  1.0000
  C   C75       1.0  0.776003789720555  0.6969835306548828  0.901131417485864  1.0000
  C   C76       1.0  0.24372062139003964  0.42544427840260085  0.1862091833172599  1.0000
  O   O1        1.0  0.6316713430084917  0.8230405523620944  0.7997844286920853  1.0000
  O   O2        1.0  0.38218250061774484  0.1786359189791753  0.2066140809693664  1.0000
  O   O3        1.0  0.13245557803063693  0.6767302769241396  0.7004410442396106  1.0000
  O   O4        1.0  0.8810261505267433  0.3218847327122845  0.2927270448111372  1.0000
  O   O5        1.0  0.2891656903073994  0.6930029608008254  0.7998625954151422  1.0000
  O   O6        1.0  0.7210781182580206  0.30096304720869677  0.19517920183202617  1.0000
  O   O7        1.0  0.7890499407338253  0.8073647171130742  0.7004095369343447  1.0000
  O   O8        1.0  0.2219287620013901  0.19835434186199302  0.304339662759375  1.0000
  O   O9        1.0  0.29194763700297693  0.8212666510678729  0.7924668254102085  1.0000
  O   O10       1.0  0.7216045118876194  0.17439628370009785  0.20461773718307796  1.0000
  O   O11       1.0  0.7925364819240954  0.6790752784123696  0.7072120830328003  1.0000
  O   O12       1.0  0.22048780944479768  0.3250508831983935  0.2958330330450707  1.0000
  O   O13       1.0  0.12921798551653296  0.8011274540517661  0.6958043148296156  1.0000
  O   O14       1.0  0.8810337714244058  0.1943048224855274  0.3007083686244201  1.0000
  O   O15       1.0  0.6295445656443946  0.6985499715733067  0.8040293246083364  1.0000
  O   O16       1.0  0.3804641954145609  0.3062463842074336  0.1996512189242026  1.0000
  O   O17       1.0  0.46577656813266083  0.7445145691668741  0.7183981470677024  1.0000
  O   O18       1.0  0.5537284451840706  0.2576094712989344  0.2820672868104949  1.0000
  O   O19       1.0  0.9656617461617855  0.7555142474246634  0.7816325771009216  1.0000
  O   O20       1.0  0.053901561447148104  0.24233104944725162  0.21786959268435876  1.0000
  O   O21       1.0  0.9282533810903432  0.6469884452638366  0.5089939922029317  1.0000
  O   O22       1.0  0.8317072129626554  0.3636446095067071  0.48051012308701496  1.0000
  O   O23       1.0  0.4297787779751445  0.8529695035380551  0.9910006565389508  1.0000
  O   O24       1.0  0.33022409128137303  0.1362437799981819  0.019642156861735295  1.0000
  O   O25       1.0  0.4498060429931953  0.8082489652039653  0.5839175435637287  1.0000
  O   O26       1.0  0.5815938352633694  0.04878984082902347  0.31863488412020047  1.0000
  O   O27       1.0  0.9494486653475532  0.6918110337959076  0.916004529701148  1.0000
  O   O28       1.0  0.08100433215701489  0.45117648377473785  0.1814004628454171  1.0000
