data_image0
_chemical_formula_structural       U2Cu2H30C36S4N4O28
_chemical_formula_sum              "U2 Cu2 H30 C36 S4 N4 O28"
_cell_length_a       9.080594102858052
_cell_length_b       11.249412353250612
_cell_length_c       13.3583
_cell_angle_alpha    72.87300166234931
_cell_angle_beta     78.87184067822947
_cell_angle_gamma    67.32925530443747

_space_group_name_H-M_alt    "P 1"
_space_group_IT_number       1

loop_
  _space_group_symop_operation_xyz
  'x, y, z'

loop_
  _atom_site_type_symbol
  _atom_site_label
  _atom_site_symmetry_multiplicity
  _atom_site_fract_x
  _atom_site_fract_y
  _atom_site_fract_z
  _atom_site_occupancy
  U   U1        1.0  0.37643974945947883  0.652113487929185  0.6900490420210517  1.0000
  U   U2        1.0  0.6235681280929626  0.3478845029992996  0.3099294619505032  1.0000
  Cu  Cu1       1.0  0.8126796111670059  0.8588058198751441  0.6120120912294241  1.0000
  Cu  Cu2       1.0  0.1872885867395908  0.1412170001540716  0.3879819302299624  1.0000
  H   H1        1.0  0.7406878811391452  0.5849736132242782  0.6615136300787867  1.0000
  H   H2        1.0  0.2593427183887371  0.415018418720031  0.3384775939864754  1.0000
  H   H3        1.0  0.6972205396838833  0.5594910105619562  0.5631164180192558  1.0000
  H   H4        1.0  0.3027978815934916  0.440529823139201  0.4368670152120515  1.0000
  H   H5        1.0  0.6979358844989251  0.9137436813167668  0.4164444159031575  1.0000
  H   H6        1.0  0.3020649086186467  0.0861808154735542  0.5835577356108319  1.0000
  H   H7        1.0  0.5657015430151304  0.8799453162375883  0.5051556885652176  1.0000
  H   H8        1.0  0.4342137744157102  0.12008842859594888  0.494835075424767  1.0000
  H   H9        1.0  0.09435931081875276  0.9046850322060395  0.003758969141699672  1.0000
  H   H10       1.0  0.9055743841850089  0.0953477194634686  0.9962745459314918  1.0000
  H   H11       1.0  0.2609267154321273  0.7915467654867356  0.1517549641509959  1.0000
  H   H12       1.0  0.7390353133074612  0.2084800271985969  0.8482620880261537  1.0000
  H   H13       1.0  0.5603935756724566  0.7050888572490237  0.11810983707213302  1.0000
  H   H14       1.0  0.43956043651909477  0.2949170789917019  0.8819022102732604  1.0000
  H   H15       1.0  0.685461389065189  0.7468404798743791  0.9342945527891758  1.0000
  H   H16       1.0  0.31448603401968717  0.2531704221864857  0.06571637892172788  1.0000
  H   H17       1.0  0.31164418589975895  0.1509450418205063  0.8372342852265221  1.0000
  H   H18       1.0  0.6883680134386411  0.8490241473511304  0.1627687609009953  1.0000
  H   H19       1.0  0.1326703111786571  0.138414291263544  0.0047451825270385965  1.0000
  H   H20       1.0  0.8673032009378898  0.8615906518131453  0.9952450892008287  1.0000
  H   H21       1.0  0.8876731025700336  0.3339414731927519  0.02678659159513331  1.0000
  H   H22       1.0  0.1123168399657146  0.6660803536724345  0.9731980859144758  1.0000
  H   H23       1.0  0.8260384090544124  0.5404699330738936  0.8837836154440382  1.0000
  H   H24       1.0  0.17398618138996372  0.45954692797114666  0.1162022394100148  1.0000
  H   H25       1.0  0.02817615290499021  0.6652818497929189  0.4641894321441242  1.0000
  H   H26       1.0  0.9719039675812554  0.3347072026593025  0.535787050563066  1.0000
  H   H27       1.0  0.25236665265222064  0.6841767954492752  0.3224827206197318  1.0000
  H   H28       1.0  0.7477286535119206  0.3158480109079989  0.6775106009419646  1.0000
  H   H29       1.0  0.3231347820844661  0.8943283177090889  0.2803922174621506  1.0000
  H   H30       1.0  0.6769208368949792  0.1057133724366821  0.7196215874001197  1.0000
  C   C1        1.0  0.5463301826386413  0.8413708253417838  0.757207334136659  1.0000
  C   C2        1.0  0.4535687043729979  0.1586460357032635  0.24281821940331846  1.0000
  C   C3        1.0  0.4611264271029826  0.836368258126484  0.8649313892422514  1.0000
  C   C4        1.0  0.5388251878397696  0.1636247669818545  0.13506695680938213  1.0000
  C   C5        1.0  0.29293601948448617  0.8793355135236354  0.8851469397178848  1.0000
  C   C6        1.0  0.7070158854698434  0.12066744322499548  0.11486836880075661  1.0000
  C   C7        1.0  0.22370985095290757  0.8664154426672113  0.9884637926379227  1.0000
  C   C8        1.0  0.7762520252420374  0.1335984388857483  0.011562470288708871  1.0000
  C   C9        1.0  0.3193514814786483  0.8032561693915098  0.0722458724553832  1.0000
  C   C10       1.0  0.6806136167667419  0.1967527463412964  0.92778119926124  1.0000
  C   C11       1.0  0.4853588911141246  0.7571594541382183  0.0531691891020714  1.0000
  C   C12       1.0  0.514603252475851  0.2428405231183319  0.9468485094242995  1.0000
  C   C13       1.0  0.5555587835538986  0.7780039807839714  0.9500238362012114  1.0000
  C   C14       1.0  0.4443884945251853  0.2220019554567472  0.049985351660438895  1.0000
  C   C15       1.0  0.008235439987693443  0.5982770453959958  0.7091468458199516  1.0000
  C   C16       1.0  0.9918044057518359  0.401701082251904  0.2908608367737813  1.0000
  C   C17       1.0  0.03918832291044792  0.4651583047363772  0.78396431620898  1.0000
  C   C18       1.0  0.9608474985935586  0.534866501620904  0.21601959190930844  1.0000
  C   C19       1.0  0.17667384168494488  0.3547661365579273  0.7714968768916962  1.0000
  C   C20       1.0  0.8233486339833574  0.6452397996827912  0.2285016965378405  1.0000
  C   C21       1.0  0.20777457816941342  0.2367117078938676  0.8499162361499019  1.0000
  C   C22       1.0  0.7922327344375618  0.7632823103785  0.1500842879081432  1.0000
  C   C23       1.0  0.1060084015416436  0.2299224385899592  0.9426598112485466  1.0000
  C   C24       1.0  0.8939674927460006  0.7700795249946424  0.05733612704055698  1.0000
  C   C25       1.0  0.9688854371040989  0.339032432006654  0.9552671814417623  1.0000
  C   C26       1.0  0.031107727482094623  0.6609844290383862  0.044721299250838294  1.0000
  C   C27       1.0  0.9338763641893876  0.4552852611216665  0.8751289018666386  1.0000
  C   C28       1.0  0.0661534180757002  0.544732593087403  0.12484853954040892  1.0000
  C   C29       1.0  0.04019280637139386  0.9493704613737819  0.47059126416179003  1.0000
  C   C30       1.0  0.9598476193913115  0.0506275295547027  0.5294166564447167  1.0000
  C   C31       1.0  0.06724497603301671  0.7504774465494677  0.4420929286174343  1.0000
  C   C32       1.0  0.9328229285084647  0.2495006810984322  0.5579080783020061  1.0000
  C   C33       1.0  0.18897116824062726  0.7629972723021083  0.3632114287585538  1.0000
  C   C34       1.0  0.8110981712810741  0.2370146229227856  0.6367892501436644  1.0000
  C   C35       1.0  0.22954991441266515  0.87651691400864  0.3405969320817023  1.0000
  C   C36       1.0  0.7704936185500983  0.12350292652848789  0.6594178883498147  1.0000
  S   S1        1.0  0.1591794574593663  0.9544763176481226  0.7834619069508335  1.0000
  S   S2        1.0  0.8407847933678241  0.0455266391005082  0.2165420500267885  1.0000
  S   S3        1.0  0.316036431584628  0.3602285387187649  0.6566662470861503  1.0000
  S   S4        1.0  0.6839836392960238  0.6397565410773396  0.34331610487987524  1.0000
  N   N1        1.0  0.993573638054592  0.8449630996355565  0.4957761337312834  1.0000
  N   N2        1.0  0.006471536972597405  0.1550130416842919  0.5042268506844394  1.0000
  N   N3        1.0  0.15405629910298294  0.9692178513341787  0.39525026069539854  1.0000
  N   N4        1.0  0.8459602898710515  0.030794043890715297  0.6047723109806499  1.0000
  O   O1        1.0  0.39547890485165743  0.5787713038616573  0.8287480938461584  1.0000
  O   O2        1.0  0.6045297899635713  0.4212008648020671  0.17124568998011816  1.0000
  O   O3        1.0  0.3650095412208286  0.7264498291899812  0.5510334171144962  1.0000
  O   O4        1.0  0.6350053679945162  0.2735660386910297  0.44893898224406575  1.0000
  O   O5        1.0  0.508021201575673  0.7969942701871346  0.6925368887702988  1.0000
  O   O6        1.0  0.4919396746564288  0.20300074124926232  0.30747771596157497  1.0000
  O   O7        1.0  0.6614795956633657  0.8855993990560691  0.7369358510164332  1.0000
  O   O8        1.0  0.33842367344506386  0.1144522227299944  0.26306553499858154  1.0000
  O   O9        1.0  0.18096551553635712  0.8461827050634625  0.7316902052138518  1.0000
  O   O10       1.0  0.8190200524414665  0.1538123063729344  0.26830843382023073  1.0000
  O   O11       1.0  0.9980830574109802  0.9982381042686653  0.8345512910438304  1.0000
  O   O12       1.0  0.0018782462996469003  0.0017638593159361  0.16544431571679755  1.0000
  O   O13       1.0  0.2093643081226233  0.0596394999560559  0.7096077375581871  1.0000
  O   O14       1.0  0.7906274365610527  0.9403594841364581  0.2904123124298863  1.0000
  O   O15       1.0  0.1140573777000498  0.6510517955819211  0.6899140497223685  1.0000
  O   O16       1.0  0.8859625632525194  0.3489442090185051  0.3100611183584193  1.0000
  O   O17       1.0  0.8708932990739201  0.6579632240614259  0.6723255958732678  1.0000
  O   O18       1.0  0.1291260769331828  0.3420288078828833  0.32768356986600383  1.0000
  O   O19       1.0  0.40817990736228893  0.43998060343103157  0.6702820216256244  1.0000
  O   O20       1.0  0.591851677050734  0.5600144080053724  0.3296813847754052  1.0000
  O   O21       1.0  0.4203497002051932  0.2249834338725378  0.6581408086293906  1.0000
  O   O22       1.0  0.5796679809655175  0.7749966801034276  0.3418430883828877  1.0000
  O   O23       1.0  0.2195727687126805  0.43072828733459545  0.5661724461983938  1.0000
  O   O24       1.0  0.7804301768752139  0.5692468608212167  0.4338191072134022  1.0000
  O   O25       1.0  0.6687134918199577  0.5500211915431237  0.6404101839972682  1.0000
  O   O26       1.0  0.3313112285525008  0.449984744697595  0.35957911175076884  1.0000
  O   O27       1.0  0.659507810616539  0.9060536122383382  0.49185407099145817  1.0000
  O   O28       1.0  0.3405613479727023  0.0937675954929418  0.5081647266528293  1.0000
