data_image0
_chemical_formula_structural       Cu4H12C20N8
_chemical_formula_sum              "Cu4 H12 C20 N8"
_cell_length_a       8.066790396546086
_cell_length_b       8.06685971822042
_cell_length_c       8.994474285379944
_cell_angle_alpha    70.0234425009923
_cell_angle_beta     70.02299865627494
_cell_angle_gamma    80.52941597241932

_space_group_name_H-M_alt    "P 1"
_space_group_IT_number       1

loop_
  _space_group_symop_operation_xyz
  'x, y, z'

loop_
  _atom_site_type_symbol
  _atom_site_label
  _atom_site_symmetry_multiplicity
  _atom_site_fract_x
  _atom_site_fract_y
  _atom_site_fract_z
  _atom_site_occupancy
  Cu  Cu1       1.0  0.9742117401935106  0.7944208673069607  0.9285957858620292  1.0000
  Cu  Cu2       1.0  0.20558190423703593  0.0257873252032965  0.5714040529589965  1.0000
  Cu  Cu3       1.0  0.025789895389237896  0.2055785773685628  0.0714020108137134  1.0000
  Cu  Cu4       1.0  0.794420981043949  0.9742134342418041  0.428597406028878  1.0000
  H   H1        1.0  0.2071671234288317  0.47865641823370453  0.036278527878692964  1.0000
  H   H2        1.0  0.5213479882594428  0.7928227977098175  0.46372479907722663  1.0000
  H   H3        1.0  0.7928318731701723  0.5213430340919912  0.9637211859215356  1.0000
  H   H4        1.0  0.47865232757011716  0.20717665053109607  0.5362745122171687  1.0000
  H   H5        1.0  0.4421971135271435  0.2230573728836517  0.04148371741969471  1.0000
  H   H6        1.0  0.7769425240673729  0.5577993170480651  0.4585180429948324  1.0000
  H   H7        1.0  0.5578017476656569  0.7769447207865028  0.9585163412267548  1.0000
  H   H8        1.0  0.223057859726609  0.44219881078031154  0.5414805398200428  1.0000
  H   H9        1.0  0.7336730977713444  0.10185019206112136  0.8940631629342447  1.0000
  H   H10       1.0  0.8981521249206283  0.26632631502922516  0.6059347174990675  1.0000
  H   H11       1.0  0.26632583034061247  0.8981505801577114  0.1059383914583165  1.0000
  H   H12       1.0  0.10184680319132162  0.7336744571896145  0.3940668368934937  1.0000
  C   C1        1.0  0.8309591694471339  0.8842952925682964  0.6333311993027378  1.0000
  C   C2        1.0  0.1157067163956356  0.1690423887580579  0.8666641163331832  1.0000
  C   C3        1.0  0.16903601009274644  0.11570153586121279  0.3666582560406155  1.0000
  C   C4        1.0  0.8842958301085134  0.8309649737884893  0.13333876082666063  1.0000
  C   C5        1.0  0.2842954694029772  0.5404516885938405  0.9074894267482848  1.0000
  C   C6        1.0  0.45954785660296693  0.7156982152792819  0.5925127825942412  1.0000
  C   C7        1.0  0.7157035271960269  0.4595477637318622  0.09251028705194395  1.0000
  C   C8        1.0  0.5404525266683822  0.2842999120297023  0.40748691233344664  1.0000
  C   C9        1.0  0.44641818284601004  0.4594418951494247  0.8329771418298648  1.0000
  C   C10       1.0  0.5405565911103382  0.553576087241204  0.6670258512400622  1.0000
  C   C11       1.0  0.5535808137529942  0.5405575571762711  0.16702257197036371  1.0000
  C   C12       1.0  0.4594437921610108  0.4464220400677802  0.3329738436876255  1.0000
  C   C13       1.0  0.5165668130408819  0.2949982213083969  0.9150322144923492  1.0000
  C   C14       1.0  0.705001965039301  0.4834276555319334  0.5849708529256931  1.0000
  C   C15       1.0  0.4834307963631517  0.7050025555146177  0.08496863029323265  1.0000
  C   C16       1.0  0.29499709847886624  0.5165704753424479  0.41503035662064036  1.0000
  C   C17       1.0  0.6774558174789292  0.22834912384318778  0.8323698506880531  1.0000
  C   C18       1.0  0.7716512885522209  0.3225419866945529  0.6676316840227158  1.0000
  C   C19       1.0  0.3225431780748097  0.7716503274437229  0.1676320873378074  1.0000
  C   C20       1.0  0.22834638777096936  0.6774574686771402  0.3323706565089779  1.0000
  N   N1        1.0  0.8709726182704716  0.8340808235539039  0.7565925032692037  1.0000
  N   N2        1.0  0.16592166935333105  0.12902831094310588  0.7434060166089155  1.0000
  N   N3        1.0  0.1290293498175288  0.16591201178746928  0.2434172205883485  1.0000
  N   N4        1.0  0.8340825382939983  0.8709724475335534  0.2565883671962369  1.0000
  N   N5        1.0  0.21712966782518361  0.6935953298720887  0.8306592702214033  1.0000
  N   N6        1.0  0.30640288685388134  0.7828690204353065  0.6693422429426975  1.0000
  N   N7        1.0  0.782870647481744  0.30640411784943916  0.16934115318580475  1.0000
  N   N8        1.0  0.6935974289756788  0.21713042780560696  0.3306570683516911  1.0000
