data_image0
_chemical_formula_structural       Mn2H56C64S6N4O12
_chemical_formula_sum              "Mn2 H56 C64 S6 N4 O12"
_cell_length_a       9.155811167469292
_cell_length_b       9.97647037876097
_cell_length_c       16.822080017529235
_cell_angle_alpha    95.04731348544611
_cell_angle_beta     91.60910283983807
_cell_angle_gamma    96.78286419212964

_space_group_name_H-M_alt    "P 1"
_space_group_IT_number       1

loop_
  _space_group_symop_operation_xyz
  'x, y, z'

loop_
  _atom_site_type_symbol
  _atom_site_label
  _atom_site_symmetry_multiplicity
  _atom_site_fract_x
  _atom_site_fract_y
  _atom_site_fract_z
  _atom_site_occupancy
  Mn  Mn1       1.0  0.9085491214165914  0.7955937267798846  0.5331777268080344  1.0000
  Mn  Mn2       1.0  0.09144526274107531  0.20440339778397743  0.466821223364981  1.0000
  H   H1        1.0  0.5797728611865908  0.17703826421141863  0.3167120447123253  1.0000
  H   H2        1.0  0.4202283559109503  0.8229608608272087  0.6832876938809418  1.0000
  H   H3        1.0  0.658309533512174  0.18137057193781203  0.1665353323717937  1.0000
  H   H4        1.0  0.34168949940293203  0.8186285609946183  0.833464379461958  1.0000
  H   H5        1.0  0.11716478700826377  0.9369714891037693  0.8820786871989411  1.0000
  H   H6        1.0  0.8828372628493285  0.06302559479670582  0.11792273405681898  1.0000
  H   H7        1.0  0.9861471453659263  0.8901176117101247  0.7383162945633258  1.0000
  H   H8        1.0  0.013856536306619205  0.10988352959088134  0.2616841789311621  1.0000
  H   H9        1.0  0.809214400355117  0.16454817843871442  0.992482312735575  1.0000
  H   H10       1.0  0.1907884906801912  0.8354549779302906  0.0075212329452796324  1.0000
  H   H11       1.0  0.047799805922871  0.2856508599178866  0.0493713955446609  1.0000
  H   H12       1.0  0.952202125319488  0.714353317364271  0.9506315992931249  1.0000
  H   H13       1.0  0.059348926823524634  0.5205165368324673  0.11452390032594911  1.0000
  H   H14       1.0  0.9406487525561645  0.4794886829798487  0.8854767204611633  1.0000
  H   H15       1.0  0.8321113632785142  0.6352429641034547  0.12139773757676407  1.0000
  H   H16       1.0  0.16788535630821141  0.364763276622  0.8786023323672792  1.0000
  H   H17       1.0  0.5940298635534306  0.5133100574303741  0.06555959838703268  1.0000
  H   H18       1.0  0.4059703937511472  0.4866900885214065  0.9344395893631656  1.0000
  H   H19       1.0  0.6390228361586452  0.031636769247875  0.8315257994844174  1.0000
  H   H20       1.0  0.3609718283915982  0.9683623794721686  0.16847385883028923  1.0000
  H   H21       1.0  0.8184706265247216  0.0689894469518322  0.7250672705333725  1.0000
  H   H22       1.0  0.18152951427765626  0.9310096722573961  0.2749342377484609  1.0000
  H   H23       1.0  0.8838007385652774  0.3003024459297593  0.6828094446415135  1.0000
  H   H24       1.0  0.11620625623839231  0.6996986607191574  0.3171952294850087  1.0000
  H   H25       1.0  0.7637914281528636  0.49328203389047326  0.7450209537450972  1.0000
  H   H26       1.0  0.2362121264867767  0.5067180871855188  0.2549806515688076  1.0000
  H   H27       1.0  0.5859672818778421  0.4564742238431592  0.8513391238964869  1.0000
  H   H28       1.0  0.4140342156122686  0.5435269253516567  0.1486613228384783  1.0000
  H   H29       1.0  0.22040132602915466  0.9398802850924214  0.47616356823048994  1.0000
  H   H30       1.0  0.7795947057395268  0.06012088709567113  0.5238362172495669  1.0000
  H   H31       1.0  0.4261817409052711  0.9826964767360805  0.41912000425775625  1.0000
  H   H32       1.0  0.5738163427475771  0.01730367059195711  0.5808803454451379  1.0000
  H   H33       1.0  0.4705662443150588  0.8402682910704513  0.3568747862619972  1.0000
  H   H34       1.0  0.5294319821667558  0.15973286670629253  0.6431262146898007  1.0000
  H   H35       1.0  0.5712755379730226  0.8879134377326993  0.44917166292786687  1.0000
  H   H36       1.0  0.42872268850879175  0.1120877200440447  0.5508293380239309  1.0000
  H   H37       1.0  0.30370965364269153  0.5980828494171249  0.49534217067247244  1.0000
  H   H38       1.0  0.6962893687417023  0.40191629003285106  0.5046563524490608  1.0000
  H   H39       1.0  0.4973898536593353  0.6571341811257413  0.49492895457080976  1.0000
  H   H40       1.0  0.5026075400624208  0.34286901778916257  0.5050703637184952  1.0000
  H   H41       1.0  0.393766581903428  0.6040181922864252  0.4031546313369958  1.0000
  H   H42       1.0  0.6062339505283701  0.39598398108029903  0.5968446701987915  1.0000
  H   H43       1.0  0.009876725047647018  0.50499814623835  0.4200031815605669  1.0000
  H   H44       1.0  0.9901232413336487  0.49499998207478774  0.5799941093357148  1.0000
  H   H45       1.0  0.5868466065109035  0.4406749387952688  0.3645618384087186  1.0000
  H   H46       1.0  0.413155692147143  0.5593241888140029  0.6354367248520987  1.0000
  H   H47       1.0  0.6408367272132693  0.5265391449973792  0.279648018280227  1.0000
  H   H48       1.0  0.3591631068697652  0.47345796634951404  0.7203498100793695  1.0000
  H   H49       1.0  0.6572452832398881  0.6167330407143226  0.37722723848642653  1.0000
  H   H50       1.0  0.34275469367212  0.3832650810812766  0.6227712411220735  1.0000
  H   H51       1.0  0.9890513023156945  0.39104539693356344  0.30381776026369056  1.0000
  H   H52       1.0  0.010949745626106715  0.6089527339502042  0.6961783553001338  1.0000
  H   H53       1.0  0.8548297719547974  0.43098742584046335  0.2324273871612945  1.0000
  H   H54       1.0  0.14516923989889113  0.569011720127051  0.7675699472480273  1.0000
  H   H55       1.0  0.8141887513968342  0.2933521969430046  0.2924252512279324  1.0000
  H   H56       1.0  0.18580998532963386  0.7066449216095595  0.7075719693957936  1.0000
  C   C1        1.0  0.2814579103037503  0.2277280704544752  0.3517070708188115  1.0000
  C   C2        1.0  0.7185433067937907  0.7722710545841593  0.6482926677744558  1.0000
  C   C3        1.0  0.36487979234465934  0.22248488135718258  0.2779245362691752  1.0000
  C   C4        1.0  0.6351225221094481  0.7775142364757814  0.7220758100599625  1.0000
  C   C5        1.0  0.5090317154473355  0.19812427329945595  0.26736494751278883  1.0000
  C   C6        1.0  0.49096827199537785  0.8018738419786048  0.7326347208079297  1.0000
  C   C7        1.0  0.5509289191129483  0.20108412484803753  0.18733729153492354  1.0000
  C   C8        1.0  0.4490727054100675  0.7989180445717852  0.812662023380625  1.0000
  C   C9        1.0  0.4366130456646502  0.22361643245685772  0.13589527400809936  1.0000
  C   C10       1.0  0.563387764007409  0.7763796482005819  0.8641048882628937  1.0000
  C   C11       1.0  0.43198598629307133  0.21583965122336227  0.04950184389353749  1.0000
  C   C12       1.0  0.5680129143237735  0.7841584647428307  0.9504984054035219  1.0000
  C   C13       1.0  0.5414593546896356  0.2557012687001503  0.9975922867091285  1.0000
  C   C14       1.0  0.45854077558203704  0.7442978570266164  0.0024080328604867154  1.0000
  C   C15       1.0  0.4988970849513592  0.21668511903391166  0.9153572233807024  1.0000
  C   C16       1.0  0.5011031881492799  0.7833150171415609  0.0846437474378163  1.0000
  C   C17       1.0  0.35603558995224205  0.14925789864778244  0.9058025120638928  1.0000
  C   C18       1.0  0.643966050366835  0.850744260995732  0.09419858591998319  1.0000
  C   C19       1.0  0.26667785190263515  0.09617363073434151  0.8354020621198046  1.0000
  C   C20       1.0  0.7333237884164422  0.9038285289091732  0.1645990358640645  1.0000
  C   C21       1.0  0.1486074809783631  0.9932121468128657  0.831374289973823  1.0000
  C   C22       1.0  0.85139292442053  0.0067890063288445004  0.16862614338138826  1.0000
  C   C23       1.0  0.07830795035759057  0.9677783510191492  0.7552496953533492  1.0000
  C   C24       1.0  0.9216943640965171  0.0322207668138077  0.24475065097578852  1.0000
  C   C25       1.0  0.1407699398919604  0.051962593961640394  0.7008794088275961  1.0000
  C   C26       1.0  0.8592292305867488  0.9480375526782724  0.29912035989895003  1.0000
  C   C27       1.0  0.0898112794322259  0.06071847082481702  0.6179717439055776  1.0000
  C   C28       1.0  0.9101869312535272  0.9392826967282348  0.38202747397789943  1.0000
  C   C29       1.0  0.6854364990331521  0.3299844135951417  0.02662926641738751  1.0000
  C   C30       1.0  0.31456254441265946  0.6700147128197572  0.9733716341285826  1.0000
  C   C31       1.0  0.8147099270235291  0.26741513626357977  0.021350783891300306  1.0000
  C   C32       1.0  0.18529173435695875  0.7325870103448581  0.9786526915170055  1.0000
  C   C33       1.0  0.9480556021168808  0.3353203447371271  0.0536317112981877  1.0000
  C   C34       1.0  0.05194401264478191  0.664682823472589  0.9463717942433901  1.0000
  C   C35       1.0  0.9547380386764958  0.46710968820027426  0.09022633334814859  1.0000
  C   C36       1.0  0.04525950840493213  0.532894514645797  0.9097748249022785  1.0000
  C   C37       1.0  0.8273362037633945  0.5314924413443054  0.09399917578456041  1.0000
  C   C38       1.0  0.17266146508558933  0.46851278498554905  0.9060002562903333  1.0000
  C   C39       1.0  0.6935639546825954  0.4632055161696726  0.0626022902698651  1.0000
  C   C40       1.0  0.3064363184180436  0.5367946200057928  0.9373986805486608  1.0000
  C   C41       1.0  0.6001499397773317  0.2409471569166897  0.8490739711149258  1.0000
  C   C42       1.0  0.3998481491408725  0.759052987152586  0.1509269729440774  1.0000
  C   C43       1.0  0.666827439171925  0.13281712574264762  0.8125659043088262  1.0000
  C   C44       1.0  0.33317160427388604  0.8671820006722512  0.18743499623713689  1.0000
  C   C45       1.0  0.7679108284183657  0.15382483345234732  0.7530551038128053  1.0000
  C   C46       1.0  0.2320882255581509  0.8461742864450058  0.2469469854453692  1.0000
  C   C47       1.0  0.8039999017537908  0.2836919647344303  0.7289639201368061  1.0000
  C   C48       1.0  0.19600365288584953  0.7163081563415618  0.2710376851771059  1.0000
  C   C49       1.0  0.736940585855585  0.3917728262493227  0.7639462863408608  1.0000
  C   C50       1.0  0.2630665359809826  0.6082293006246006  0.2360572559662444  1.0000
  C   C51       1.0  0.6361483538554255  0.37083800959324986  0.8238540555061817  1.0000
  C   C52       1.0  0.3638530060710751  0.6291621258940908  0.17614633433598925  1.0000
  C   C53       1.0  0.23289588759227808  0.8341428125469011  0.48545538366683877  1.0000
  C   C54       1.0  0.7671023283588312  0.16585835174738864  0.5145444285727407  1.0000
  C   C55       1.0  0.4625797372757178  0.8818324300746029  0.4190464470908353  1.0000
  C   C56       1.0  0.5374218977780033  0.11816973282768123  0.5809540565369247  1.0000
  C   C57       1.0  0.38982406747818743  0.6543133465576718  0.46377839448811636  1.0000
  C   C58       1.0  0.610174286036532  0.345688831444086  0.5362214746442575  1.0000
  C   C59       1.0  0.896268705944813  0.5312618981277951  0.419340990458366  1.0000
  C   C60       1.0  0.10373219390267253  0.4687352255660431  0.5806538795004528  1.0000
  C   C61       1.0  0.6661529773936367  0.5196763225754639  0.34314059044729817  1.0000
  C   C62       1.0  0.3338469995183644  0.48032179922013546  0.656857889161202  1.0000
  C   C63       1.0  0.871906135732857  0.39626716179739674  0.2916288558510658  1.0000
  C   C64       1.0  0.128094790441402  0.6037299456025949  0.708368985888292  1.0000
  S   S1        1.0  0.2799609193625159  0.24712479054378633  0.1882847222926998  1.0000
  S   S2        1.0  0.720037986519685  0.7528733221636372  0.8117161213604688  1.0000
  S   S3        1.0  0.2769371871957844  0.13328174263928363  0.9974188010768827  1.0000
  S   S4        1.0  0.7230628002469218  0.8667163726387772  0.002580867243835927  1.0000
  S   S5        1.0  0.28789019425481405  0.1612321537171795  0.7439392829916682  1.0000
  S   S6        1.0  0.7121089867546075  0.838767986405195  0.2560616744470963  1.0000
  N   N1        1.0  0.3567680047454759  0.7923279961661083  0.4588083579486621  1.0000
  N   N2        1.0  0.6432280322885546  0.20767317276320804  0.5411920218875039  1.0000
  N   N3        1.0  0.8165371018771594  0.4879274974688316  0.35245405291871623  1.0000
  N   N4        1.0  0.18346367093742796  0.5120686059999926  0.6475419488595192  1.0000
  O   O1        1.0  0.3333552794084582  0.18706303131818197  0.4148206173675888  1.0000
  O   O2        1.0  0.6666438963356143  0.8129371120629543  0.5851797457150596  1.0000
  O   O3        1.0  0.15479408866060854  0.27129480525851335  0.3481860137000083  1.0000
  O   O4        1.0  0.84520698034261  0.7287033125901844  0.651812479288253  1.0000
  O   O5        1.0  0.16602508801569374  0.1441055344772835  0.5771665778456594  1.0000
  O   O6        1.0  0.833973392531931  0.8558976637494883  0.42283215946729774  1.0000
  O   O7        1.0  0.9703318617486049  0.9886350114391367  0.5928837900050965  1.0000
  O   O8        1.0  0.029668400821329  0.0113651312538749  0.40711599210120397  1.0000
  O   O9        1.0  0.13403124520819182  0.7600538199801364  0.5179000083733882  1.0000
  O   O10       1.0  0.865965460695513  0.23994431039739791  0.4820990254519373  1.0000
  O   O11       1.0  0.8467774518547485  0.5954976512893708  0.4784742535246734  1.0000
  O   O12       1.0  0.1532256374405279  0.4044994612518948  0.52152123754977  1.0000
