data_image0
_chemical_formula_structural       Cu4H52C52N8O16
_chemical_formula_sum              "Cu4 H52 C52 N8 O16"
_cell_length_a       8.348526258665588
_cell_length_b       9.959175141632715
_cell_length_c       15.305286314601076
_cell_angle_alpha    89.99919083001382
_cell_angle_beta     89.99954826198683
_cell_angle_gamma    101.20308014289138

_space_group_name_H-M_alt    "P 1"
_space_group_IT_number       1

loop_
  _space_group_symop_operation_xyz
  'x, y, z'

loop_
  _atom_site_type_symbol
  _atom_site_label
  _atom_site_symmetry_multiplicity
  _atom_site_fract_x
  _atom_site_fract_y
  _atom_site_fract_z
  _atom_site_occupancy
  Cu  Cu1       1.0  0.15086765861675394  0.720301607314106  0.4420580055342783  1.0000
  Cu  Cu2       1.0  0.8491252448571203  0.7796959744902453  0.9420559979411112  1.0000
  Cu  Cu3       1.0  0.849125167520775  0.27969474486558715  0.5579393761871358  1.0000
  Cu  Cu4       1.0  0.1508772110357555  0.22029530021036686  0.057938116937407406  1.0000
  H   H1        1.0  0.07900797026599087  0.5857735998261192  0.7211989357387695  1.0000
  H   H2        1.0  0.9209944906295817  0.914215200351201  0.2211957910760276  1.0000
  H   H3        1.0  0.9209730214768898  0.41423395794777224  0.2787990993261431  1.0000
  H   H4        1.0  0.07901307049836961  0.08576688892694051  0.7788015906785972  1.0000
  H   H5        1.0  0.16688459360884875  0.38710654877379375  0.7920052565062861  1.0000
  H   H6        1.0  0.8331223887484216  0.11288688848722471  0.2920039561179095  1.0000
  H   H7        1.0  0.8331009225433308  0.612905116804768  0.2079973521130469  1.0000
  H   H8        1.0  0.1668867572022989  0.8871074793314191  0.7080012660051906  1.0000
  H   H9        1.0  0.316317564069486  0.23723938102097722  0.7064685045714896  1.0000
  H   H10       1.0  0.6836915914425177  0.2627582402072833  0.20646648267400997  1.0000
  H   H11       1.0  0.6836713166494307  0.7627712744554033  0.2935334506760867  1.0000
  H   H12       1.0  0.31632590755965856  0.737241272649591  0.7935308989788796  1.0000
  H   H13       1.0  0.3729711098502123  0.2866836256541632  0.5487416040498091  1.0000
  H   H14       1.0  0.6270357060140982  0.21331484692613864  0.04874093748971829  1.0000
  H   H15       1.0  0.6270170359606483  0.7133290724918879  0.45126231129707867  1.0000
  H   H16       1.0  0.3729861633673083  0.7866775232432205  0.9512564441863915  1.0000
  H   H17       1.0  0.3478476260127863  0.40048266339847777  0.421423034975426  1.0000
  H   H18       1.0  0.652149228390485  0.09952183075263583  0.921424197290321  1.0000
  H   H19       1.0  0.6521511553463385  0.5995188246586878  0.5785802270306136  1.0000
  H   H20       1.0  0.3478524146128025  0.9004817134746121  0.07857971806903659  1.0000
  H   H21       1.0  0.2250611440719013  0.48415242457390656  0.2769185991704148  1.0000
  H   H22       1.0  0.7749481886368131  0.015855715429722705  0.776914111581405  1.0000
  H   H23       1.0  0.7749295163126463  0.5158449421618628  0.7230827027652325  1.0000
  H   H24       1.0  0.22507263599355548  0.9841479008187408  0.2230813099382942  1.0000
  H   H25       1.0  0.4201618305922779  0.5817458459689109  0.30123219898153764  1.0000
  H   H26       1.0  0.5798346978500392  0.9182746884946197  0.8012366321463844  1.0000
  H   H27       1.0  0.5798350949612967  0.41824745336548114  0.6987684495900481  1.0000
  H   H28       1.0  0.4201592102268564  0.0817370085468099  0.19876597645443178  1.0000
  H   H29       1.0  0.1384738032488073  0.9876904689399242  0.361562394799968  1.0000
  H   H30       1.0  0.8615349017817238  0.5123030405288135  0.8615634409474211  1.0000
  H   H31       1.0  0.8615103989980994  0.012304828198793404  0.6384336802071218  1.0000
  H   H32       1.0  0.1384800454453909  0.4876852127812086  0.13843459413176623  1.0000
  H   H33       1.0  0.9504641462983943  0.7956267229623536  0.5909534831246858  1.0000
  H   H34       1.0  0.04952919957536746  0.7043611959543697  0.0909547739933174  1.0000
  H   H35       1.0  0.049514332660180606  0.20436446183620663  0.4090412851757605  1.0000
  H   H36       1.0  0.9504850127241012  0.29562910000084497  0.9090471812922587  1.0000
  H   H37       1.0  0.34714005145582405  0.05328951105263261  0.5865460103235591  1.0000
  H   H38       1.0  0.6528597048465486  0.4467171979800497  0.0865496217466202  1.0000
  H   H39       1.0  0.6528502990661451  0.946717059068071  0.4134533314634581  1.0000
  H   H40       1.0  0.3471474683915972  0.553284321482856  0.9134582138240719  1.0000
  H   H41       1.0  0.5254979316908148  0.057208624406989414  0.6527848070020142  1.0000
  H   H42       1.0  0.47449791029757904  0.442790283853448  0.15278988877731342  1.0000
  H   H43       1.0  0.4744926508427554  0.9427989693489426  0.3472112679346679  1.0000
  H   H44       1.0  0.5255092629666862  0.5572112356421003  0.8472153333172798  1.0000
  H   H45       1.0  0.6017692839865205  0.8689918762612122  0.5687805251663035  1.0000
  H   H46       1.0  0.3982234601445285  0.6310078425681951  0.0687848828938513  1.0000
  H   H47       1.0  0.3982224974064934  0.1310157220057349  0.43121424302967876  1.0000
  H   H48       1.0  0.6017899393371593  0.3689947230034179  0.9312196858132822  1.0000
  H   H49       1.0  0.39237656072112514  0.8168032835173237  0.598901535203382  1.0000
  H   H50       1.0  0.6076100512738449  0.6831977076004776  0.09890449699150142  1.0000
  H   H51       1.0  0.6076159555407729  0.18320227203098943  0.4010951931074445  1.0000
  H   H52       1.0  0.392395691184646  0.3168027838304256  0.9010987650038659  1.0000
  C   C1        1.0  0.1734606196250681  0.5500843947414114  0.5940179985288125  1.0000
  C   C2        1.0  0.826548404129497  0.9499147566480277  0.09401559311493199  1.0000
  C   C3        1.0  0.8265299628562772  0.449923198949236  0.40598330336007393  1.0000
  C   C4        1.0  0.173471260573443  0.050083741587492604  0.9059830952759286  1.0000
  C   C5        1.0  0.14397517626603928  0.5194863255645573  0.6841491538219914  1.0000
  C   C6        1.0  0.8560311185756008  0.9805064799032693  0.18414699181354172  1.0000
  C   C7        1.0  0.856015870147111  0.4805233152823052  0.3158547615325773  1.0000
  C   C8        1.0  0.14398092802310458  0.0194848306732993  0.8158536567340633  1.0000
  C   C9        1.0  0.19386838103886822  0.4090611324731628  0.7231086396843196  1.0000
  C   C10       1.0  0.806135917499148  0.09093196518963252  0.2231083123692841  1.0000
  C   C11       1.0  0.8061228973401884  0.5909495319518003  0.27689658240309  1.0000
  C   C12       1.0  0.1938717976327523  0.9090613745480453  0.7768962563926394  1.0000
  C   C13       1.0  0.27727662939919645  0.32360568333768214  0.6749934475657825  1.0000
  C   C14       1.0  0.7227297904592689  0.17639373423815394  0.1749940076787482  1.0000
  C   C15       1.0  0.7227151129573599  0.6764070283006164  0.3250098144041473  1.0000
  C   C16       1.0  0.2772838799856173  0.823604741491245  0.8250072942014413  1.0000
  C   C17       1.0  0.3066088818663247  0.35042009160122234  0.5871046724697919  1.0000
  C   C18       1.0  0.6933969354347839  0.1495763990277084  0.08710560719107721  1.0000
  C   C19       1.0  0.693375938335926  0.6495885031777322  0.4128992429032152  1.0000
  C   C20       1.0  0.3066270606631534  0.8504200699569323  0.9128963480447397  1.0000
  C   C21       1.0  0.2552440319133141  0.46086844964120394  0.5444412407189319  1.0000
  C   C22       1.0  0.7447583064762001  0.039131135983694804  0.044440350977033895  1.0000
  C   C23       1.0  0.744745583713659  0.5391401631654985  0.4555587544293402  1.0000
  C   C24       1.0  0.2552627890586123  0.9608683903491056  0.955557684036954  1.0000
  C   C25       1.0  0.2870127160097979  0.4765995715583954  0.4524513137902204  1.0000
  C   C26       1.0  0.7129811596430072  0.023399025011833906  0.9524529085264248  1.0000
  C   C27       1.0  0.7129791042695361  0.5234029131495036  0.5475499881193997  1.0000
  C   C28       1.0  0.28702988113014527  0.9765984181337474  0.047548393364259305  1.0000
  C   C29       1.0  0.2883825557266206  0.5772313321434837  0.31073772078810435  1.0000
  C   C30       1.0  0.7116167613147865  0.922775680651583  0.8107389220780592  1.0000
  C   C31       1.0  0.7116131320224356  0.42276707616548487  0.6892635811317619  1.0000
  C   C32       1.0  0.2883884782472492  0.0772278770842334  0.18926303316628434  1.0000
  C   C33       1.0  0.2440750395813892  0.703952122700116  0.2687576228957198  1.0000
  C   C34       1.0  0.7559146755688245  0.7960415815590809  0.7687539132499169  1.0000
  C   C35       1.0  0.755929272103984  0.2960473407069557  0.7312404121552945  1.0000
  C   C36       1.0  0.24407842145356545  0.20395068068047809  0.2312480420728562  1.0000
  C   C37       1.0  0.07593113494849753  0.9933931563013804  0.4232575291269072  1.0000
  C   C38       1.0  0.9240746355403289  0.5066018737753383  0.9232583537745782  1.0000
  C   C39       1.0  0.9240492387802844  0.006601103758825399  0.5767385458933277  1.0000
  C   C40       1.0  0.07594557104983578  0.4933884447267972  0.076737721176535  1.0000
  C   C41       1.0  0.9727342892962911  0.8869991295964612  0.5503631176406999  1.0000
  C   C42       1.0  0.027261298473938194  0.6129908313822697  0.0503646914459495  1.0000
  C   C43       1.0  0.027240361157218698  0.11299101813990832  0.4496303439348354  1.0000
  C   C44       1.0  0.9727555435299069  0.38700049719756185  0.949633996983998  1.0000
  C   C45       1.0  0.4741754557464193  0.0360583284892968  0.587045638600074  1.0000
  C   C46       1.0  0.525823594625038  0.4639452972659015  0.08705030146344228  1.0000
  C   C47       1.0  0.5258175244799261  0.9639492742560306  0.4129504363313146  1.0000
  C   C48       1.0  0.4741845455131823  0.5360552031380764  0.9129542672646878  1.0000
  C   C49       1.0  0.47821784990117777  0.8904805325239454  0.5599157860901373  1.0000
  C   C50       1.0  0.5217743364859757  0.6095214504596099  0.0599191467229048  1.0000
  C   C51       1.0  0.5217713018070426  0.10952603314286338  0.4400802888543964  1.0000
  C   C52       1.0  0.4782390629891893  0.3904811151038389  0.940086075353257  1.0000
  N   N1        1.0  0.24749016691462333  0.5709405188940052  0.4032470527350185  1.0000
  N   N2        1.0  0.7525120969668395  0.9290642008925761  0.9032512840717573  1.0000
  N   N3        1.0  0.7524990237060365  0.42906093324639744  0.5967529424470472  1.0000
  N   N4        1.0  0.24751143514707513  0.07093022087057223  0.0967532846505748  1.0000
  N   N5        1.0  0.04901173568265448  0.8806343873427949  0.473614563143272  1.0000
  N   N6        1.0  0.9509841726911504  0.6193573061254797  0.9736155415597951  1.0000
  N   N7        1.0  0.950962914783915  0.11935576040989564  0.5263775916942136  1.0000
  N   N8        1.0  0.04903077454248716  0.3806309471926994  0.0263818401503642  1.0000
  O   O1        1.0  0.1250763214323598  0.6574480100865615  0.5617679699359996  1.0000
  O   O2        1.0  0.8749292862287562  0.8425498862409458  0.0617669916563486  1.0000
  O   O3        1.0  0.8749078028787097  0.3425575139662414  0.438231371869449  1.0000
  O   O4        1.0  0.12509614070758351  0.1574476108491396  0.9382336568335674  1.0000
  O   O5        1.0  0.17633550982498036  0.7821875589935487  0.3189675149457187  1.0000
  O   O6        1.0  0.8236661183186699  0.7178090301916953  0.8189733740302572  1.0000
  O   O7        1.0  0.8236604099617824  0.21781187298329743  0.6810279066477137  1.0000
  O   O8        1.0  0.176341789879757  0.28219044666681736  0.1810272744889261  1.0000
  O   O9        1.0  0.27456169198779184  0.7279060939559941  0.1899585282810747  1.0000
  O   O10       1.0  0.7254233324109691  0.7720936459866509  0.6899695461255462  1.0000
  O   O11       1.0  0.7254575087507077  0.2720903570825045  0.8100408134892234  1.0000
  O   O12       1.0  0.2745529029044818  0.22790878033917755  0.3100278356043091  1.0000
  O   O13       1.0  0.5725835792157598  0.13255900135009568  0.5296288703805346  1.0000
  O   O14       1.0  0.42741832021601317  0.36744299693126703  0.029632889915078005  1.0000
  O   O15       1.0  0.4274012410517685  0.8674495935104647  0.47036851130221896  1.0000
  O   O16       1.0  0.5725905548172036  0.6325554607867048  0.9703710254517903  1.0000
