data_image0
_chemical_formula_structural       Cd2P2H20C12N2O14
_chemical_formula_sum              "Cd2 P2 H20 C12 N2 O14"
_cell_length_a       6.904108150699122
_cell_length_b       7.383946608206947
_cell_length_c       10.614814780356873
_cell_angle_alpha    84.3023217202113
_cell_angle_beta     75.59279948333464
_cell_angle_gamma    68.46839853986316

_space_group_name_H-M_alt    "P 1"
_space_group_IT_number       1

loop_
  _space_group_symop_operation_xyz
  'x, y, z'

loop_
  _atom_site_type_symbol
  _atom_site_label
  _atom_site_symmetry_multiplicity
  _atom_site_fract_x
  _atom_site_fract_y
  _atom_site_fract_z
  _atom_site_occupancy
  Cd  Cd1       1.0  0.25456770039234294  0.8158596307498701  0.9540200243571347  1.0000
  Cd  Cd2       1.0  0.7454328373404451  0.1841407260282679  0.04598120542076601  1.0000
  P   P1        1.0  0.19684798166156275  0.21828743968928427  0.12464378338543723  1.0000
  P   P2        1.0  0.8031519893581918  0.7817143778537597  0.8753564982746056  1.0000
  H   H1        1.0  0.21259368583469737  0.5347124092386368  0.8289816492177593  1.0000
  H   H2        1.0  0.7874008473040207  0.4652879902012331  0.17101962338985285  1.0000
  H   H3        1.0  0.3550895518211093  0.41278567833414576  0.9281904672279637  1.0000
  H   H4        1.0  0.6449100205222537  0.5872132465649429  0.07180819237951401  1.0000
  H   H5        1.0  0.1342499319675454  0.5778647650641986  0.1733188955305067  1.0000
  H   H6        1.0  0.8657502235976223  0.4221326893524307  0.8266825943258668  1.0000
  H   H7        1.0  0.35653336372876504  0.594407818239624  0.17885943188331774  1.0000
  H   H8        1.0  0.6434656749190992  0.4055925479892579  0.8211420438683916  1.0000
  H   H9        1.0  0.10732320437417536  0.8880655741135473  0.2704356862213686  1.0000
  H   H10       1.0  0.8926717274409339  0.11193771797027813  0.7295672084388087  1.0000
  H   H11       1.0  0.0207507408897669  0.2595226459007094  0.4744737065986797  1.0000
  H   H12       1.0  0.9792473619542298  0.7404879073458943  0.5255244046425105  1.0000
  H   H13       1.0  0.12949363351057028  0.4050478570748768  0.637874310658276  1.0000
  H   H14       1.0  0.8705080507250716  0.5949612067877937  0.36212613888419287  1.0000
  H   H15       1.0  0.5186925848127117  0.3537237785954447  0.606481560672556  1.0000
  H   H16       1.0  0.4813161335680505  0.646270745907913  0.39351306702631916  1.0000
  H   H17       1.0  0.7813716300194644  0.16880261665602353  0.40679400435092816  1.0000
  H   H18       1.0  0.21863503907211174  0.8311933683454242  0.5932018033349422  1.0000
  H   H19       1.0  0.4283151341350689  0.9284098733647141  0.21566209616506166  1.0000
  H   H20       1.0  0.5716799739710722  0.0715890604514726  0.7843410656259238  1.0000
  C   C1        1.0  0.33561904078997173  0.14725780812548814  0.35575654279666213  1.0000
  C   C2        1.0  0.6643799565859609  0.8527425823972834  0.6442402276274423  1.0000
  C   C3        1.0  0.18543945755428123  0.24921289263707544  0.462495148926692  1.0000
  C   C4        1.0  0.8145661819862512  0.7507975890619464  0.5375064377730608  1.0000
  C   C5        1.0  0.24637384769093276  0.32703682185138666  0.5536393885682003  1.0000
  C   C6        1.0  0.7536252681953215  0.6729592444151962  0.4463510615280626  1.0000
  C   C7        1.0  0.462377240126692  0.30018065850810427  0.536004197045834  1.0000
  C   C8        1.0  0.5376201479083846  0.6998240608628097  0.46400008074543553  1.0000
  C   C9        1.0  0.6093469388139569  0.2013432694098612  0.4285370316843284  1.0000
  C   C10       1.0  0.39065085427841234  0.7986484480398277  0.571453931516551  1.0000
  C   C11       1.0  0.28193502241654766  0.04877010367399491  0.259984994198895  1.0000
  C   C12       1.0  0.7180626851830425  0.9512259185967624  0.7400160535919085  1.0000
  N   N1        1.0  0.5454360256993313  0.12806693251417306  0.33979398003616973  1.0000
  N   N2        1.0  0.45457574863198175  0.8719275390762675  0.6602067431737381  1.0000
  O   O1        1.0  0.09911663347251932  0.11501231856023252  0.05165577804730501  1.0000
  O   O2        1.0  0.900883522092649  0.8849851358563966  0.9483457118090683  1.0000
  O   O3        1.0  0.35082910602763206  0.5137026375622896  0.8556798614289818  1.0000
  O   O4        1.0  0.6491725403680776  0.4862948122623792  0.14432044138806788  1.0000
  O   O5        1.0  0.39823705144412  0.247926969838595  0.037791405386720094  1.0000
  O   O6        1.0  0.6017595722557161  0.752071944809302  0.9622133925614945  1.0000
  O   O7        1.0  0.21162791435849473  0.6732254677004335  0.1663900480237643  1.0000
  O   O8        1.0  0.7883726316286828  0.326774884218928  0.8336121228196588  1.0000
  O   O9        1.0  0.02919761984794182  0.4107294892586708  0.18470499638371507  1.0000
  O   O10       1.0  0.9708001042604266  0.5892665232945334  0.8152979335381331  1.0000
  O   O11       1.0  0.11336928294543469  0.9834240957074841  0.3273716614288915  1.0000
  O   O12       1.0  0.8866258169063246  0.0165748429674863  0.6726305592965715  1.0000
  O   O13       1.0  0.6917142221121114  0.027535128792095506  0.2407095230101816  1.0000
  O   O14       1.0  0.3082825531155962  0.9724594421644994  0.7592927188722881  1.0000
