data_image0
_chemical_formula_structural       Zn3H78C126N18
_chemical_formula_sum              "Zn3 H78 C126 N18"
_cell_length_a       9.412538216152994
_cell_length_b       19.277774136246293
_cell_length_c       19.273569958345924
_cell_angle_alpha    117.4140870526629
_cell_angle_beta     99.35360072358944
_cell_angle_gamma    99.3767584292262

_space_group_name_H-M_alt    "P 1"
_space_group_IT_number       1

loop_
  _space_group_symop_operation_xyz
  'x, y, z'

loop_
  _atom_site_type_symbol
  _atom_site_label
  _atom_site_symmetry_multiplicity
  _atom_site_fract_x
  _atom_site_fract_y
  _atom_site_fract_z
  _atom_site_occupancy
  Zn  Zn1       1.0  5.408606754069818e-07  0.49999996416661224  0.9999996241660443  1.0000
  Zn  Zn2       1.0  0.4999993324931966  0.5000000475494987  0.5000001624148428  1.0000
  Zn  Zn3       1.0  4.0572971469974905e-07  1.2230218260001895e-07  0.5000004067989396  1.0000
  H   H1        1.0  0.9655172732931093  0.40168218573645487  0.21328467493286507  1.0000
  H   H2        1.0  0.5635169930244716  0.8115057240774064  0.5981005538121881  1.0000
  H   H3        1.0  0.7517196395628007  0.7865068584982495  0.1884188334894574  1.0000
  H   H4        1.0  0.034483242484199664  0.5983173021227871  0.7867144800078453  1.0000
  H   H5        1.0  0.4364813674074739  0.1884937640161723  0.4019005050588761  1.0000
  H   H6        1.0  0.24827979854183013  0.21349262947816064  0.8115812734164296  1.0000
  H   H7        1.0  0.6846185934930064  0.34832888406380397  0.11948644710548713  1.0000
  H   H8        1.0  0.3361108720075806  0.7710186667983836  0.6515822435433025  1.0000
  H   H9        1.0  0.5648109546665339  0.8804287413040938  0.22894942909621113  1.0000
  H   H10       1.0  0.3153825290665039  0.6516718181659654  0.880513833959313  1.0000
  H   H11       1.0  0.6638891724139099  0.22898203562048988  0.3484195083280569  1.0000
  H   H12       1.0  0.43518848343809685  0.11957074667231639  0.7710506778096757  1.0000
  H   H13       1.0  0.42274666377770137  0.3515866813116376  0.8509768873087611  1.0000
  H   H14       1.0  0.07100743813214193  0.49942400175601875  0.6483554912603682  1.0000
  H   H15       1.0  0.5718012573873567  0.1489632545421031  0.500776993431636  1.0000
  H   H16       1.0  0.5772536856635785  0.6484146280407261  0.14902361167984435  1.0000
  H   H17       1.0  0.9289923035962603  0.5005760933696808  0.35164491928687636  1.0000
  H   H18       1.0  0.42819986563749524  0.8510374476157309  0.4992227687917962  1.0000
  H   H19       1.0  0.5160377603052879  0.4214023158036327  0.7673013597002483  1.0000
  H   H20       1.0  0.09443667586174345  0.34594569443039813  0.5786427411405415  1.0000
  H   H21       1.0  0.7486471867149473  0.23268097964997747  0.654266076983234  1.0000
  H   H22       1.0  0.4839619828191317  0.5785977791062535  0.23269749432288497  1.0000
  H   H23       1.0  0.9055627617775387  0.6540537936179476  0.42135788460671364  1.0000
  H   H24       1.0  0.2513522518550247  0.7673185082544907  0.345733511081278  1.0000
  H   H25       1.0  0.39777547297525473  0.429489986390756  0.011729447432863103  1.0000
  H   H26       1.0  0.9684482163753646  0.5823297254401113  0.5704858367853732  1.0000
  H   H27       1.0  0.38600739166885467  0.9882733588586416  0.417833605847406  1.0000
  H   H28       1.0  0.6022231915458035  0.5705101087801764  0.9882713962381974  1.0000
  H   H29       1.0  0.031550145452605684  0.41766976243764725  0.4295136655615793  1.0000
  H   H30       1.0  0.6139966584235735  0.011726736158088598  0.5821655910459782  1.0000
  H   H31       1.0  0.16474763999238462  0.3449354679311086  0.006818807090169845  1.0000
  H   H32       1.0  0.8201286519537094  0.6619506662077015  0.6551761965186886  1.0000
  H   H33       1.0  0.1580507912129789  0.9932568504884217  0.33820229034275695  1.0000
  H   H34       1.0  0.835251024528674  0.6550646272398241  0.9931820365808907  1.0000
  H   H35       1.0  0.1798713933984644  0.33805003606729395  0.3448245176699275  1.0000
  H   H36       1.0  0.8419524848305429  0.0067438517947664  0.661798162157176  1.0000
  H   H37       1.0  0.1456507332121362  0.20222181075587287  0.9753601690926461  1.0000
  H   H38       1.0  0.943818941518451  0.7730519859844733  0.7979683869633408  1.0000
  H   H39       1.0  0.17076414990612682  0.024988207594788002  0.22712765615492006  1.0000
  H   H40       1.0  0.854348705357829  0.7977776771486023  0.024639418971872905  1.0000
  H   H41       1.0  0.056183258248403034  0.22694871620007012  0.20203146097765778  1.0000
  H   H42       1.0  0.8292386566429285  0.9750137089602829  0.7728733179101754  1.0000
  H   H43       1.0  0.3636844947206583  0.14537802045207118  0.9484096179939672  1.0000
  H   H44       1.0  0.21868235741042952  0.8028719931640752  0.8547695813094198  1.0000
  H   H45       1.0  0.41581165426094213  0.0519640686373251  0.19730771769209815  1.0000
  H   H46       1.0  0.6363152484037614  0.8546220744578222  0.05158923602916603  1.0000
  H   H47       1.0  0.7813187656144294  0.197128708993759  0.14523018091401246  1.0000
  H   H48       1.0  0.58418916560548  0.9480360262992703  0.8026912220485942  1.0000
  H   H49       1.0  0.5988077633445243  0.231462185476758  0.9556657107374638  1.0000
  H   H50       1.0  0.36759328640791716  0.7240358330665585  0.7685527566961172  1.0000
  H   H51       1.0  0.6435056860833087  0.044434253694056694  0.2760039142738436  1.0000
  H   H52       1.0  0.401191206196323  0.7685385166276575  0.04433388005084291  1.0000
  H   H53       1.0  0.6324072289040502  0.2759636548646184  0.23144691708596102  1.0000
  H   H54       1.0  0.35649651461422854  0.9555664483466091  0.7239948959844117  1.0000
  H   H55       1.0  0.13566820569427313  0.5748767149268659  0.3145025337550039  1.0000
  H   H56       1.0  0.5607472973613241  0.7396401798618583  0.42522804462476693  1.0000
  H   H57       1.0  0.8212374528033877  0.6854381645071541  0.2602822895184574  1.0000
  H   H58       1.0  0.8643318401232349  0.4251239872761944  0.685497661592237  1.0000
  H   H59       1.0  0.4392513680904173  0.2603599151651963  0.5747717613635432  1.0000
  H   H60       1.0  0.17876198576657745  0.3145613233973138  0.7397172985460618  1.0000
  H   H61       1.0  0.4678480595264746  0.40262633143197496  0.31158169477074454  1.0000
  H   H62       1.0  0.06535243085640015  0.9090086077223204  0.5973205441452623  1.0000
  H   H63       1.0  0.15642215878795435  0.6883821519879162  0.09091016868278247  1.0000
  H   H64       1.0  0.532152759874606  0.5973737635765628  0.688417763811323  1.0000
  H   H65       1.0  0.9346467031591176  0.0909902731767289  0.4026797779606286  1.0000
  H   H66       1.0  0.8435765066637799  0.3116179430391456  0.9090896373055346  1.0000
  H   H67       1.0  0.2505558946819662  0.5698723060450633  0.43839725182694894  1.0000
  H   H68       1.0  0.6808047158148514  0.8684102645705637  0.4300514404393143  1.0000
  H   H69       1.0  0.8125404063670774  0.561528666213626  0.13143159230218543  1.0000
  H   H70       1.0  0.7494421630568908  0.4301265747553344  0.5616024657200074  1.0000
  H   H71       1.0  0.31919502544820944  0.13158983062707819  0.5699494889493053  1.0000
  H   H72       1.0  0.1874590326682366  0.4384708216189069  0.8685674769209587  1.0000
  H   H73       1.0  0.36263210234645976  0.40038916345989145  0.18197253439978314  1.0000
  H   H74       1.0  0.9625746419217408  0.7815247606476132  0.599410519375816  1.0000
  H   H75       1.0  0.18083551154263938  0.8179535139465486  0.21835173882759315  1.0000
  H   H76       1.0  0.6373665631052817  0.5996109315671632  0.818027271588527  1.0000
  H   H77       1.0  0.03742465936048229  0.21847229861444353  0.4005874209994361  1.0000
  H   H78       1.0  0.8191642306511043  0.18204658110721542  0.7816481528782833  1.0000
  C   C1        1.0  0.01664947077052404  0.4480971497683584  0.1288336787160987  1.0000
  C   C2        1.0  0.5684341490303453  0.6806953756841239  0.5517324238021787  1.0000
  C   C3        1.0  0.8874215747857052  0.8709378646087487  0.31925452950053324  1.0000
  C   C4        1.0  0.9833505750469912  0.5519035524347019  0.8711665166311422  1.0000
  C   C5        1.0  0.4315645154907132  0.3193047194868086  0.4482684198688818  1.0000
  C   C6        1.0  0.11257786331892561  0.1290616233676616  0.6807455774053539  1.0000
  C   C7        1.0  0.9258867042341593  0.4083306917066666  0.16117423068072878  1.0000
  C   C8        1.0  0.5172934890371723  0.7527517734814566  0.5914639632325064  1.0000
  C   C9        1.0  0.7642203619051531  0.838604012995887  0.24720187405451097  1.0000
  C   C10       1.0  0.07411273480114747  0.5916687961258661  0.8388248385424081  1.0000
  C   C11       1.0  0.48270732850255627  0.24724832181483683  0.40853757071504765  1.0000
  C   C12       1.0  0.23577799945747568  0.16139547495380668  0.7527981471338097  1.0000
  C   C13       1.0  0.7827423373439049  0.38017791971687126  0.11271286239384891  1.0000
  C   C14       1.0  0.4023761504505785  0.7324343651022361  0.6196727105394617  1.0000
  C   C15       1.0  0.6696265915322926  0.8871136713138058  0.2675596181055442  1.0000
  C   C16       1.0  0.2172577089389521  0.6198227824142537  0.8872868141120169  1.0000
  C   C17       1.0  0.5976249711782559  0.26756633727141127  0.38032860820808895  1.0000
  C   C18       1.0  0.33037176936499424  0.11288581670783057  0.7324409219241448  1.0000
  C   C19       1.0  0.7849356940440656  0.40241053120464443  0.05042166381596768  1.0000
  C   C20       1.0  0.3825002054571982  0.6479417010091595  0.5974714631978346  1.0000
  C   C21       1.0  0.7342777094599812  0.9494472247654285  0.3520654095631102  1.0000
  C   C22       1.0  0.21506297187301732  0.5975895637504749  0.9495776233309672  1.0000
  C   C23       1.0  0.6175019919829552  0.3520590015350749  0.40253097895002565  1.0000
  C   C24       1.0  0.265721729109984  0.0505522631390392  0.6479341785014016  1.0000
  C   C25       1.0  0.6576827950427672  0.38765654312764747  0.99001034752601  1.0000
  C   C26       1.0  0.2701073883402784  0.6022862380516684  0.6122712132098871  1.0000
  C   C27       1.0  0.6677052816069491  0.009992915714555297  0.3977997901200896  1.0000
  C   C28       1.0  0.3423158704089745  0.6123435518994074  0.00998945846230023  1.0000
  C   C29       1.0  0.7298928224172415  0.39771264287409025  0.3877291946135772  1.0000
  C   C30       1.0  0.33229661453613357  0.9900071793206991  0.6021997541795445  1.0000
  C   C31       1.0  0.6570658463094077  0.4159573847833613  0.9340752272816818  1.0000
  C   C32       1.0  0.24108068249261547  0.5180700500246898  0.5839831061291392  1.0000
  C   C33       1.0  0.7230896784870781  0.06593108116312861  0.48203659612289596  1.0000
  C   C34       1.0  0.34293359226056463  0.5840421031211067  0.06592436078283018  1.0000
  C   C35       1.0  0.7589195282649045  0.48192883090106875  0.4160173016943178  1.0000
  C   C36       1.0  0.27690898742999787  0.9340690137919906  0.5179626910240459  1.0000
  C   C37       1.0  0.531514262348722  0.3917731258890029  0.8654939148266013  1.0000
  C   C38       1.0  0.13958704332089408  0.4737249521676361  0.6081649170921894  1.0000
  C   C39       1.0  0.6660358630472275  0.1344656348495121  0.5264483133314857  1.0000
  C   C40       1.0  0.468486555656341  0.6082269693353483  0.13450710027958487  1.0000
  C   C41       1.0  0.8604116212001643  0.5262751430032964  0.39183592657887106  1.0000
  C   C42       1.0  0.33396387961185076  0.8655344601323165  0.47355105953301574  1.0000
  C   C43       1.0  0.5793430556315684  0.42677888072313414  0.8227486443703572  1.0000
  C   C44       1.0  0.1523678990628738  0.3959673827060186  0.5731990983863967  1.0000
  C   C45       1.0  0.7565810672727197  0.1772468568111876  0.6042076477338443  1.0000
  C   C46       1.0  0.4206548362366009  0.57322182149845  0.1772518983831263  1.0000
  C   C47       1.0  0.8476318417348451  0.6040327125635585  0.42680234984359805  1.0000
  C   C48       1.0  0.24341837129724553  0.8227526310932802  0.3957919403306677  1.0000
  C   C49       1.0  0.7346865581648104  0.4723116925071906  0.8648617186691612  1.0000
  C   C50       1.0  0.2622509170947467  0.3925081669338867  0.5276758204489271  1.0000
  C   C51       1.0  0.8698937479269092  0.1351821139187024  0.607610655023585  1.0000
  C   C52       1.0  0.26531426123626994  0.5276884025013472  0.13513773991291342  1.0000
  C   C53       1.0  0.737748824168314  0.6074919282637552  0.47232510893969987  1.0000
  C   C54       1.0  0.1301056906430561  0.8648173739857654  0.3923889330409269  1.0000
  C   C55       1.0  0.17118026104156311  0.4872020241431159  0.162770599173527  1.0000
  C   C56       1.0  0.6840194849142948  0.6755827880670395  0.5127382826843745  1.0000
  C   C57       1.0  0.008196489569776599  0.8371181097639493  0.3243193936176142  1.0000
  C   C58       1.0  0.8288216355668612  0.5127980708201961  0.837228426284739  1.0000
  C   C59       1.0  0.31597779924099  0.3244166999278875  0.48726217162775515  1.0000
  C   C60       1.0  0.9918029485348541  0.162881378212461  0.675680713288273  1.0000
  C   C61       1.0  0.514825048065191  0.3363924310143815  0.9842739371677924  1.0000
  C   C62       1.0  0.17860571204259656  0.6478472836082644  0.6635938709814655  1.0000
  C   C63       1.0  0.5306590995811863  0.015781336528078792  0.3522798635366443  1.0000
  C   C64       1.0  0.48517499775231704  0.6636082711886786  0.015726258179448387  1.0000
  C   C65       1.0  0.8213940292204639  0.3521528115893773  0.3364070584071613  1.0000
  C   C66       1.0  0.4693440105916407  0.9842211871762881  0.6477214141698157  1.0000
  C   C67       1.0  0.390515130513407  0.36718119585265896  0.9976452840702382  1.0000
  C   C68       1.0  0.02353932311424967  0.6305178068475569  0.6328392134224715  1.0000
  C   C69       1.0  0.39291582507122774  0.0024091897806286997  0.3696431253126989  1.0000
  C   C70       1.0  0.6094849143734251  0.6328195064942792  0.0023559489597460054  1.0000
  C   C71       1.0  0.9764593414068086  0.3694822883233755  0.3671616302485888  1.0000
  C   C72       1.0  0.6070868446554272  0.9975902980600966  0.6303556822217619  1.0000
  C   C73       1.0  0.2589602957710896  0.3193362666710514  0.9950117763098025  1.0000
  C   C74       1.0  0.9399369581430295  0.6757292097244659  0.680763526012925  1.0000
  C   C75       1.0  0.2641101145347236  0.0050954720478842  0.32444335369733324  1.0000
  C   C76       1.0  0.7410397495810843  0.6806644356039512  0.0049889378788065255  1.0000
  C   C77       1.0  0.0600623140909136  0.32427209967311643  0.3192374060994895  1.0000
  C   C78       1.0  0.7358920861628063  0.9949052299927882  0.6755554565609218  1.0000
  C   C79       1.0  0.24883784765048497  0.2396478355163724  0.9778560295623111  1.0000
  C   C80       1.0  0.009567869516800467  0.7381716451480856  0.7605016638696259  1.0000
  C   C81       1.0  0.271364459637823  0.0224209228711274  0.2620317406853801  1.0000
  C   C82       1.0  0.7511618945432516  0.7603522595373987  0.022143862143565205  1.0000
  C   C83       1.0  0.99043386029026  0.2618302713802763  0.2394992244779034  1.0000
  C   C84       1.0  0.7286369679414832  0.9775803862921251  0.7379672874966733  1.0000
  C   C85       1.0  0.3711592965412295  0.20795186197856452  0.9632628517082228  1.0000
  C   C86       1.0  0.1635669698817282  0.7551970749794777  0.7921676854987826  1.0000
  C   C87       1.0  0.40835351843060863  0.037034021334541506  0.24498250080502265  1.0000
  C   C88       1.0  0.6288382930991859  0.792048232877903  0.0367358308797776  1.0000
  C   C89       1.0  0.8364341526777821  0.24480362725029192  0.20783259556602482  1.0000
  C   C90       1.0  0.5916486818015869  0.9629666807780596  0.7550168282946007  1.0000
  C   C91       1.0  0.5030985349889648  0.2560415842331238  0.9667997446340026  1.0000
  C   C92       1.0  0.24730710639361328  0.7106405084059945  0.7439998333445746  1.0000
  C   C93       1.0  0.5366377087901455  0.03334105529807369  0.28946257751337623  1.0000
  C   C94       1.0  0.4969001309281111  0.7439585107219955  0.03319954251293921  1.0000
  C   C95       1.0  0.7526940157005627  0.2893601938957175  0.25600096656160093  1.0000
  C   C96       1.0  0.46336418781827166  0.9666590396652383  0.7105364479448826  1.0000
  C   C97       1.0  0.24026799088230907  0.48768635487769546  0.23810617824569413  1.0000
  C   C98       1.0  0.7526453121789631  0.7504297599269166  0.5123009636293576  1.0000
  C   C99       1.0  0.002103482262072011  0.7618487276231037  0.24945851290350168  1.0000
  C   C100      1.0  0.7597331316772014  0.5123143473520811  0.7618941028191062  1.0000
  C   C101      1.0  0.24735167021391652  0.24956912063095868  0.4876971116759138  1.0000
  C   C102      1.0  0.9978970330499024  0.23815076030807353  0.7505411608785766  1.0000
  C   C103      1.0  0.20887590574670173  0.5357397991518483  0.31146714824351585  1.0000
  C   C104      1.0  0.6731238796866921  0.7757406354659012  0.46431690303573014  1.0000
  C   C105      1.0  0.8975085132487806  0.688475793538167  0.22417260712046538  1.0000
  C   C106      1.0  0.791119694419038  0.4642584745177771  0.6885326130683256  1.0000
  C   C107      1.0  0.326875257120868  0.22425824500152197  0.5356803060219308  1.0000
  C   C108      1.0  0.1024912294102975  0.31152430144366144  0.7758267657440359  1.0000
  C   C109      1.0  0.39374353402859447  0.4400413924596407  0.3095302355390289  1.0000
  C   C110      1.0  0.9538199664298335  0.8695029561210389  0.5598842220621877  1.0000
  C   C111      1.0  0.0843654133796718  0.6904186090733405  0.13039655418493382  1.0000
  C   C112      1.0  0.6062559045413708  0.5599580954448272  0.6904693525254832  1.0000
  C   C113      1.0  0.046178092239706786  0.13049592453548797  0.4401144578020252  1.0000
  C   C114      1.0  0.9156343288140718  0.3095814859804237  0.8696033375209427  1.0000
  C   C115      1.0  0.27227954510724584  0.5329812156132336  0.3802694129414734  1.0000
  C   C116      1.0  0.7394024590460475  0.8472295100642956  0.46697278154238864  1.0000
  C   C117      1.0  0.8923039358232716  0.619657963481501  0.1526525358553955  1.0000
  C   C118      1.0  0.7277191203444958  0.4670188794138213  0.6197303930468367  1.0000
  C   C119      1.0  0.26059590278192246  0.15276997781346321  0.5330267208045643  1.0000
  C   C120      1.0  0.10769550321204244  0.3803415243510315  0.8473465333677412  1.0000
  C   C121      1.0  0.33576086413106754  0.43903682284494033  0.23781936306146187  1.0000
  C   C122      1.0  0.8969282250971915  0.7987486988747605  0.5608383555509635  1.0000
  C   C123      1.0  0.09804887108444396  0.7621262568071501  0.20112773324385108  1.0000
  C   C124      1.0  0.6642374972315608  0.5609626651047606  0.762180658126859  1.0000
  C   C125      1.0  0.10306922585945702  0.20124896755510951  0.4391602358718957  1.0000
  C   C126      1.0  0.9019516446928649  0.23787323105209168  0.7988714216968591  1.0000
  N   N1        1.0  0.9286287497656572  0.4425022581621221  0.06140220898706168  1.0000
  N   N2        1.0  0.48612220017035673  0.6188670479121895  0.5573811120344488  1.0000
  N   N3        1.0  0.866987310986602  0.9384378027738479  0.38111396566808536  1.0000
  N   N4        1.0  0.07137099242808631  0.5574978368916419  0.9385976827188147  1.0000
  N   N5        1.0  0.5138775406273624  0.38113304735738746  0.442620336195546  1.0000
  N   N6        1.0  0.1330121271180289  0.0615616852025553  0.6188861412378018  1.0000
  N   N7        1.0  0.7774241521796484  0.4656143836293865  0.9324842659599711  1.0000
  N   N8        1.0  0.31179821141299163  0.4668082573788156  0.5343648183760339  1.0000
  N   N9        1.0  0.8450647592065368  0.0675644730796208  0.5332754139571777  1.0000
  N   N10       1.0  0.2225746796081155  0.5343838899045538  0.06751419598044357  1.0000
  N   N11       1.0  0.6882015298500691  0.5331918378188262  0.46563611101259295  1.0000
  N   N12       1.0  0.1549339057798632  0.9324356220193691  0.4667249108725074  1.0000
  N   N13       1.0  0.3631798352455533  0.48598532100555747  0.379636790292004  1.0000
  N   N14       1.0  0.877287165702022  0.8936485209805981  0.5139623948900155  1.0000
  N   N15       1.0  0.9837698802479338  0.6203072449268703  0.10624646980049599  1.0000
  N   N16       1.0  0.6368188302061809  0.5140147740215041  0.6203630156963059  1.0000
  N   N17       1.0  0.1227111956606066  0.10635096696910301  0.48603762629830544  1.0000
  N   N18       1.0  0.01623016556958126  0.37969345727618986  0.893753725546745  1.0000
