data_image0
_chemical_formula_structural       Dy4H48C40N4O32
_chemical_formula_sum              "Dy4 H48 C40 N4 O32"
_cell_length_a       9.143331927134431
_cell_length_b       11.423283925546505
_cell_length_c       12.71879834204707
_cell_angle_alpha    89.9999172905926
_cell_angle_beta     90.0003107690602
_cell_angle_gamma    100.42779891540673

_space_group_name_H-M_alt    "P 1"
_space_group_IT_number       1

loop_
  _space_group_symop_operation_xyz
  'x, y, z'

loop_
  _atom_site_type_symbol
  _atom_site_label
  _atom_site_symmetry_multiplicity
  _atom_site_fract_x
  _atom_site_fract_y
  _atom_site_fract_z
  _atom_site_occupancy
  Dy  Dy1       1.0  0.5608392712312947  0.5895759324732663  0.2203981019288435  1.0000
  Dy  Dy2       1.0  0.9391630598955201  0.41042004076384586  0.7204013807217818  1.0000
  Dy  Dy3       1.0  0.4391619753914284  0.4104212917990324  0.7796001805389281  1.0000
  Dy  Dy4       1.0  0.06083981577248923  0.5895745354318294  0.2796008329398845  1.0000
  H   H1        1.0  0.61349896536894  0.8721055786886183  0.4167664137441278  1.0000
  H   H2        1.0  0.8864907319003518  0.12788571017755856  0.9167722149648583  1.0000
  H   H3        1.0  0.38649225882950583  0.1278959855839616  0.5832232200854932  1.0000
  H   H4        1.0  0.11349642291250459  0.8721069316727396  0.0832323573808083  1.0000
  H   H5        1.0  0.06928137103044206  0.9804750463021745  0.3216163557148803  1.0000
  H   H6        1.0  0.4307006873277998  0.0195294391092915  0.8216232572210062  1.0000
  H   H7        1.0  0.9307094475015132  0.019519408683955  0.6783795680209722  1.0000
  H   H8        1.0  0.5692790732271147  0.9804800032710471  0.1783813150992657  1.0000
  H   H9        1.0  0.7815538762527154  0.66401749247175  0.0487816421976959  1.0000
  H   H10       1.0  0.7184541629668146  0.33598574526548214  0.5487817986090349  1.0000
  H   H11       1.0  0.2184539772190277  0.3359851271245446  0.9512166402794406  1.0000
  H   H12       1.0  0.28155149830845966  0.6640168522920078  0.4512180563394352  1.0000
  H   H13       1.0  0.6592415554776352  0.7465831324916151  0.0329826873975563  1.0000
  H   H14       1.0  0.8407566287745495  0.2534102458953242  0.5329842150132933  1.0000
  H   H15       1.0  0.34075693576824045  0.2534113996284901  0.9670148088288002  1.0000
  H   H16       1.0  0.15924461785693464  0.7465869783763706  0.46701642616788064  1.0000
  H   H17       1.0  0.06533312055070438  0.1804006367624282  0.4072389531171723  1.0000
  H   H18       1.0  0.434646285226975  0.819603771137828  0.9072471833792406  1.0000
  H   H19       1.0  0.9346639293708491  0.8195974334725165  0.5927538256772777  1.0000
  H   H20       1.0  0.5653294361260564  0.1804020780331186  0.0927566026977047  1.0000
  H   H21       1.0  0.6296666118972708  0.07610839813119698  0.5015587806011368  1.0000
  H   H22       1.0  0.8703190639730564  0.9238786561117392  0.0015625621298909  1.0000
  H   H23       1.0  0.37032332847614663  0.9238922650841769  0.4984308532265658  1.0000
  H   H24       1.0  0.12966586838371796  0.07610863449216508  0.9984388652637435  1.0000
  H   H25       1.0  0.27863901613454084  0.5124478358118834  0.0991078418019882  1.0000
  H   H26       1.0  0.22136349992296542  0.4875578755427981  0.599114887674709  1.0000
  H   H27       1.0  0.721363919985542  0.4875573988036521  0.9008857232370602  1.0000
  H   H28       1.0  0.7786423490995346  0.5124456120510601  0.40089125717592816  1.0000
  H   H29       1.0  0.398912490868554  0.5597369095294837  0.0097395399501039  1.0000
  H   H30       1.0  0.1010911481655512  0.4402617609772578  0.5097446059918056  1.0000
  H   H31       1.0  0.6010944239721496  0.4402612598776229  0.9902555975769118  1.0000
  H   H32       1.0  0.8989124784067072  0.5597363753698019  0.4902599663823963  1.0000
  H   H33       1.0  0.29585492565309573  0.2938479465325159  0.45388445843437353  1.0000
  H   H34       1.0  0.20415129029079537  0.7061522624452862  0.9538738543164911  1.0000
  H   H35       1.0  0.7041531156067363  0.7061555630972903  0.5461311212741009  1.0000
  H   H36       1.0  0.7958521484992146  0.2938449838678565  0.0461149933019698  1.0000
  H   H37       1.0  0.4108742910599829  0.17514655817329577  0.3237828469420734  1.0000
  H   H38       1.0  0.08913571878946405  0.8248555425021917  0.8237755702735968  1.0000
  H   H39       1.0  0.5891359423788102  0.8248569734965372  0.6762264428682769  1.0000
  H   H40       1.0  0.9108810609265984  0.17514272608013928  0.17621013241902264  1.0000
  H   H41       1.0  0.41887393158467745  0.29029316045941295  0.2280897849414814  1.0000
  H   H42       1.0  0.08113280010121568  0.7097071877851205  0.7280755513706082  1.0000
  H   H43       1.0  0.5811322929293468  0.7097121072073875  0.7719281534756918  1.0000
  H   H44       1.0  0.9188784688582315  0.2902856964930294  0.2719077926013895  1.0000
  H   H45       1.0  0.2437509401140189  0.20954137814781154  0.2697773966645798  1.0000
  H   H46       1.0  0.2562649001588682  0.7904643658144862  0.7697684581261443  1.0000
  H   H47       1.0  0.756264991805267  0.7904684278642048  0.7302342518661861  1.0000
  H   H48       1.0  0.7437557008077106  0.20953127672940747  0.23022196200243167  1.0000
  C   C1        1.0  0.839372091887675  0.789701808321453  0.3199653104329272  1.0000
  C   C2        1.0  0.6606260611596183  0.21029672824047907  0.8199693367018668  1.0000
  C   C3        1.0  0.1606265870820778  0.2102936138366545  0.6800321857932232  1.0000
  C   C4        1.0  0.33936826366219447  0.7897039790486315  0.1800320907013244  1.0000
  C   C5        1.0  0.8414088557432675  0.9126005982190082  0.3640377938771238  1.0000
  C   C6        1.0  0.6585797596258017  0.0873978162880746  0.8640443314720372  1.0000
  C   C7        1.0  0.1585845304270777  0.0873956588823361  0.6359549849113649  1.0000
  C   C8        1.0  0.3414059841310859  0.9126036928840263  0.1359625995784768  1.0000
  C   C9        1.0  0.7147478420062399  0.9393093286075214  0.4138016645750326  1.0000
  C   C10       1.0  0.7852400164834421  0.060683719836390496  0.9138040137064749  1.0000
  C   C11       1.0  0.28524573190256314  0.06068781853080198  0.5861950454022349  1.0000
  C   C12       1.0  0.2147466053940406  0.9393115811091235  0.0861989861608237  1.0000
  C   C13       1.0  0.9698378406498376  0.9999552953952671  0.3598976590463892  1.0000
  C   C14       1.0  0.5301451059999279  4.750533558709905e-05  0.8599061685150462  1.0000
  C   C15       1.0  0.0301546371548937  4.184072406590004e-05  0.6400982646909483  1.0000
  C   C16       1.0  0.4698371919746264  0.999958409949528  0.140101548763667  1.0000
  C   C17       1.0  0.26575663359554375  0.4312132115308033  0.3482336059046318  1.0000
  C   C18       1.0  0.2342446315104354  0.5687932274670047  0.8482288023188289  1.0000
  C   C19       1.0  0.7342499663253718  0.5687938362148586  0.6517733251829442  1.0000
  C   C20       1.0  0.7657542654194386  0.4312084139383216  0.1517671214280796  1.0000
  C   C21       1.0  0.9681133110227332  0.109264799001906  0.4078500946121508  1.0000
  C   C22       1.0  0.5318688955517172  0.89073796581426  0.9078574470567772  1.0000
  C   C23       1.0  0.031881546708177666  0.8907332491938289  0.5921458291292296  1.0000
  C   C24       1.0  0.46810992639841925  0.10926702637505771  0.0921510564535595  1.0000
  C   C25       1.0  0.7240546960091336  0.0508621821742778  0.46018164459446353  1.0000
  C   C26       1.0  0.7759303760125462  0.949126369961924  0.9601835828397541  1.0000
  C   C27       1.0  0.27593850242565315  0.949133184889888  0.5398079892430516  1.0000
  C   C28       1.0  0.22404982674271415  0.0508644256973909  0.0398202032557649  1.0000
  C   C29       1.0  0.3534107809198943  0.3386920165004028  0.38524991282670124  1.0000
  C   C30       1.0  0.14659789876983345  0.6613171395105367  0.8852375703169528  1.0000
  C   C31       1.0  0.6465991375874367  0.6613203935088022  0.6147680255930155  1.0000
  C   C32       1.0  0.853407762461657  0.33868545805001554  0.114750491064548  1.0000
  C   C33       1.0  0.5137185333580446  0.3861907927154391  0.4196504568216426  1.0000
  C   C34       1.0  0.9862897220015935  0.6138157795713112  0.9196442188317775  1.0000
  C   C35       1.0  0.48629154259312896  0.6138171781256075  0.5803572605099063  1.0000
  C   C36       1.0  0.01371684763344663  0.38618593896860187  0.0803509186922469  1.0000
  C   C37       1.0  0.35677567477531363  0.2477259399178493  0.2959239301242604  1.0000
  C   C38       1.0  0.1432354422675246  0.7522824054895237  0.7959083106896755  1.0000
  C   C39       1.0  0.6432349643912616  0.752284701034142  0.7040955807736111  1.0000
  C   C40       1.0  0.8567782368572804  0.24771672007403106  0.20407424704514912  1.0000
  N   N1        1.0  0.8483903670146801  0.1340351692819439  0.45813997319474  1.0000
  N   N2        1.0  0.651591994965905  0.8659613501789566  0.9581438938202284  1.0000
  N   N3        1.0  0.1516012024040165  0.8659628458568065  0.5418535918268574  1.0000
  N   N4        1.0  0.3483838536209801  0.13403473061278956  0.0418583197877496  1.0000
  O   O1        1.0  0.7147069796990024  0.7199383628985458  0.3211727741263246  1.0000
  O   O2        1.0  0.7852935320017591  0.28005575590377413  0.8211779817688124  1.0000
  O   O3        1.0  0.28529113610787954  0.2800543891449435  0.6788270808138606  1.0000
  O   O4        1.0  0.21470643081345028  0.7199405673101041  0.17882501812383822  1.0000
  O   O5        1.0  0.9612603705401241  0.7648102086501753  0.2878784136490182  1.0000
  O   O6        1.0  0.5387371688147409  0.23518656449527944  0.7878795732343775  1.0000
  O   O7        1.0  0.03873555305569449  0.23518252135554005  0.7121190825735155  1.0000
  O   O8        1.0  0.461257688924931  0.7648114836998374  0.21211870922039822  1.0000
  O   O9        1.0  0.3249501093022075  0.5200132252446321  0.2923062100643321  1.0000
  O   O10       1.0  0.1750561908489345  0.4799879686749691  0.792307581522614  1.0000
  O   O11       1.0  0.6750571810066717  0.47998672423705113  0.7076944311268463  1.0000
  O   O12       1.0  0.824948531815721  0.5200101786919049  0.2076946321403312  1.0000
  O   O13       1.0  0.12770267841488447  0.4171247802925961  0.37110814834733924  1.0000
  O   O14       1.0  0.3723014514241284  0.582873680563516  0.871105437345129  1.0000
  O   O15       1.0  0.8723036732833832  0.5828707189984712  0.6288948515583073  1.0000
  O   O16       1.0  0.6277017996682799  0.4171226757097912  0.1288904864137308  1.0000
  O   O17       1.0  0.6860747681634294  0.6812700441739066  0.07916167321979371  1.0000
  O   O18       1.0  0.8139301780760917  0.3187278155240065  0.5791630108418104  1.0000
  O   O19       1.0  0.3139314260384579  0.3187298942889853  0.9208373954936493  1.0000
  O   O20       1.0  0.1860734484844997  0.6812703208238772  0.4208384165811978  1.0000
  O   O21       1.0  0.5947313590011801  0.4667434167364277  0.3634156899454553  1.0000
  O   O22       1.0  0.9052784530762918  0.5332569875373563  0.8634108136805451  1.0000
  O   O23       1.0  0.4052786867020615  0.53325922489622  0.6365904549139216  1.0000
  O   O24       1.0  0.09472955785972197  0.46674119288935856  0.1365827513730125  1.0000
  O   O25       1.0  0.5574816202906517  0.33844854225743853  0.49954019600573935  1.0000
  O   O26       1.0  0.9425235342312276  0.661550846209856  0.999534511167802  1.0000
  O   O27       1.0  0.44252532483007895  0.6615549563558216  0.5004651626092311  1.0000
  O   O28       1.0  0.05748115817382879  0.338441971949436  0.0004629850717777  1.0000
  O   O29       1.0  0.38668979951900445  0.5406892942194973  0.0851161462372545  1.0000
  O   O30       1.0  0.11331405395750234  0.45931288628604233  0.5851220213046773  1.0000
  O   O31       1.0  0.6133162371865095  0.45931508341521976  0.9148789912839989  1.0000
  O   O32       1.0  0.8866924854704761  0.540683503042615  0.41488255107634586  1.0000
