data_image0
_chemical_formula_structural       Cd2H24C30S4N12
_chemical_formula_sum              "Cd2 H24 C30 S4 N12"
_cell_length_a       8.048401808390643
_cell_length_b       10.667427448103716
_cell_length_c       10.874600256323818
_cell_angle_alpha    61.905528339746745
_cell_angle_beta     87.3283683967354
_cell_angle_gamma    89.95012375140404

_space_group_name_H-M_alt    "P 1"
_space_group_IT_number       1

loop_
  _space_group_symop_operation_xyz
  'x, y, z'

loop_
  _atom_site_type_symbol
  _atom_site_label
  _atom_site_symmetry_multiplicity
  _atom_site_fract_x
  _atom_site_fract_y
  _atom_site_fract_z
  _atom_site_occupancy
  Cd  Cd1       1.0  0.23876587369945665  0.6606737120882614  0.549482134331626  1.0000
  Cd  Cd2       1.0  0.7612312363497368  0.3393270298457692  0.4505145177375951  1.0000
  H   H1        1.0  0.9711453100427435  0.5201057191169483  0.8245554673413694  1.0000
  H   H2        1.0  0.0288531328367014  0.47989713720618693  0.17544107912628706  1.0000
  H   H3        1.0  0.7935297113867249  0.5918894570520691  0.9766146558835445  1.0000
  H   H4        1.0  0.20646871308199619  0.4081123300691517  0.023383299232627035  1.0000
  H   H5        1.0  0.8119067266173445  0.8444406066728405  0.9309955457404796  1.0000
  H   H6        1.0  0.1880929404767997  0.1555600998058466  0.0690046861870357  1.0000
  H   H7        1.0  0.0028500021591285037  0.015120997371127504  0.737866405301901  1.0000
  H   H8        1.0  0.9971509443818789  0.9848807668688482  0.2621332861399137  1.0000
  H   H9        1.0  0.4686686236003935  0.8397965319363436  0.3329110482711926  1.0000
  H   H10       1.0  0.5313259625277382  0.1602020819010121  0.6670885283020738  1.0000
  H   H11       1.0  0.4753817005206997  0.2418888808019588  0.17846811336428914  1.0000
  H   H12       1.0  0.5246216797365477  0.7581118165030674  0.8215310359864033  1.0000
  H   H13       1.0  0.6442093742076977  0.40466813778053984  0.9640307209877362  1.0000
  H   H14       1.0  0.3557939701524973  0.5953314966096243  0.035968915245149405  1.0000
  H   H15       1.0  0.8296344300650419  0.3045056250673284  0.8434279340512205  1.0000
  H   H16       1.0  0.17036884250104123  0.6954918834931123  0.15657267594607296  1.0000
  H   H17       1.0  0.8436111003586718  0.04441042273246149  0.9354616053540711  1.0000
  H   H18       1.0  0.15638979095017902  0.9555881339017772  0.06454231203331069  1.0000
  H   H19       1.0  0.6691561715560966  0.8808397292935483  0.14751801135399478  1.0000
  H   H20       1.0  0.3308434062576069  0.11915885764246778  0.8524822725715921  1.0000
  H   H21       1.0  0.2884756993093376  0.15488062785733803  0.44202609861128656  1.0000
  H   H22       1.0  0.711522778542772  0.845122215891692  0.5579722913890066  1.0000
  H   H23       1.0  0.1331447383149325  0.14008107292698915  0.5654480654115162  1.0000
  H   H24       1.0  0.8668512699238846  0.859921774842135  0.4345513535620997  1.0000
  C   C1        1.0  0.9743092259993489  0.6287794183095202  0.8093724599540266  1.0000
  C   C2        1.0  0.0256892702634772  0.3712244946414244  0.19062452139774425  1.0000
  C   C3        1.0  0.876288638988953  0.6691777698112134  0.8932406691452498  1.0000
  C   C4        1.0  0.1237110824129601  0.33082506878424306  0.10675766725154288  1.0000
  C   C5        1.0  0.8873183438983787  0.809531567683024  0.8675794415875799  1.0000
  C   C6        1.0  0.1126813057094296  0.1904691450827158  0.13241986857361351  1.0000
  C   C7        1.0  0.9946213847984494  0.9046904613597135  0.7595036225640541  1.0000
  C   C8        1.0  0.0053783007064183  0.09531131432088812  0.240495200714939  1.0000
  C   C9        1.0  0.08840627338840791  0.8564977958658205  0.6792059676900591  1.0000
  C   C10       1.0  0.9115934480135124  0.143505042729636  0.3207923687067336  1.0000
  C   C11       1.0  0.1997455913764057  0.9538094305933599  0.5585174951369538  1.0000
  C   C12       1.0  0.8002540766421261  0.04619235137429459  0.4414804063757174  1.0000
  C   C13       1.0  0.4640420564322413  0.9539050364674039  0.30206331312195545  1.0000
  C   C14       1.0  0.5359564030091449  0.04609673807971149  0.6979364855268599  1.0000
  C   C15       1.0  0.5617621580706994  0.051094688754140805  0.1772142192169426  1.0000
  C   C16       1.0  0.438238644882091  0.9489028238264013  0.8227874197536736  1.0000
  C   C17       1.0  0.5563351957305328  0.1995650230245403  0.12453547865504787  1.0000
  C   C18       1.0  0.44366946304918997  0.8004356565528141  0.8754654606247884  1.0000
  C   C19       1.0  0.6518453311808372  0.2899369863925968  0.005477993892405722  1.0000
  C   C20       1.0  0.3481604993545844  0.7100615622014672  0.9945238655483237  1.0000
  C   C21       1.0  0.7552732467135783  0.2340717044607175  0.9370586902511278  1.0000
  C   C22       1.0  0.24473139365542101  0.7659279059147223  0.06294365767723066  1.0000
  C   C23       1.0  0.7616946369248154  0.0871403502232369  0.988587251782441  1.0000
  C   C24       1.0  0.23830870651098482  0.9128582086779672  0.01141471486528882  1.0000
  C   C25       1.0  0.6650050866519663  0.9958360699920163  0.10727295843764029  1.0000
  C   C26       1.0  0.3349933009953149  0.0041635787253824  0.8927278139755758  1.0000
  C   C27       1.0  0.9226221388572641  0.6723083848590575  0.3498772939338366  1.0000
  C   C28       1.0  0.07737253655130871  0.32769234852096213  0.6501222306413582  1.0000
  C   C29       1.0  0.39446813384110874  0.5070670405017593  0.3636201981078173  1.0000
  C   C30       1.0  0.6055387626076367  0.4929283393423561  0.6363793813107249  1.0000
  S   S1        1.0  0.8171173923993749  0.6200704611481245  0.2578617986194587  1.0000
  S   S2        1.0  0.1828772830091978  0.3799302722318956  0.7421377259557362  1.0000
  S   S3        1.0  0.46046368526688036  0.3900533084800699  0.31714798914345715  1.0000
  S   S4        1.0  0.5395432452301421  0.609940983300973  0.6828557642225733  1.0000
  N   N1        1.0  0.07783187492641731  0.7195153919047358  0.7057980206900466  1.0000
  N   N2        1.0  0.9221665495423039  0.2804863952164851  0.2941999344261248  1.0000
  N   N3        1.0  0.2837305828765935  0.8997316605644343  0.48697522049202036  1.0000
  N   N4        1.0  0.7162666330149821  0.1002701191362547  0.5130246317603024  1.0000
  N   N5        1.0  0.37510741192622993  0.0002970961283849994  0.37380294454233365  1.0000
  N   N6        1.0  0.6248934094372843  0.9997014856540644  0.6261972857797602  1.0000
  N   N7        1.0  0.21122076740845594  0.09098387903490131  0.5255517823383613  1.0000
  N   N8        1.0  0.7887763950997382  0.9090168440379787  0.47444763502983267  1.0000
  N   N9        1.0  0.9968888842429066  0.7147622362316781  0.4152682753914619  1.0000
  N   N10       1.0  0.0031056659881727056  0.28523531469081587  0.5847317880640047  1.0000
  N   N11       1.0  0.3483437788715166  0.5944831262970565  0.39413724604089856  1.0000
  N   N12       1.0  0.6516632040845067  0.4055111466228355  0.6058692726240977  1.0000
