data_image0
_chemical_formula_structural       Na2Tb2H32C36O24
_chemical_formula_sum              "Na2 Tb2 H32 C36 O24"
_cell_length_a       6.806259427297182
_cell_length_b       7.488098151218145
_cell_length_c       19.87634210935558
_cell_angle_alpha    90.00087551465225
_cell_angle_beta     99.89794564155731
_cell_angle_gamma    89.999760973439

_space_group_name_H-M_alt    "P 1"
_space_group_IT_number       1

loop_
  _space_group_symop_operation_xyz
  'x, y, z'

loop_
  _atom_site_type_symbol
  _atom_site_label
  _atom_site_symmetry_multiplicity
  _atom_site_fract_x
  _atom_site_fract_y
  _atom_site_fract_z
  _atom_site_occupancy
  Na  Na1       1.0  0.8378122469105023  0.2501557814509567  0.673506080296093  1.0000
  Na  Na2       1.0  0.16217850501508477  0.7501527735239292  0.326492648678716  1.0000
  Tb  Tb1       1.0  0.7066952724476893  0.7500653909960492  0.41414748878345614  1.0000
  Tb  Tb2       1.0  0.29329398820480185  0.2500628778814615  0.5858511510609786  1.0000
  H   H1        1.0  0.7680269866251521  0.1497406290931167  0.9384657302424415  1.0000
  H   H2        1.0  0.23197139812111803  0.6497465731529674  0.061533380944815995  1.0000
  H   H3        1.0  0.8259135274925667  0.8498576788337928  0.061708088290544076  1.0000
  H   H4        1.0  0.17408450718990306  0.34986599729220563  0.9382911407649954  1.0000
  H   H5        1.0  0.7058532069300866  0.15259869756908984  0.8116251703219604  1.0000
  H   H6        1.0  0.2941421923560412  0.6526069126194969  0.1883732767091857  1.0000
  H   H7        1.0  0.8905730209972303  0.8469461864730053  0.18849611620254336  1.0000
  H   H8        1.0  0.1094339699240336  0.34695758728976506  0.8115031252925746  1.0000
  H   H9        1.0  0.28362778077213585  0.14777718906191953  0.15782449460698433  1.0000
  H   H10       1.0  0.7163855168375547  0.6477757698916733  0.8421764977034413  1.0000
  H   H11       1.0  0.12451837800567489  0.8524590269999737  0.8416679142354793  1.0000
  H   H12       1.0  0.8754945713519503  0.35246356599214584  0.15833120973116618  1.0000
  H   H13       1.0  0.22049816841057185  0.14960296497859818  0.0314971592843563  1.0000
  H   H14       1.0  0.7795046784992579  0.6495957795583466  0.9685047317860054  1.0000
  H   H15       1.0  0.18612186086583196  0.8500443191684043  0.967984556678111  1.0000
  H   H16       1.0  0.8138836306536062  0.3500492773173819  0.03201511653692528  1.0000
  H   H17       1.0  0.49499680673793733  0.26904156992532086  0.4364698853634933  1.0000
  H   H18       1.0  0.5050028702000661  0.7690322485331439  0.5635274695383501  1.0000
  H   H19       1.0  0.0582092770365179  0.7313118995206412  0.563433531983783  1.0000
  H   H20       1.0  0.9417844763084489  0.2313168609482474  0.4365682862255085  1.0000
  H   H21       1.0  0.563342344457567  0.11843924562086983  0.3447553937133492  1.0000
  H   H22       1.0  0.4366605800387759  0.6184365977856531  0.6552417956878285  1.0000
  H   H23       1.0  0.21858216707338576  0.8818777337543652  0.6551715609715457  1.0000
  H   H24       1.0  0.7814277546591696  0.3818862353689809  0.3448260420710979  1.0000
  H   H25       1.0  0.9815402778858057  0.9084935037435501  0.7357989996921999  1.0000
  H   H26       1.0  0.018459139263299604  0.4084869153487177  0.26420165315288097  1.0000
  H   H27       1.0  0.2446412800675688  0.09136457110536608  0.2640006206676091  1.0000
  H   H28       1.0  0.7553542055485422  0.5913706893536883  0.7360020091644444  1.0000
  H   H29       1.0  0.7472789922068158  0.8969821751956603  0.7274138876585922  1.0000
  H   H30       1.0  0.25272193678921445  0.3969843895716993  0.2725867891916351  1.0000
  H   H31       1.0  0.0189348539789833  0.10351244824935432  0.2724695099637557  1.0000
  H   H32       1.0  0.9810561407529974  0.6035080173729738  0.7275319162563461  1.0000
  C   C1        1.0  0.47551856879709936  0.24976809797841784  0.94733185623015  1.0000
  C   C2        1.0  0.5244826188901328  0.7497658945130613  0.052668496867191494  1.0000
  C   C3        1.0  0.365629201958825  0.24986532555473673  0.7280699015371397  1.0000
  C   C4        1.0  0.6343705015572567  0.7498636429837405  0.2719288545911595  1.0000
  C   C5        1.0  0.4037463907446153  0.2497439369043377  0.8037801114203944  1.0000
  C   C6        1.0  0.596251814115675  0.7497459856540163  0.19622006430487454  1.0000
  C   C7        1.0  0.5127560511492817  0.2497504891069157  0.022575463437618692  1.0000
  C   C8        1.0  0.48724364514876584  0.7497340916401003  0.9774248008968128  1.0000
  C   C9        1.0  0.6249352677484127  0.19649719945974914  0.9107094764740467  1.0000
  C   C10       1.0  0.3750600462320364  0.6964970570597658  0.08929072594514047  1.0000
  C   C11       1.0  0.7105242492509447  0.8031189576327408  0.08939389578004858  1.0000
  C   C12       1.0  0.28947237939868836  0.303121702379606  0.9106044792026822  1.0000
  C   C13       1.0  0.5904707469061137  0.19700595894325806  0.8397277167984212  1.0000
  C   C14       1.0  0.40952755399190005  0.6970085833253706  0.1602716598056588  1.0000
  C   C15       1.0  0.747043125185229  0.8025661241127936  0.16036541124491063  1.0000
  C   C16       1.0  0.2529534945356957  0.3025647748460401  0.8396349724782368  1.0000
  C   C17       1.0  0.5838228545621506  0.24999501239266664  0.16667594675058686  1.0000
  C   C18       1.0  0.4161902641864828  0.7499930339681314  0.8333251166149722  1.0000
  C   C19       1.0  0.3989182503515424  0.19436233483406085  0.13020878507213499  1.0000
  C   C20       1.0  0.6010904903191092  0.6943558025127744  0.8697922029579105  1.0000
  C   C21       1.0  0.2671025711450099  0.8055408690346015  0.8694830599819169  1.0000
  C   C22       1.0  0.7329074686716767  0.3055421420571705  0.13051763510712525  1.0000
  C   C23       1.0  0.62135219004643  0.2501033291131236  0.24270038507502528  1.0000
  C   C24       1.0  0.3786579530755247  0.7501050668947187  0.7572989927685754  1.0000
  C   C25       1.0  0.6312429043210627  0.18727169433649493  0.4435282725447037  1.0000
  C   C26       1.0  0.3687524260338648  0.6872626011594463  0.556471878042025  1.0000
  C   C27       1.0  0.1874502161410447  0.8130478863302814  0.556401054986118  1.0000
  C   C28       1.0  0.8125478739284092  0.3130589663234957  0.44359997922224176  1.0000
  C   C29       1.0  0.6474876150201254  0.08660395039747473  0.510814427957598  1.0000
  C   C30       1.0  0.35250341963632087  0.5865828240507229  0.4891848914067651  1.0000
  C   C31       1.0  0.1363302288520671  0.9137010056974192  0.4890821489504729  1.0000
  C   C32       1.0  0.86366171443607  0.4137199817069688  0.5109195989814734  1.0000
  C   C33       1.0  0.3637940916087956  0.19568438714487263  0.05927386266243668  1.0000
  C   C34       1.0  0.6362101674643341  0.6956739399776736  0.9407278728365398  1.0000
  C   C35       1.0  0.3019447551736861  0.8038796123507338  0.9404203441083537  1.0000
  C   C36       1.0  0.6980593243352546  0.30388212816653504  0.059579484194358705  1.0000
  O   O1        1.0  0.5106550083547033  0.23721496565373465  0.6948357884812209  1.0000
  O   O2        1.0  0.48934323856044415  0.7372151891448625  0.3051602931675603  1.0000
  O   O3        1.0  0.8130381144962158  0.7627030199079529  0.3049683736812412  1.0000
  O   O4        1.0  0.1869600624266425  0.2626946827372977  0.6950328807169297  1.0000
  O   O5        1.0  0.859725507346532  0.9802662756443894  0.7347021893658264  1.0000
  O   O6        1.0  0.1402708119972047  0.48026194130234506  0.2652961744683751  1.0000
  O   O7        1.0  0.12378506946136977  0.019911434091298502  0.2651931686164417  1.0000
  O   O8        1.0  0.8762120145272264  0.5199130394261361  0.7348131722832817  1.0000
  O   O9        1.0  0.4786752985414466  0.2100927554741717  0.27458823718718856  1.0000
  O   O10       1.0  0.5213393873790652  0.7100979928080875  0.7254116848169615  1.0000
  O   O11       1.0  0.20420026819535764  0.7900895277008858  0.7251844601349829  1.0000
  O   O12       1.0  0.7958127769479759  0.2900844334281559  0.2748173313432076  1.0000
  O   O13       1.0  0.7096361323748752  0.927662552950501  0.5124395293695015  1.0000
  O   O14       1.0  0.2903647496315429  0.4276600451555766  0.48755981086578964  1.0000
  O   O15       1.0  0.1970893310110498  0.0725620434004668  0.4874703991164111  1.0000
  O   O16       1.0  0.8029031951659819  0.5725869042167632  0.5125339597877313  1.0000
  O   O17       1.0  0.6190850088117089  0.0578732844142991  0.3900919597405164  1.0000
  O   O18       1.0  0.3809105610093013  0.5578716681343824  0.6099054523529474  1.0000
  O   O19       1.0  0.22884727722856724  0.9424782916706534  0.609835062979478  1.0000
  O   O20       1.0  0.7711520895301334  0.4424860119082865  0.3901637688964427  1.0000
  O   O21       1.0  0.5989169308558928  0.1675388541660823  0.5619450375105827  1.0000
  O   O22       1.0  0.401081432241469  0.6675301466001715  0.43805216172792427  1.0000
  O   O23       1.0  0.03642416340903761  0.8328238073201036  0.4379331801790442  1.0000
  O   O24       1.0  0.9635664319249956  0.3328444926008772  0.5620680249544775  1.0000
