data_image0
_chemical_formula_structural       Cd2H36C56N8O8
_chemical_formula_sum              "Cd2 H36 C56 N8 O8"
_cell_length_a       12.2111136190494
_cell_length_b       12.213389281268194
_cell_length_c       13.675
_cell_angle_alpha    67.78308902997159
_cell_angle_beta     67.77872782233365
_cell_angle_gamma    83.33814585568352

_space_group_name_H-M_alt    "P 1"
_space_group_IT_number       1

loop_
  _space_group_symop_operation_xyz
  'x, y, z'

loop_
  _atom_site_type_symbol
  _atom_site_label
  _atom_site_symmetry_multiplicity
  _atom_site_fract_x
  _atom_site_fract_y
  _atom_site_fract_z
  _atom_site_occupancy
  Cd  Cd1       1.0  0.6534360445832023  0.3465227342341564  0.2500128966469789  1.0000
  Cd  Cd2       1.0  0.34656344417314955  0.6534774561906644  0.7499888204688362  1.0000
  H   H1        1.0  0.6891640956975708  0.5958040431792  0.2844385920575904  1.0000
  H   H2        1.0  0.40422446259982797  0.3108906401649989  0.215528324622781  1.0000
  H   H3        1.0  0.3108345084316042  0.4041961472456208  0.7155634237972351  1.0000
  H   H4        1.0  0.595775882912598  0.6891086653861223  0.7844726707269416  1.0000
  H   H5        1.0  0.3643170075781016  0.2912818390183674  0.4569169377754888  1.0000
  H   H6        1.0  0.7087810177472207  0.6356959192303009  0.0430707790335063  1.0000
  H   H7        1.0  0.6356824811782502  0.7087183514064535  0.5430840480788961  1.0000
  H   H8        1.0  0.2912202123923819  0.3643033863208203  0.9569299175771918  1.0000
  H   H9        1.0  0.15341647484117263  0.34627054523024015  0.5398280335072132  1.0000
  H   H10       1.0  0.6537597639488908  0.8465613214524268  0.9601766881373381  1.0000
  H   H11       1.0  0.8465829581729737  0.6537278754471814  0.46017283755445254  1.0000
  H   H12       1.0  0.3462423786889914  0.153438868972394  0.03982267023856425  1.0000
  H   H13       1.0  0.10511326450852472  0.5505135526968914  0.5330851886140593  1.0000
  H   H14       1.0  0.4494743295988429  0.8948329514231403  0.9669394064824317  1.0000
  H   H15       1.0  0.8948843992512677  0.44948486798053733  0.46691335487993524  1.0000
  H   H16       1.0  0.5505269284118626  0.10516723900167341  0.03306171315534099  1.0000
  H   H17       1.0  0.2616364617704718  0.7071176148868545  0.4474436095997305  1.0000
  H   H18       1.0  0.29285686129758665  0.738325340466254  0.05257586167573443  1.0000
  H   H19       1.0  0.7383603731043493  0.2928825755379663  0.5525560786874237  1.0000
  H   H20       1.0  0.707144368842016  0.2616739650848672  0.9474241036735337  1.0000
  H   H21       1.0  0.3963455401013151  0.7680862975494946  0.48839129026759304  1.0000
  H   H22       1.0  0.23192163842025343  0.6036431392693657  0.011623892952933038  1.0000
  H   H23       1.0  0.603652207271786  0.2319147777490258  0.5116099848304715  1.0000
  H   H24       1.0  0.7680779339494066  0.396359705776554  0.9883739744141097  1.0000
  H   H25       1.0  0.43753088026869597  0.9785818225658716  0.44818318597616263  1.0000
  H   H26       1.0  0.0213851697495286  0.5624531535033626  0.051840811403927434  1.0000
  H   H27       1.0  0.5624686363587585  0.0214192527326418  0.551816760382444  1.0000
  H   H28       1.0  0.978613462250742  0.4375479217951508  0.9481601649551195  1.0000
  H   H29       1.0  0.7165746983927335  0.0028413294441236  0.13331977586719299  1.0000
  H   H30       1.0  0.997144271879698  0.2834294698227353  0.366661887373759  1.0000
  H   H31       1.0  0.283423849994236  0.9971570912332979  0.8666821251949132  1.0000
  H   H32       1.0  0.0028569582599046986  0.716569835728386  0.63333588419124  1.0000
  H   H33       1.0  0.6709196775221571  0.7934202315218783  0.16796264904420607  1.0000
  H   H34       1.0  0.20660241581305175  0.329094261879284  0.33201563545127744  1.0000
  H   H35       1.0  0.3290779862376354  0.20657818915554324  0.8320395507569174  1.0000
  H   H36       1.0  0.7933988143265509  0.6709050436718371  0.6679828673751446  1.0000
  C   C1        1.0  0.5956949804791237  0.570686018389118  0.3249294012908591  1.0000
  C   C2        1.0  0.4293436800891756  0.4043394967846865  0.17504541647568317  1.0000
  C   C3        1.0  0.40430273902288155  0.4293141720357028  0.6750721820415536  1.0000
  C   C4        1.0  0.5706566654232503  0.5956598087664347  0.8249533850897562  1.0000
  C   C5        1.0  0.429757464655026  0.4694635463329107  0.40576737208944286  1.0000
  C   C6        1.0  0.530572791333654  0.5702533151508149  0.094225637707126  1.0000
  C   C7        1.0  0.5702411394741489  0.5305366440919101  0.5942339125039595  1.0000
  C   C8        1.0  0.4694284666770515  0.42974687527400596  0.9057718256235177  1.0000
  C   C9        1.0  0.3413206615376154  0.3810575849178548  0.45440352829567143  1.0000
  C   C10       1.0  0.6189873745353297  0.6586840530294182  0.045587886892057776  1.0000
  C   C11       1.0  0.6586779147204567  0.6189417206332664  0.5455980645320793  1.0000
  C   C12       1.0  0.38101474023144993  0.3413152525217029  0.9544117797181926  1.0000
  C   C13       1.0  0.22494584900892534  0.4127838464842526  0.49994221782880993  1.0000
  C   C14       1.0  0.5872457997172944  0.7750352106995139  6.016312399027746e-05  1.0000
  C   C15       1.0  0.7750526993780442  0.587214574193176  0.5000582207104429  1.0000
  C   C16       1.0  0.41275631504948523  0.2249640948516074  0.9999409660091133  1.0000
  C   C17       1.0  0.1971746916732613  0.5293102091465443  0.49600610587418714  1.0000
  C   C18       1.0  0.4706910547994029  0.8027901591094988  0.004009871018873022  1.0000
  C   C19       1.0  0.8028230278287369  0.4706899812782765  0.5039940149353797  1.0000
  C   C20       1.0  0.5293110599673768  0.1972091464416224  0.9959897955913775  1.0000
  C   C21       1.0  0.2843805235606709  0.6182072754639664  0.4478274811234401  1.0000
  C   C22       1.0  0.3817870342625796  0.7155876259236608  0.052191192762585104  1.0000
  C   C23       1.0  0.715618080568504  0.3817929149608545  0.5521723409471094  1.0000
  C   C24       1.0  0.6182150805041999  0.2844116796274605  0.9478077425862494  1.0000
  C   C25       1.0  0.40113210529521137  0.5859447804366127  0.40375543982001016  1.0000
  C   C26       1.0  0.4140662288233088  0.5988639364267172  0.09625110044946449  1.0000
  C   C27       1.0  0.5988664709628609  0.4140545251145085  0.5962461530077476  1.0000
  C   C28       1.0  0.5859358859434708  0.40113536912440406  0.9037463723765101  1.0000
  C   C29       1.0  0.5308211654205834  0.7688136637292119  0.32984981197115104  1.0000
  C   C30       1.0  0.23118170288262976  0.4691839262443551  0.1701538358279819  1.0000
  C   C31       1.0  0.46917741083748876  0.2311856418219094  0.6701525121180298  1.0000
  C   C32       1.0  0.768818642629796  0.530815379306766  0.829844234476035  1.0000
  C   C33       1.0  0.46388328331981654  0.8201292592208844  0.4090033449264894  1.0000
  C   C34       1.0  0.1798664368210297  0.5361184273785966  0.0910057209465052  1.0000
  C   C35       1.0  0.5361153486804541  0.179871816077636  0.5909983626939878  1.0000
  C   C36       1.0  0.8201340201758002  0.4638844176673231  0.90899257894295  1.0000
  C   C37       1.0  0.4874887400782413  0.9376705720147316  0.3868670814004955  1.0000
  C   C38       1.0  0.0623033661892975  0.5125091122435208  0.11314990381890058  1.0000
  C   C39       1.0  0.5125125179324641  0.0623296184100894  0.6131355007601229  1.0000
  C   C40       1.0  0.9376961783092598  0.48749284792869935  0.8868504655667806  1.0000
  C   C41       1.0  0.5783429060375127  0.0036854989519739  0.28768492842593923  1.0000
  C   C42       1.0  0.9962999195115999  0.4216547053062244  0.21231656109993205  1.0000
  C   C43       1.0  0.421656582718839  0.9963146914728469  0.7123153261670225  1.0000
  C   C44       1.0  0.0037022231262824  0.5783454851185965  0.7876820660145472  1.0000
  C   C45       1.0  0.6455115712745538  0.9507339624176083  0.20965498560517665  1.0000
  C   C46       1.0  0.0492530929851824  0.3544901370105222  0.29033944875651946  1.0000
  C   C47       1.0  0.3544887463667693  0.0492644582598203  0.7903463179788945  1.0000
  C   C48       1.0  0.950748165025516  0.6455100534142986  0.7096580145741243  1.0000
  C   C49       1.0  0.6213978106875686  0.8340465527422867  0.2297557101049605  1.0000
  C   C50       1.0  0.1659599749756353  0.3786091393956212  0.2702347658575023  1.0000
  C   C51       1.0  0.3786007655705036  0.1659527528088418  0.7702466139842203  1.0000
  C   C52       1.0  0.8340412830350701  0.6213910510291996  0.7297619662117115  1.0000
  C   C53       1.0  0.6055712275531776  0.1285110920273667  0.2668978579694183  1.0000
  C   C54       1.0  0.8714600019563363  0.3944253718728277  0.23310003552809627  1.0000
  C   C55       1.0  0.3944300583286235  0.8714899832711538  0.7331000283883002  1.0000
  C   C56       1.0  0.128540399298295  0.6055757034256928  0.7668974183072097  1.0000
  N   N1        1.0  0.5519739089078897  0.46353400768293085  0.35599777723993503  1.0000
  N   N2        1.0  0.5365159533772115  0.4480593364531345  0.14397865773293003  1.0000
  N   N3        1.0  0.44802381059410834  0.53646618274189  0.644003806092485  1.0000
  N   N4        1.0  0.4634843921352144  0.5519399690979867  0.8560216063553624  1.0000
  N   N5        1.0  0.5096924355011083  0.6485407458297843  0.3514162065098464  1.0000
  N   N6        1.0  0.3514711698052296  0.49032090426735664  0.14857979854923542  1.0000
  N   N7        1.0  0.4903061407569639  0.3514585597213369  0.6485861175793347  1.0000
  N   N8        1.0  0.6485300882054759  0.5096792861574642  0.8514183960428312  1.0000
  O   O1        1.0  0.5396451980451147  0.1734741792414383  0.34018765683688196  1.0000
  O   O2        1.0  0.8264923923545882  0.460335189264832  0.15981796997382955  1.0000
  O   O3        1.0  0.46035608783668647  0.8265268960570823  0.6598102295208363  1.0000
  O   O4        1.0  0.1735088656561103  0.5396650011599888  0.8401794933568141  1.0000
  O   O5        1.0  0.692347235282547  0.18530936495155  0.17960105496617731  1.0000
  O   O6        1.0  0.8146489571673216  0.307659081420077  0.3203883636686911  1.0000
  O   O7        1.0  0.3076531102298787  0.8146899405995712  0.8203977465992552  1.0000
  O   O8        1.0  0.18535061520233145  0.6923437636258356  0.6796102349597817  1.0000
