data_image0
_chemical_formula_structural       Zn4H28C24S4N12O20
_chemical_formula_sum              "Zn4 H28 C24 S4 N12 O20"
_cell_length_a       8.666358258094338
_cell_length_b       9.673112010696627
_cell_length_c       11.840175195175656
_cell_angle_alpha    90.00134447136647
_cell_angle_beta     92.84204861979217
_cell_angle_gamma    90.0002206674797

_space_group_name_H-M_alt    "P 1"
_space_group_IT_number       1

loop_
  _space_group_symop_operation_xyz
  'x, y, z'

loop_
  _atom_site_type_symbol
  _atom_site_label
  _atom_site_symmetry_multiplicity
  _atom_site_fract_x
  _atom_site_fract_y
  _atom_site_fract_z
  _atom_site_occupancy
  Zn  Zn1       1.0  0.8641445728051238  0.7516412057802953  0.6852350431272569  1.0000
  Zn  Zn2       1.0  0.6358513186287666  0.2516463943604847  0.8147683719307394  1.0000
  Zn  Zn3       1.0  0.1358578304963487  0.24835709318371363  0.314762424169281  1.0000
  Zn  Zn4       1.0  0.3641499318188295  0.7483529384065545  0.18522989990690064  1.0000
  H   H1        1.0  0.8694861503892921  0.4936176893658271  0.6818903195730144  1.0000
  H   H2        1.0  0.6305064666054108  0.9936248153752698  0.8181134008291907  1.0000
  H   H3        1.0  0.1305174204591211  0.5063795758679389  0.3181114111968526  1.0000
  H   H4        1.0  0.3694959415995526  0.0063755511999304  0.181885755825526  1.0000
  H   H5        1.0  0.0453272942934504  0.5340043483667926  0.6704777518713101  1.0000
  H   H6        1.0  0.45466627689864225  0.0340162286641785  0.8295345787604874  1.0000
  H   H7        1.0  0.9546774465507468  0.46599188314886675  0.32952908704096023  1.0000
  H   H8        1.0  0.545333820686359  0.965981036525491  0.17046449758822044  1.0000
  H   H9        1.0  0.8483063102405665  0.6620575245617317  0.9536661921820838  1.0000
  H   H10       1.0  0.6516856047992547  0.1620633297702057  0.5463328324332153  1.0000
  H   H11       1.0  0.1516880108482184  0.3379511123432407  0.046332683586904  1.0000
  H   H12       1.0  0.348315650583757  0.8379494423361679  0.4536671288727945  1.0000
  H   H13       1.0  0.037077091033175705  0.6629673993614845  0.1245260641947041  1.0000
  H   H14       1.0  0.46291980623524137  0.16297649221439772  0.37546846736046285  1.0000
  H   H15       1.0  0.9629172275951561  0.33703710235748463  0.875471966865142  1.0000
  H   H16       1.0  0.5370814442471853  0.8370352460742507  0.6245298045973868  1.0000
  H   H17       1.0  0.37702927085993576  0.8294843750608791  0.9287144187818441  1.0000
  H   H18       1.0  0.12296244740260674  0.329495966791292  0.571287468779957  1.0000
  H   H19       1.0  0.6229754430295669  0.1705056535605252  0.07128312871051892  1.0000
  H   H20       1.0  0.8770295752901092  0.670502332234534  0.4287155499582695  1.0000
  H   H21       1.0  0.9963821178761663  0.08016196729781198  0.5693800943278973  1.0000
  H   H22       1.0  0.5036186065897397  0.5801667178645146  0.9306269557002125  1.0000
  H   H23       1.0  0.0036121884818243  0.9198332302192963  0.4306137132964309  1.0000
  H   H24       1.0  0.4963861195672052  0.4198315811652832  0.06937481521764971  1.0000
  H   H25       1.0  0.10131796696473572  0.08373304473911249  0.7015230424079562  1.0000
  H   H26       1.0  0.39867240532974796  0.5837343285744511  0.7984859080461391  1.0000
  H   H27       1.0  0.8986809532866573  0.9162683555126702  0.2984683918211744  1.0000
  H   H28       1.0  0.60132654675661  0.41626707183504397  0.20151650688094236  1.0000
  C   C1        1.0  0.9676865974092551  0.6952331137251662  0.9479053972906898  1.0000
  C   C2        1.0  0.5323089600796749  0.19523970665802884  0.5520910119742055  1.0000
  C   C3        1.0  0.032308878979357296  0.3047734555954378  0.05209351859624431  1.0000
  C   C4        1.0  0.4676934481630325  0.8047740992322473  0.4479081448107253  1.0000
  C   C5        1.0  0.0710981324504516  0.6971558886446942  0.0418622854333606  1.0000
  C   C6        1.0  0.42889550071695476  0.19716723805286307  0.4581361669391697  1.0000
  C   C7        1.0  0.9288984992321757  0.3028465455046073  0.9581366705514894  1.0000
  C   C8        1.0  0.5711034465007429  0.8028445002670423  0.5418645587499356  1.0000
  C   C9        1.0  0.26001056654649796  0.7889264441793387  0.9326197140101371  1.0000
  C   C10       1.0  0.23997861086384384  0.2889362594744115  0.5673804626239018  1.0000
  C   C11       1.0  0.7399883732869341  0.2110718547890968  0.0673784775415314  1.0000
  C   C12       1.0  0.7600157151081176  0.7110672084874922  0.4326201024331482  1.0000
  C   C13       1.0  0.1565657767322222  0.7829826714769651  0.8386240095348328  1.0000
  C   C14       1.0  0.3434233672841316  0.2829883059259544  0.661376051875294  1.0000
  C   C15       1.0  0.843433163107015  0.217017695078411  0.1613741820368659  1.0000
  C   C16       1.0  0.6565732717508297  0.7170161958466822  0.33862543813680185  1.0000
  C   C17       1.0  0.010136510686372401  0.027985899777206693  0.6521483079758852  1.0000
  C   C18       1.0  0.4898639389309096  0.5279920170750996  0.8478573894448331  1.0000
  C   C19       1.0  0.9898635722055643  0.9720113653396748  0.347845700358377  1.0000
  C   C20       1.0  0.5101361660064256  0.4720073157379047  0.15214422093112742  1.0000
  C   C21       1.0  0.8604950753928335  0.05231853831848098  0.7109204760940387  1.0000
  C   C22       1.0  0.6394997039095641  0.5523186589099113  0.7890816102806825  1.0000
  C   C23       1.0  0.1395038595458118  0.947680794419156  0.2890760261295  1.0000
  C   C24       1.0  0.36050155633630254  0.4476817076991182  0.21092004024326627  1.0000
  S   S1        1.0  0.20339055367514897  0.8293969922271741  0.69565002965917  1.0000
  S   S2        1.0  0.2966023169274338  0.32939933437830143  0.804351051588533  1.0000
  S   S3        1.0  0.7966106967811512  0.17060544192026583  0.30434824220851914  1.0000
  S   S4        1.0  0.7033977904558382  0.670598964653358  0.19565140344648307  1.0000
  N   N1        1.0  0.0117976579643724  0.7375101043151915  0.8471039608463542  1.0000
  N   N2        1.0  0.48819353637399127  0.23751496039672293  0.6528936102886078  1.0000
  N   N3        1.0  0.988201284326614  0.26249129604577354  0.1528950754044374  1.0000
  N   N4        1.0  0.5118042506287778  0.7624926427224847  0.34710538588430495  1.0000
  N   N5        1.0  0.2157415855412879  0.7442235993583137  0.03341349077706471  1.0000
  N   N6        1.0  0.28425115911976917  0.24423572665982357  0.4665866782515664  1.0000
  N   N7        1.0  0.7842550485727671  0.25577263204232276  0.9665863098167548  1.0000
  N   N8        1.0  0.7157477929752929  0.7557687751300718  0.5334157367055639  1.0000
  N   N9        1.0  0.0477427510808255  0.8817068544989011  0.6362605374035439  1.0000
  N   N10       1.0  0.4522538988227325  0.3817104048645986  0.8637484353266701  1.0000
  N   N11       1.0  0.9522596522235531  0.11829247825857439  0.3637369299030127  1.0000
  N   N12       1.0  0.547746203671565  0.6182909955232033  0.13625233040024654  1.0000
  O   O1        1.0  0.24661220111408966  0.6980187851664323  0.6464508565235008  1.0000
  O   O2        1.0  0.25338224957649663  0.1980192897681619  0.8535502930327822  1.0000
  O   O3        1.0  0.7533971389246474  0.30198158142417236  0.3535485409590962  1.0000
  O   O4        1.0  0.7466166951720368  0.8019852119853397  0.1464495879171324  1.0000
  O   O5        1.0  0.3238562636387314  0.9349166819139826  0.7083902448974085  1.0000
  O   O6        1.0  0.1761383769441878  0.4349192769488822  0.7916205233612033  1.0000
  O   O7        1.0  0.6761380647791668  0.06508575226658309  0.291611164818697  1.0000
  O   O8        1.0  0.8238617329111548  0.5650872924426481  0.20838277642302222  1.0000
  O   O9        1.0  0.7788764332531669  0.9483882198943262  0.7379875018207827  1.0000
  O   O10       1.0  0.7211205509224144  0.4483890861473298  0.7620155025781941  1.0000
  O   O11       1.0  0.22112598474137002  0.05161007914247049  0.2620150334901936  1.0000
  O   O12       1.0  0.2788818548308072  0.5516102466222746  0.23798280939742972  1.0000
  O   O13       1.0  0.8251169629779723  0.1774077289332467  0.7277818587681679  1.0000
  O   O14       1.0  0.674876176420561  0.6774074871448619  0.7722115907121108  1.0000
  O   O15       1.0  0.1748831272605003  0.8225895362200288  0.272214683573317  1.0000
  O   O16       1.0  0.32512045524465083  0.32258874424363865  0.22778736521263457  1.0000
  O   O17       1.0  0.9409215826549727  0.5519251999112244  0.6378952531763886  1.0000
  O   O18       1.0  0.5590743595624161  0.05193355088761821  0.8621102444699176  1.0000
  O   O19       1.0  0.0590843037023845  0.4480720653519438  0.3621082472075798  1.0000
  O   O20       1.0  0.4409268908851729  0.948065781879421  0.1378880273677296  1.0000
