data_image0
_chemical_formula_structural       Zn2H80C76N6O20
_chemical_formula_sum              "Zn2 H80 C76 N6 O20"
_cell_length_a       18.7566722520065
_cell_length_b       19.083235536572197
_cell_length_c       19.488151073161227
_cell_angle_alpha    89.16632256373906
_cell_angle_beta     89.9172213291433
_cell_angle_gamma    90.20067054540829

_space_group_name_H-M_alt    "P 1"
_space_group_IT_number       1

loop_
  _space_group_symop_operation_xyz
  'x, y, z'

loop_
  _atom_site_type_symbol
  _atom_site_label
  _atom_site_symmetry_multiplicity
  _atom_site_fract_x
  _atom_site_fract_y
  _atom_site_fract_z
  _atom_site_occupancy
  Zn  Zn1       1.0  0.417657620225512  0.5030257679504827  0.5012698338812811  1.0000
  Zn  Zn2       1.0  0.5811588601642796  0.5003501500777432  0.5041853136888933  1.0000
  H   H1        1.0  0.40720135489529957  0.2879495491353836  0.45853874659042043  1.0000
  H   H2        1.0  0.36626775569644826  0.487679653965735  0.7198073262303808  1.0000
  H   H3        1.0  0.5883903430861535  0.5393164623526658  0.7148109283813754  1.0000
  H   H4        1.0  0.37256847636285073  0.5072745102633931  0.2842029012083032  1.0000
  H   H5        1.0  0.6002546784836511  0.45689869281068246  0.1638457067983623  1.0000
  H   H6        1.0  0.36873401993954497  0.48355479073268276  0.8471434892577321  1.0000
  H   H7        1.0  0.5933911521588655  0.5329132318957903  0.8421574405541252  1.0000
  H   H8        1.0  0.3753239899101644  0.500769381150775  0.15611245305316152  1.0000
  H   H9        1.0  0.39434166297493783  0.41899331940804535  0.0634190179345708  1.0000
  H   H10       1.0  0.580625056396734  0.5594212848000453  0.9434267900791723  1.0000
  H   H11       1.0  0.3918315353959088  0.4300406862189235  0.9376615171098593  1.0000
  H   H12       1.0  0.6309851592768679  0.7176092687577694  0.45646380327223574  1.0000
  H   H13       1.0  0.5849006147658358  0.5449065288384888  0.06876392691889072  1.0000
  H   H14       1.0  0.23551123819896694  0.6730080192648911  0.4107807253797732  1.0000
  H   H15       1.0  0.2875791853586732  0.6058703605754089  0.3717390479705713  1.0000
  H   H16       1.0  0.39849954910484797  0.6766552663207649  0.38900165542296616  1.0000
  H   H17       1.0  0.3349215322002337  0.722988135575129  0.33757462141385736  1.0000
  H   H18       1.0  0.3474147637418383  0.7456105910920171  0.42492406621958884  1.0000
  H   H19       1.0  0.7595783906711161  0.4084868731608253  0.6722793127943306  1.0000
  H   H20       1.0  0.7069827131357869  0.3680190559110059  0.6070662410266223  1.0000
  H   H21       1.0  0.5960989939139765  0.3891994646654027  0.675049718751005  1.0000
  H   H22       1.0  0.6584957490669368  0.33718617012410596  0.722425386445849  1.0000
  H   H23       1.0  0.4177584458165454  0.7260999820771091  0.5344403571214685  1.0000
  H   H24       1.0  0.6473203126876471  0.4272431119269697  0.7417552193174757  1.0000
  H   H25       1.0  0.23596575785606425  0.3261225030852728  0.5861532758318263  1.0000
  H   H26       1.0  0.2875528285551923  0.3933994527839886  0.6259035853475865  1.0000
  H   H27       1.0  0.39899661288201566  0.3248968417612446  0.6077361224014554  1.0000
  H   H28       1.0  0.33560229775723366  0.2757639400563505  0.6574648765838872  1.0000
  H   H29       1.0  0.3491843942986391  0.2560968564847953  0.569449899000226  1.0000
  H   H30       1.0  0.7627282946240469  0.5934003419267242  0.33423590369029205  1.0000
  H   H31       1.0  0.7112187707265959  0.6312025814535148  0.4015673505122237  1.0000
  H   H32       1.0  0.5998094754684472  0.6164186703215435  0.3330249273048694  1.0000
  H   H33       1.0  0.6639506888544486  0.6689792582134546  0.28797374044490454  1.0000
  H   H34       1.0  0.6299765286318078  0.279467059037728  0.5051254144441516  1.0000
  H   H35       1.0  0.6496412439512653  0.5803412601503836  0.26428503856878643  1.0000
  H   H36       1.0  0.23924886430586403  0.6806304195327044  0.5561886980750188  1.0000
  H   H37       1.0  0.17158336088846227  0.6430220808421437  0.6101395854395691  1.0000
  H   H38       1.0  0.0819627736906341  0.7276536837094909  0.5599881194171135  1.0000
  H   H39       1.0  0.15496176575189927  0.7735161653855941  0.5972868313577565  1.0000
  H   H40       1.0  0.14973341620841296  0.7650213866404557  0.5065618541715081  1.0000
  H   H41       1.0  0.760618974116781  0.5577667210420287  0.67728883337643  1.0000
  H   H42       1.0  0.8309512146173786  0.6094984406899614  0.6404043644715857  1.0000
  H   H43       1.0  0.9175917426338317  0.5548123567577222  0.724572668302372  1.0000
  H   H44       1.0  0.8470099647953191  0.5985078592690698  0.7677139589245031  1.0000
  H   H45       1.0  0.406306329928583  0.15778708166305216  0.43737108812704417  1.0000
  H   H46       1.0  0.8464711130710755  0.5054054411728899  0.76221855543573  1.0000
  H   H47       1.0  0.2378340205895384  0.3207289831617287  0.4419024635521823  1.0000
  H   H48       1.0  0.169279132211102  0.3577633659112536  0.389153539685175  1.0000
  H   H49       1.0  0.08053783454833048  0.2725033236914527  0.44048121955623293  1.0000
  H   H50       1.0  0.1533700271642289  0.22686463354549596  0.4030018294571179  1.0000
  H   H51       1.0  0.1486785725276363  0.23620855945420524  0.49365620572768176  1.0000
  H   H52       1.0  0.7612753522531718  0.4397201236145776  0.3269460610937429  1.0000
  H   H53       1.0  0.8320527467866583  0.3885991504391839  0.363069125892551  1.0000
  H   H54       1.0  0.9179989828294738  0.4448083629149051  0.2785909481447034  1.0000
  H   H55       1.0  0.847528399300131  0.4003961383375412  0.23573848124043198  1.0000
  H   H56       1.0  0.6307350944047913  0.8482175902136719  0.4370041356046387  1.0000
  H   H57       1.0  0.8464142401453502  0.4934550683815359  0.24163618587317615  1.0000
  H   H58       1.0  0.0039197374214908  0.43057817410458193  0.6785636336017407  1.0000
  H   H59       1.0  0.07300607394138581  0.4950362084864963  0.6700978948779762  1.0000
  H   H60       1.0  0.16510890099224437  0.40348139351961276  0.6975234830799765  1.0000
  H   H61       1.0  0.10139018630372477  0.4091574823363828  0.7651823813407433  1.0000
  H   H62       1.0  0.0967980861914342  0.3388213595663316  0.7061750257057612  1.0000
  H   H63       1.0  0.9976261851372145  0.6803666128270152  0.43142659955660895  1.0000
  H   H64       1.0  0.9293568548331306  0.6756961602156792  0.4955391572443446  1.0000
  H   H65       1.0  0.8368160434631945  0.7050836640478765  0.40697475145170603  1.0000
  H   H66       1.0  0.9039842297028785  0.7713539140277206  0.4079616189274519  1.0000
  H   H67       1.0  0.41676084363629673  0.8570932751285983  0.5163141972784403  1.0000
  H   H68       1.0  0.9036092569408182  0.7078192670091427  0.3419094265745244  1.0000
  H   H69       1.0  0.002817086295031899  0.5646506703682874  0.32383299556577333  1.0000
  H   H70       1.0  0.0755162391551494  0.5046553997804181  0.33225740167375056  1.0000
  H   H71       1.0  0.16190575374908892  0.6023955830507717  0.30393410285376626  1.0000
  H   H72       1.0  0.0995691406866612  0.5902592535483534  0.23613735458516066  1.0000
  H   H73       1.0  0.08935835532571451  0.6615487916404703  0.2933360831896792  1.0000
  H   H74       1.0  0.9944233173659782  0.3178834233920754  0.5641556990989827  1.0000
  H   H75       1.0  0.9225599020513257  0.3279934219968724  0.5045524256654305  1.0000
  H   H76       1.0  0.8345109420874905  0.29844217115859817  0.598075134045537  1.0000
  H   H77       1.0  0.8969118493487401  0.22910146445252622  0.5879796171314099  1.0000
  H   H78       1.0  0.6306361349470678  0.14991788665312097  0.48268409416041896  1.0000
  H   H79       1.0  0.9056282151599434  0.28783867120593243  0.6577360225449596  1.0000
  H   H80       1.0  0.5960738749451479  0.46347346159917885  0.2923160720636134  1.0000
  C   C1        1.0  0.47814530354269646  0.5079383302036574  0.6329612851184621  1.0000
  C   C2        1.0  0.5426576925958314  0.5192360489197655  0.03990172426557591  1.0000
  C   C3        1.0  0.48516970474025817  0.49691302610614935  0.9301319931518462  1.0000
  C   C4        1.0  0.489368619255707  0.4817393306670257  0.0755685350968847  1.0000
  C   C5        1.0  0.2666477109259445  0.5608489537872856  0.4912383828196597  1.0000
  C   C6        1.0  0.7311858211398813  0.48987516653023994  0.5607114912004932  1.0000
  C   C7        1.0  0.26656519931501776  0.44038428385423606  0.5070033453932297  1.0000
  C   C8        1.0  0.7315684344085013  0.5085825744925715  0.4429877010935712  1.0000
  C   C9        1.0  0.1922555994701156  0.5637199375111024  0.5000597494977513  1.0000
  C   C10       1.0  0.8057162669049943  0.4977760377595857  0.5638812218559864  1.0000
  C   C11       1.0  0.19205210510511248  0.43727404076491894  0.49908589828996963  1.0000
  C   C12       1.0  0.48349947539651345  0.49513554572465085  0.3716962491942439  1.0000
  C   C13       1.0  0.8059927706262968  0.500072823221167  0.44004643441165575  1.0000
  C   C14       1.0  0.15322245354846586  0.5004167205364  0.4999445378979318  1.0000
  C   C15       1.0  0.8448542178759979  0.4990420269135499  0.5019779262383609  1.0000
  C   C16       1.0  0.03668345204661699  0.4570009257107657  0.5473061546080801  1.0000
  C   C17       1.0  0.9614476375903179  0.5477403033719739  0.4597693367909983  1.0000
  C   C18       1.0  0.036048820599276596  0.5433449165657933  0.45484051984686164  1.0000
  C   C19       1.0  0.9620244527734273  0.4523657307190518  0.5434560636264293  1.0000
  C   C20       1.0  0.9233887137370048  0.499757476586332  0.5017993726548937  1.0000
  C   C21       1.0  0.0746868068592121  0.5002615420238001  0.5007239655892947  1.0000
  C   C22       1.0  0.5175893590500777  0.3674093090570311  0.4987700400557103  1.0000
  C   C23       1.0  0.48813734178735757  0.4794651732865276  0.15120532792835917  1.0000
  C   C24       1.0  0.5216051038989703  0.6360895288432218  0.4992784348380042  1.0000
  C   C25       1.0  0.4552775472758696  0.2564828039196385  0.46416511413652023  1.0000
  C   C26       1.0  0.5846222712821428  0.749076626818905  0.4693616871476466  1.0000
  C   C27       1.0  0.46397263278500117  0.7539736564266875  0.5136528607442302  1.0000
  C   C28       1.0  0.5815223242472171  0.25190476801147815  0.4903533099938215  1.0000
  C   C29       1.0  0.4549499262325298  0.18484921839999663  0.4524293771475102  1.0000
  C   C30       1.0  0.5845787958237595  0.8212037353812464  0.4588750491206213  1.0000
  C   C31       1.0  0.46353718186770015  0.8261964823206968  0.5034364041846829  1.0000
  C   C32       1.0  0.5818136302292061  0.18039808145279326  0.4779092210686572  1.0000
  C   C33       1.0  0.5182723797831417  0.14614193496237962  0.45961279238972014  1.0000
  C   C34       1.0  0.48188062791899705  0.505447575838929  0.8547401535105622  1.0000
  C   C35       1.0  0.52326854656436  0.8601751259012574  0.47439006397828354  1.0000
  C   C36       1.0  0.518220446822589  0.2902998696814052  0.48419039602107733  1.0000
  C   C37       1.0  0.5238103707883325  0.7147498906327883  0.49514552039505605  1.0000
  C   C38       1.0  0.5208433341672529  0.9352681170648651  0.45845510480773294  1.0000
  C   C39       1.0  0.5183082895994885  0.07030091195546359  0.45001278243603354  1.0000
  C   C40       1.0  0.5483527540872686  0.4717180197971587  0.2614031389812155  1.0000
  C   C41       1.0  0.4157539464616349  0.49728696200914163  0.747449963948256  1.0000
  C   C42       1.0  0.5408346163504733  0.5269653683242979  0.7448794672899554  1.0000
  C   C43       1.0  0.421947751597024  0.4958495608058088  0.2570873142516845  1.0000
  C   C44       1.0  0.550300738556146  0.46852915618347873  0.19010817544197783  1.0000
  C   C45       1.0  0.4844803327423294  0.48689349417414013  0.2953714819353976  1.0000
  C   C46       1.0  0.41777446844957206  0.4944501768938351  0.8187619442935983  1.0000
  C   C47       1.0  0.5428943518897  0.5235417392823081  0.8161196547529671  1.0000
  C   C48       1.0  0.4237059250020891  0.49172202825802463  0.185952051045625  1.0000
  C   C49       1.0  0.288853663730805  0.6491967558526781  0.4084598244336918  1.0000
  C   C50       1.0  0.34599496451080813  0.701753387314156  0.38919593663747076  1.0000
  C   C51       1.0  0.7063994615043825  0.40661775124600313  0.6485137193304312  1.0000
  C   C52       1.0  0.6484863247638515  0.3893986905478002  0.6999626236007543  1.0000
  C   C53       1.0  0.28908985859931136  0.3507565834574038  0.5884457741020768  1.0000
  C   C54       1.0  0.34684149454241014  0.2987778108306998  0.6065178555138645  1.0000
  C   C55       1.0  0.7095804667085728  0.5948506244090552  0.3582151338287787  1.0000
  C   C56       1.0  0.47776992547012037  0.5118172984171494  0.7096512560913838  1.0000
  C   C57       1.0  0.6521486180355964  0.6159760103039459  0.30788816375014255  1.0000
  C   C58       1.0  0.18159809023170936  0.6708433851471298  0.5610125714045182  1.0000
  C   C59       1.0  0.13944128783298737  0.7381602850072042  0.5558425988732482  1.0000
  C   C60       1.0  0.8185091661858976  0.5601660338583515  0.6681913618535944  1.0000
  C   C61       1.0  0.8599412916827092  0.5542378017495508  0.7345491902241791  1.0000
  C   C62       1.0  0.18011058539618574  0.3301186759097661  0.43814798834058877  1.0000
  C   C63       1.0  0.13805465664562178  0.2625068540037816  0.44422623462827465  1.0000
  C   C64       1.0  0.8192069248461563  0.4379527237685537  0.3356544871213387  1.0000
  C   C65       1.0  0.8603031975746874  0.4446826047350925  0.26901235781646443  1.0000
  C   C66       1.0  0.06059074345830601  0.438673546217764  0.6657485653273484  1.0000
  C   C67       1.0  0.43508535155941525  0.4502439742035236  0.0370284822419009  1.0000
  C   C68       1.0  0.1088956332864299  0.3948705493943905  0.7112233940991218  1.0000
  C   C69       1.0  0.9406841446115025  0.6693426471813596  0.44037245236463474  1.0000
  C   C70       1.0  0.8933914817421993  0.7160375935181447  0.3967206879213735  1.0000
  C   C71       1.0  0.059958345114885986  0.5602139451572583  0.336129407781968  1.0000
  C   C72       1.0  0.10539666629096438  0.6064255593324361  0.28973057289076104  1.0000
  C   C73       1.0  0.9375160179494413  0.33114451235380227  0.5592146906120377  1.0000
  C   C74       1.0  0.8908527950370412  0.2839006230390595  0.60340796882047  1.0000
  C   C75       1.0  0.5401107091184373  0.5272732613977668  0.968934858939953  1.0000
  C   C76       1.0  0.4335119011840193  0.45706034525131406  0.9659588542829453  1.0000
  N   N1        1.0  0.5810396251852196  0.0378902900917524  0.43670211570437095  1.0000
  N   N2        1.0  0.45623792441963934  0.9667313834549558  0.45296705338758875  1.0000
  N   N3        1.0  0.5822093376048371  0.9691040973052195  0.44196701080446144  1.0000
  N   N4        1.0  0.4552532347548208  0.035633265012876315  0.44957446705318915  1.0000
  N   N5        1.0  0.30262938559276625  0.5007178788845721  0.499030360348833  1.0000
  N   N6        1.0  0.6954252750059878  0.499335135601534  0.5018215369448243  1.0000
  O   O1        1.0  0.4177213189928324  0.4982181650174554  0.6039192579797544  1.0000
  O   O2        1.0  0.6910091530274372  0.47509544214518223  0.6172827116709813  1.0000
  O   O3        1.0  0.3058387781139942  0.38225554733637784  0.5214293597158318  1.0000
  O   O4        1.0  0.6926740995719739  0.5251669627248888  0.38620599508399783  1.0000
  O   O5        1.0  0.15761347974181208  0.626411065766689  0.5056492209937531  1.0000
  O   O6        1.0  0.8401248609670943  0.5020889827621177  0.625664422844899  1.0000
  O   O7        1.0  0.15705759350687032  0.3744809645006627  0.4938589162801251  1.0000
  O   O8        1.0  0.8407024434981737  0.4960605555496471  0.3783115430803647  1.0000
  O   O9        1.0  0.07336594707143011  0.41803599097648464  0.5954907818159542  1.0000
  O   O10       1.0  0.9248450411047102  0.5974496039410014  0.4222888333352016  1.0000
  O   O11       1.0  0.0721508383504101  0.5823968845976424  0.40596527538809823  1.0000
  O   O12       1.0  0.5421580080225894  0.4884814621447545  0.4031433804253127  1.0000
  O   O13       1.0  0.926002915810436  0.40234944503971803  0.5816139245836  1.0000
  O   O14       1.0  0.4229472137909198  0.5090288281168965  0.39873914958881335  1.0000
  O   O15       1.0  0.5380950644107969  0.5129464792781633  0.6032798097586679  1.0000
  O   O16       1.0  0.45821402592429195  0.3984388743765237  0.4948922627489054  1.0000
  O   O17       1.0  0.581569138976036  0.6052183329662884  0.49221916695739765  1.0000
  O   O18       1.0  0.46127693732015024  0.6073702292161159  0.5075838933130329  1.0000
  O   O19       1.0  0.5777406339499506  0.3950329528224401  0.5138627247657227  1.0000
  O   O20       1.0  0.30606439243416617  0.6189856681244451  0.47591081777554933  1.0000
