data_image0
_chemical_formula_structural       Cd4H20C20I4N8O12
_chemical_formula_sum              "Cd4 H20 C20 I4 N8 O12"
_cell_length_a       9.023950082121297
_cell_length_b       9.023936744444567
_cell_length_c       12.673351446929692
_cell_angle_alpha    102.82288105064644
_cell_angle_beta     102.82323176051699
_cell_angle_gamma    108.95703231863168

_space_group_name_H-M_alt    "P 1"
_space_group_IT_number       1

loop_
  _space_group_symop_operation_xyz
  'x, y, z'

loop_
  _atom_site_type_symbol
  _atom_site_label
  _atom_site_symmetry_multiplicity
  _atom_site_fract_x
  _atom_site_fract_y
  _atom_site_fract_z
  _atom_site_occupancy
  Cd  Cd1       1.0  0.830484636678385  0.5856413849438412  0.7947766412278978  1.0000
  Cd  Cd2       1.0  0.4143592603184558  0.16951896759299961  0.7052264268652663  1.0000
  Cd  Cd3       1.0  0.1695208532204049  0.4143635157926866  0.20522487700593928  1.0000
  Cd  Cd4       1.0  0.5856391080038108  0.8304822179711239  0.2947742321620693  1.0000
  H   H1        1.0  0.6907435947054666  0.048599157035241106  0.6452414997530694  1.0000
  H   H2        1.0  0.9513928280104907  0.30924917738035873  0.8547563315090014  1.0000
  H   H3        1.0  0.3092451775711283  0.951392068774503  0.35475381722799426  1.0000
  H   H4        1.0  0.048601579514475204  0.6907506944608528  0.14524036861163128  1.0000
  H   H5        1.0  0.4052823327214199  0.9087338249568404  0.8498960801445319  1.0000
  H   H6        1.0  0.0912670786881904  0.5947211002250086  0.6501084914746683  1.0000
  H   H7        1.0  0.5947190002161024  0.09126617010407052  0.1501064270477102  1.0000
  H   H8        1.0  0.9087328620307108  0.4052812780722093  0.349890220695208  1.0000
  H   H9        1.0  0.5416749677724298  0.7078603978463606  0.8848798959227435  1.0000
  H   H10       1.0  0.2921352033418785  0.45832197064532215  0.6151196865576977  1.0000
  H   H11       1.0  0.45832777950834463  0.2921432736371442  0.11512180730856156  1.0000
  H   H12       1.0  0.7078643032298545  0.5416792194721014  0.3848811463001808  1.0000
  H   H13       1.0  0.01571053155036149  0.8311011128222605  0.007421600808015731  1.0000
  H   H14       1.0  0.1689066013512531  0.9842921922854304  0.49258169421590026  1.0000
  H   H15       1.0  0.9842895751668339  0.16890746898369  0.9925796585110972  1.0000
  H   H16       1.0  0.8310945575469262  0.015710270481662306  0.50742116185814  1.0000
  H   H17       1.0  0.06729961567540954  0.9094659280506507  0.9170229000717781  1.0000
  H   H18       1.0  0.0905374233441165  0.9327033217075424  0.5829780576258016  1.0000
  H   H19       1.0  0.9326985945934823  0.0905377412029651  0.08297890185208699  1.0000
  H   H20       1.0  0.9094618612303763  0.0673002881661091  0.4170207420697024  1.0000
  C   C1        1.0  0.7297336186114478  0.859543772232982  0.7152333910663272  1.0000
  C   C2        1.0  0.14045295257391643  0.2702641301240831  0.7847681448868113  1.0000
  C   C3        1.0  0.2702639275681165  0.14045244139884264  0.28476480833740675  1.0000
  C   C4        1.0  0.8595460718927512  0.7297358238635995  0.21523242661488942  1.0000
  C   C5        1.0  0.6568637277618024  0.9711750065307215  0.6980850645227932  1.0000
  C   C6        1.0  0.028823187900613317  0.34313241824123963  0.8019168294864796  1.0000
  C   C7        1.0  0.34312928140587934  0.028821204871214  0.30191323357349376  1.0000
  C   C8        1.0  0.9711790772751031  0.6568700171125244  0.19808461238865496  1.0000
  C   C9        1.0  0.499263387868517  0.8936802444931333  0.8121835396141107  1.0000
  C   C10       1.0  0.10631877471634972  0.5007334605879379  0.6878184083178026  1.0000
  C   C11       1.0  0.500733842204298  0.10632093651769033  0.18781694558268922  1.0000
  C   C12       1.0  0.8936825102632825  0.49926648652303385  0.31218171683025975  1.0000
  C   C13       1.0  0.5731007735180854  0.7837574023924818  0.8304775349920346  1.0000
  C   C14       1.0  0.216239503746074  0.4268955369902869  0.6695220514440547  1.0000
  C   C15       1.0  0.42689756283225233  0.21624375120500625  0.1695215360058455  1.0000
  C   C16       1.0  0.7837595047346326  0.5731044010140779  0.33047772604292186  1.0000
  C   C17       1.0  0.8596341916349673  0.8403493662258797  0.6612172490287094  1.0000
  C   C18       1.0  0.15964866469248312  0.14036361932731012  0.8387840379178754  1.0000
  C   C19       1.0  0.14036531493676557  0.1596518238915436  0.3387835838291693  1.0000
  C   C20       1.0  0.8403531023922073  0.8596375639133956  0.16121634858635758  1.0000
  I   I1        1.0  0.6773038700710786  0.41931062796864893  0.9299991298023115  1.0000
  I   I2        1.0  0.5806850344353832  0.3226949460339412  0.5699938006523835  1.0000
  I   I3        1.0  0.3226971929113135  0.5806917388985512  0.06999896218337652  1.0000
  I   I4        1.0  0.4193109295002486  0.677306102557047  0.4300001585960656  1.0000
  N   N1        1.0  0.6858819489505025  0.7666134205530784  0.780949655884008  1.0000
  N   N2        1.0  0.23338439662980193  0.3141178157169763  0.7190532513079333  1.0000
  N   N3        1.0  0.3141188539240646  0.23338529042814574  0.21905020790787688  1.0000
  N   N4        1.0  0.7666157501003708  0.6858821268406885  0.28094670000958627  1.0000
  N   N5        1.0  0.5421894615248989  0.9865693223400882  0.7457425460875058  1.0000
  N   N6        1.0  0.01343055884966299  0.4578086123821166  0.7542588189476119  1.0000
  N   N7        1.0  0.4578036737242429  0.013424373405719304  0.2542530210827962  1.0000
  N   N8        1.0  0.9865723624704543  0.5421925913952138  0.24574253540188803  1.0000
  O   O1        1.0  0.9125083721452681  0.729639511033774  0.6732829806521962  1.0000
  O   O2        1.0  0.270354878811311  0.08748399992123271  0.8267149219795797  1.0000
  O   O3        1.0  0.08749405108382292  0.27036044063049763  0.3267173183264021  1.0000
  O   O4        1.0  0.7296438216036805  0.9125122342472167  0.17328424526942135  1.0000
  O   O5        1.0  0.9106464307355537  0.9414835483552579  0.6090873899971284  1.0000
  O   O6        1.0  0.058516358640950714  0.08935106060868493  0.8909156003925671  1.0000
  O   O7        1.0  0.0893524836356292  0.058518937271863115  0.3909167064452815  1.0000
  O   O8        1.0  0.9414810454711996  0.9106476526959569  0.10908453592242036  1.0000
  O   O9        1.0  0.05233640328999905  0.8074625160671828  0.9395002999572595  1.0000
  O   O10       1.0  0.19253937581077457  0.9476661100124987  0.5605029325087044  1.0000
  O   O11       1.0  0.9476608107968474  0.19253864896032266  0.060499391224809074  1.0000
  O   O12       1.0  0.8074622492065019  0.052337572901024  0.4394993909067891  1.0000
