data_image0
_chemical_formula_structural       Zn4H48C40S8N16O16
_chemical_formula_sum              "Zn4 H48 C40 S8 N16 O16"
_cell_length_a       8.29422027300155
_cell_length_b       10.793530195018484
_cell_length_c       15.841551490029053
_cell_angle_alpha    90.0002101013148
_cell_angle_beta     90.00006437354288
_cell_angle_gamma    90.00002707049825

_space_group_name_H-M_alt    "P 1"
_space_group_IT_number       1

loop_
  _space_group_symop_operation_xyz
  'x, y, z'

loop_
  _atom_site_type_symbol
  _atom_site_label
  _atom_site_symmetry_multiplicity
  _atom_site_fract_x
  _atom_site_fract_y
  _atom_site_fract_z
  _atom_site_occupancy
  Zn  Zn1       1.0  0.8187795762301417  0.9019172250857539  0.6614511021853602  1.0000
  Zn  Zn2       1.0  0.6812203554126909  0.09808246298287324  0.16144915643025115  1.0000
  Zn  Zn3       1.0  0.18122239526736186  0.40191620404252854  0.8385503666013888  1.0000
  Zn  Zn4       1.0  0.31878035977973695  0.5980842535314609  0.33854912139970145  1.0000
  H   H1        1.0  0.7226594859495703  0.9796837412786845  0.5039261962651196  1.0000
  H   H2        1.0  0.7773389027744881  0.0203151000008219  0.0039266376601432  1.0000
  H   H3        1.0  0.27733771046479916  0.479681749148746  0.9960729420386869  1.0000
  H   H4        1.0  0.22265935354678848  0.5203177022494643  0.4960733393970003  1.0000
  H   H5        1.0  0.7949395282961048  0.0018310186062322003  0.3994547978864418  1.0000
  H   H6        1.0  0.7050609129169273  0.9981680959256992  0.8994550236025489  1.0000
  H   H7        1.0  0.20505992237954018  0.5018296352561296  0.1005451329300584  1.0000
  H   H8        1.0  0.2949399117800766  0.4981704693748623  0.6005454234470876  1.0000
  H   H9        1.0  0.03147316674044019  0.7332495869288707  0.3962285309501468  1.0000
  H   H10       1.0  0.46852609482161967  0.2667493277451811  0.896229607439878  1.0000
  H   H11       1.0  0.9685252197912104  0.23324851767880975  0.1037713474847095  1.0000
  H   H12       1.0  0.53147579402016  0.7667499338515781  0.6037721544916934  1.0000
  H   H13       1.0  0.9285520302987819  0.8379298804142009  0.3321600754550005  1.0000
  H   H14       1.0  0.5714470611773521  0.1620697988480018  0.8321606559855114  1.0000
  H   H15       1.0  0.07144642024621818  0.3379288281091988  0.1678400648267981  1.0000
  H   H16       1.0  0.4285547636519241  0.6620716382758617  0.6678408441025852  1.0000
  H   H17       1.0  0.04193747889991779  0.761929786322632  0.7608330092902306  1.0000
  H   H18       1.0  0.45806269843600217  0.23806932699155683  0.260832208172836  1.0000
  H   H19       1.0  0.9580607900178321  0.2619294410936774  0.7391687405834942  1.0000
  H   H20       1.0  0.5419405136790799  0.7380706647586734  0.2391676823225239  1.0000
  H   H21       1.0  0.24857054240434445  0.7591615448226107  0.7778856894080732  1.0000
  H   H22       1.0  0.25142967144075357  0.24083766015844082  0.2778841421354414  1.0000
  H   H23       1.0  0.7514289304800598  0.2591610324987031  0.7221166847926384  1.0000
  H   H24       1.0  0.7485711310481662  0.7408389816848668  0.2221144927812801  1.0000
  H   H25       1.0  0.2769419010571638  0.0921258440234425  0.7767271486240048  1.0000
  H   H26       1.0  0.22305951596567294  0.9078742812085423  0.2767247281409482  1.0000
  H   H27       1.0  0.723058675340532  0.5921262359811693  0.7232735452530576  1.0000
  H   H28       1.0  0.7769413886682911  0.4078756373911219  0.22327432460065919  1.0000
  H   H29       1.0  0.38858859991968586  0.9534353945551431  0.7912375699461408  1.0000
  H   H30       1.0  0.1114128481717955  0.04656480868367651  0.2912367166687488  1.0000
  H   H31       1.0  0.6114109917632149  0.4534356858207005  0.7087627652063092  1.0000
  H   H32       1.0  0.8885890411766793  0.5465651830638124  0.2087626947963059  1.0000
  H   H33       1.0  0.9176257466927352  0.8135668140383387  0.9019078979436229  1.0000
  H   H34       1.0  0.582374699772174  0.1864341666404243  0.4019073774136999  1.0000
  H   H35       1.0  0.0823749651165926  0.3135616848613978  0.5980927185869191  1.0000
  H   H36       1.0  0.41762486379210617  0.6864374801054112  0.09809301517435638  1.0000
  H   H37       1.0  0.006331141925429099  0.6766461421900162  0.0191164000664727  1.0000
  H   H38       1.0  0.49366972355346656  0.32335537767163214  0.5191163704684386  1.0000
  H   H39       1.0  0.9936684156508162  0.1766434034081357  0.4808833367789801  1.0000
  H   H40       1.0  0.5063297885852193  0.823358001816686  0.9808842705565225  1.0000
  H   H41       1.0  0.8371976593960396  0.4958297537833757  0.06100309898295109  1.0000
  H   H42       1.0  0.6628080854844355  0.5041693943244709  0.561004589104293  1.0000
  H   H43       1.0  0.1628045046794  0.995829247908972  0.4389936487629953  1.0000
  H   H44       1.0  0.33719243712437214  0.0041708231312754  0.9389933597548888  1.0000
  H   H45       1.0  0.5798953695499449  0.45565905908844667  0.9882631600804357  1.0000
  H   H46       1.0  0.9201088787800201  0.5443396063665701  0.4882643651912346  1.0000
  H   H47       1.0  0.42010904612428124  0.9556600562706166  0.5117333931287787  1.0000
  H   H48       1.0  0.07989180355055941  0.0443432768708192  0.011735671962775  1.0000
  C   C1        1.0  0.8809985753581413  0.8496548331998568  0.4605805784288464  1.0000
  C   C2        1.0  0.6190007910677622  0.15034368344302607  0.9605817889175154  1.0000
  C   C3        1.0  0.1190010880147767  0.34965310791124427  0.0394189599299253  1.0000
  C   C4        1.0  0.3809998209329207  0.6503485210914377  0.5394196818423111  1.0000
  C   C5        1.0  0.14521789079641678  0.9339782572826748  0.7664463414927027  1.0000
  C   C6        1.0  0.35478350421456634  0.06602273916239201  0.26644315536972124  1.0000
  C   C7        1.0  0.8547804833307777  0.43397877065814316  0.7335552074922588  1.0000
  C   C8        1.0  0.6452183970294243  0.5660213050165056  0.23355377975986608  1.0000
  C   C9        1.0  0.6603356300425459  0.7956316898951314  0.8054917383359167  1.0000
  C   C10       1.0  0.8396609930176381  0.20436969896532287  0.3054907831122833  1.0000
  C   C11       1.0  0.33965904250683815  0.2956280994181881  0.6945100958345094  1.0000
  C   C12       1.0  0.16033858151429564  0.7043725103310906  0.1945096543390221  1.0000
  C   C13       1.0  0.6991060529525227  0.7107282518058327  0.8779106866687415  1.0000
  C   C14       1.0  0.8008955477930753  0.28927167339315935  0.377910552214594  1.0000
  C   C15       1.0  0.3008945959698721  0.21072147843509018  0.6220903038710118  1.0000
  C   C16       1.0  0.19910648997648647  0.7892787420136215  0.1220900976162511  1.0000
  C   C17       1.0  0.84323659248804  0.7348882371299864  0.9209002355270925  1.0000
  C   C18       1.0  0.656765100300113  0.2651128456487797  0.4209012181655822  1.0000
  C   C19       1.0  0.15676165989118823  0.23488488597273968  0.5791001841986372  1.0000
  C   C20       1.0  0.34323451137849753  0.7651160298588949  0.07910063373149258  1.0000
  C   C21       1.0  0.8932955944765053  0.6581387419226418  0.9866481336288189  1.0000
  C   C22       1.0  0.6067086503952125  0.3418608413296766  0.4866486474815729  1.0000
  C   C23       1.0  0.10670743360370949  0.1581340925736825  0.5133514628644775  1.0000
  C   C24       1.0  0.39329583084862907  0.8418646168539256  0.0133508713896262  1.0000
  C   C25       1.0  0.7985839882986382  0.5571330016191495  0.0104235224667022  1.0000
  C   C26       1.0  0.7014216482916422  0.4428658745947516  0.5104261445127349  1.0000
  C   C27       1.0  0.2014167018520538  0.05713279980694351  0.4895746529299175  1.0000
  C   C28       1.0  0.2985791425903982  0.9428693961058839  0.9895766892107574  1.0000
  C   C29       1.0  0.6535177248260026  0.534420092833557  0.9693352100068253  1.0000
  C   C30       1.0  0.8464876886373176  0.46557754439047017  0.4693361746972045  1.0000
  C   C31       1.0  0.34648643325667183  0.03441932999742651  0.530662183268376  1.0000
  C   C32       1.0  0.15351807392095648  0.9655831784173898  0.0306642848925236  1.0000
  C   C33       1.0  0.6021722835071228  0.6101912213019958  0.9026082395331869  1.0000
  C   C34       1.0  0.897829370116632  0.3898069837025062  0.402609044962233  1.0000
  C   C35       1.0  0.39782709827734647  0.1101908359127535  0.5973912370286172  1.0000
  C   C36       1.0  0.10217514044997239  0.8898120312116119  0.097393118848089  1.0000
  C   C37       1.0  0.4476152035209607  0.5826338240584762  0.8579780612187375  1.0000
  C   C38       1.0  0.052385181803096294  0.4173658114702549  0.35797683815801656  1.0000
  C   C39       1.0  0.5523865727314359  0.08263095556718267  0.6420238714138975  1.0000
  C   C40       1.0  0.9476133173190675  0.9173704810322931  0.14202286958040133  1.0000
  S   S1        1.0  0.9168537419359379  0.7749881417759499  0.555059246696743  1.0000
  S   S2        1.0  0.5831435506057119  0.22501190085591113  0.0550594543717366  1.0000
  S   S3        1.0  0.08314574062337242  0.2749858038887965  0.9449406420850721  1.0000
  S   S4        1.0  0.4168512139146613  0.725015225604743  0.4449416659644285  1.0000
  S   S5        1.0  0.9681798255950155  0.0175062071729002  0.7537970555338731  1.0000
  S   S6        1.0  0.5318190981002927  0.9824921243466561  0.2537934464468066  1.0000
  S   S7        1.0  0.0318194995153505  0.5175055435943962  0.7462059766934104  1.0000
  S   S8        1.0  0.46818064650285857  0.4824944175678212  0.246203899190526  1.0000
  N   N1        1.0  0.7877372695406705  0.949178305308635  0.4531710476296809  1.0000
  N   N2        1.0  0.7122620810215351  0.0508192450236038  0.9531726954065931  1.0000
  N   N3        1.0  0.21226124903331103  0.44917665389485967  0.0468287396764993  1.0000
  N   N4        1.0  0.28773605880014935  0.5508213090131093  0.5468285263989614  1.0000
  N   N5        1.0  0.9523481718512199  0.804414595584568  0.3912521061617511  1.0000
  N   N6        1.0  0.5476510461409846  0.19558540133291297  0.8912521252464741  1.0000
  N   N7        1.0  0.04765025819808949  0.30441136397430313  0.10874795028230008  1.0000
  N   N8        1.0  0.4523495935235146  0.6955878582709262  0.6087481961752488  1.0000
  N   N9        1.0  0.1463801077731972  0.8104792737183429  0.7660863741333586  1.0000
  N   N10       1.0  0.3536200808090867  0.18951894135285846  0.26608475874382975  1.0000
  N   N11       1.0  0.8536169851740494  0.3104779356433696  0.7339154971802981  1.0000
  N   N12       1.0  0.6463818959570843  0.6895239949273845  0.2339131165581563  1.0000
  N   N13       1.0  0.28030114634834996  0.9968650641925266  0.7796528684510734  1.0000
  N   N14       1.0  0.21969665996099508  0.0031332238035019994  0.2796500766265524  1.0000
  N   N15       1.0  0.7196984718930607  0.4968654572636594  0.7203482065876372  1.0000
  N   N16       1.0  0.7803027915100456  0.5031354738996258  0.22034796369791818  1.0000
  O   O1        1.0  0.7213177672611407  0.762922098236821  0.7336098671689798  1.0000
  O   O2        1.0  0.7786811132189512  0.23707890421908223  0.2336108515647126  1.0000
  O   O3        1.0  0.27868170791946767  0.2629170189449114  0.7663906226787418  1.0000
  O   O4        1.0  0.22131606999830913  0.737080271285599  0.2663909302053753  1.0000
  O   O5        1.0  0.5905617870061163  0.8967969467597572  0.8190075659162233  1.0000
  O   O6        1.0  0.9094348649913753  0.10320451475619312  0.3190063987761533  1.0000
  O   O7        1.0  0.40943053608846464  0.39679238261415867  0.6809938900554043  1.0000
  O   O8        1.0  0.09056464767373029  0.603206301508827  0.1809912606144195  1.0000
  O   O9        1.0  0.40575347406457496  0.6447671638368461  0.7946049146503498  1.0000
  O   O10       1.0  0.09424556991657339  0.355232131017452  0.29460229834729285  1.0000
  O   O11       1.0  0.5942411062291981  0.14475909241208745  0.7053978046450735  1.0000
  O   O12       1.0  0.9057540968684846  0.8552399054161984  0.2053959914717822  1.0000
  O   O13       1.0  0.36485637544029703  0.491485772823488  0.8896837819568191  1.0000
  O   O14       1.0  0.13514287210671938  0.5085158861024157  0.3896815731867704  1.0000
  O   O15       1.0  0.6351456508270626  0.9914855254728464  0.6103153858721484  1.0000
  O   O16       1.0  0.8648541713342082  0.0085138877105706  0.1103139555906338  1.0000
