data_image0
_chemical_formula_structural       Zn4H52C60N4O20
_chemical_formula_sum              "Zn4 H52 C60 N4 O20"
_cell_length_a       7.118074871
_cell_length_b       13.571564656529148
_cell_length_c       14.0979
_cell_angle_alpha    90.0
_cell_angle_beta     90.0
_cell_angle_gamma    95.3215907650211

_space_group_name_H-M_alt    "P 1"
_space_group_IT_number       1

loop_
  _space_group_symop_operation_xyz
  'x, y, z'

loop_
  _atom_site_type_symbol
  _atom_site_label
  _atom_site_symmetry_multiplicity
  _atom_site_fract_x
  _atom_site_fract_y
  _atom_site_fract_z
  _atom_site_occupancy
  Zn  Zn1       1.0  0.9228552576967103  0.4509893427528907  0.24591393044354246  1.0000
  Zn  Zn2       1.0  0.4228548767169756  0.9509949387060599  0.7540860695564573  1.0000
  Zn  Zn3       1.0  0.4112246624759095  0.33318190552894567  0.2649352031153569  1.0000
  Zn  Zn4       1.0  0.9112182048172812  0.8331808412629158  0.7350612502571323  1.0000
  H   H1        1.0  0.674815200898486  0.6999135552315678  0.16098000411408717  1.0000
  H   H2        1.0  0.1748238140045117  0.1999109193758173  0.8390185772349097  1.0000
  H   H3        1.0  0.637690800493317  0.8330787179018841  0.04204385050255868  1.0000
  H   H4        1.0  0.1377046405156364  0.33307386197306227  0.9579554401719432  1.0000
  H   H5        1.0  0.4817242756455188  0.6610119549200704  0.7525503798438036  1.0000
  H   H6        1.0  0.9817359302072859  0.1610144992348097  0.2474489108306912  1.0000
  H   H7        1.0  0.4146422645956989  0.48609831824327177  0.7067059632994981  1.0000
  H   H8        1.0  0.9146392709866191  0.9861009540990224  0.2932954553515045  1.0000
  H   H9        1.0  0.4269227295211806  0.35247952064313637  0.8287773356315498  1.0000
  H   H10       1.0  0.9269109140860365  0.8524799364258226  0.17122337369395516  1.0000
  H   H11       1.0  0.4965772649522293  0.3964184667414301  0.9959355648713668  1.0000
  H   H12       1.0  0.9965694024193611  0.8964174024754071  0.0040651444541382  1.0000
  H   H13       1.0  0.7076322906891406  0.1481121745994614  0.3641045829520735  1.0000
  H   H14       1.0  0.2076261247641041  0.6481088902603671  0.6358996730009423  1.0000
  H   H15       1.0  0.7117992495231674  0.0138081144462845  0.48604685804268394  1.0000
  H   H16       1.0  0.2117946193325864  0.5138055701315452  0.5139588165613346  1.0000
  H   H17       1.0  0.8321832258347257  0.1849380065942299  0.7800112073429375  1.0000
  H   H18       1.0  0.332174904462292  0.6849384223769164  0.21999092063357034  1.0000
  H   H19       1.0  0.8915392154901838  0.3595859745274623  0.8275707729520007  1.0000
  H   H20       1.0  0.391533703866223  0.8595863903101487  0.17243419232651994  1.0000
  H   H21       1.0  0.9017383005624776  0.4938730141204743  0.7045744401648475  1.0000
  H   H22       1.0  0.4017394207290579  0.9938712098300896  0.2954347810666817  1.0000
  H   H23       1.0  0.860865213212989  0.4497342614462383  0.535717376346831  1.0000
  H   H24       1.0  0.360886359611392  0.9497265369610091  0.4642911355591934  1.0000
  H   H25       1.0  0.5807140688642178  0.2847021699862893  0.07467353293753118  1.0000
  H   H26       1.0  0.08072502315044969  0.7847003656959044  0.9253172458309391  1.0000
  H   H27       1.0  0.3769339670425751  0.0367792104603808  0.1338036161414138  1.0000
  H   H28       1.0  0.8769279019645921  0.536780366267422  0.8662020584626047  1.0000
  H   H29       1.0  0.6100685203650329  0.003418912521667  0.111456316188935  1.0000
  H   H30       1.0  0.1100599372721689  0.5034178482556442  0.8885479397640805  1.0000
  H   H31       1.0  0.4359089278213162  0.9893992426507692  0.0197029344796036  1.0000
  H   H32       1.0  0.9359041164728978  0.4894040070385728  0.9803041587754178  1.0000
  H   H33       1.0  0.6693484877430436  0.2265125748772121  0.9418197036438014  1.0000
  H   H34       1.0  0.16933902321680697  0.726514470708608  0.05818100568169629  1.0000
  H   H35       1.0  0.5025210585222553  0.12930149551108627  0.8996935713829683  1.0000
  H   H36       1.0  0.0025049622054851128  0.6293056114155462  0.10030500996602137  1.0000
  H   H37       1.0  0.7287710717217806  0.10161792440217707  0.9396087360528893  1.0000
  H   H38       1.0  0.22876428608379482  0.6016190802092183  0.060396229225631294  1.0000
  H   H39       1.0  0.3906216136656511  0.3579660612136237  0.4794253044779708  1.0000
  H   H40       1.0  0.8906198594824559  0.857959816777111  0.5205718582200161  1.0000
  H   H41       1.0  0.1977152809386595  0.1028693055870633  0.4659552131877831  1.0000
  H   H42       1.0  0.6977119910210162  0.6028623211261885  0.5340391122081982  1.0000
  H   H43       1.0  0.1271723897099122  0.10270280010711019  0.5879953751977209  1.0000
  H   H44       1.0  0.6271624680017283  0.6026980357193066  0.411998950198253  1.0000
  H   H45       1.0  0.3592003940538788  0.0760108616343587  0.5582838578795444  1.0000
  H   H46       1.0  0.8591944252479703  0.5760046171978459  0.44170833953992866  1.0000
  H   H47       1.0  0.42200012586062746  0.3401736556381962  0.631093283396815  1.0000
  H   H48       1.0  0.921997751964497  0.8401718513478116  0.3689067166031846  1.0000
  H   H49       1.0  0.4239995278380419  0.2191937340029071  0.6799757410678209  1.0000
  H   H50       1.0  0.9239957490676712  0.7191919297125222  0.3200185843281602  1.0000
  H   H51       1.0  0.20712053081354037  0.2759417616677737  0.6741755864348562  1.0000
  H   H52       1.0  0.7071129300011024  0.7759421774504602  0.3258222855886358  1.0000
  C   C1        1.0  0.5858332361745368  0.5816569232239317  0.06710644847814248  1.0000
  C   C2        1.0  0.08582590681123037  0.081659467538671  0.9328949701728602  1.0000
  C   C3        1.0  0.6292957900203788  0.6808379474239814  0.0890586541257932  1.0000
  C   C4        1.0  0.1293005810843439  0.1808375316412949  0.9109385085722008  1.0000
  C   C5        1.0  0.610602220052449  0.7555478462416544  0.021933763184584593  1.0000
  C   C6        1.0  0.1106130231940057  0.255549650532032  0.9780619808623994  1.0000
  C   C7        1.0  0.5615738227391063  0.7316043582246365  0.9292802474127342  1.0000
  C   C8        1.0  0.06157962609665898  0.23160172236888593  0.07071195000673919  1.0000
  C   C9        1.0  0.5265529403917739  0.630388267047408  0.901265436696242  1.0000
  C   C10       1.0  0.0265547908470509  0.1303871112403669  0.09872959802523698  1.0000
  C   C11       1.0  0.4824512354558833  0.603090988651992  0.8058561913476507  1.0000
  C   C12       1.0  0.9824602111293927  0.10309427299108617  0.1941402620248383  1.0000
  C   C13       1.0  0.44691809149433237  0.5051828063431287  0.7803977897417338  1.0000
  C   C14       1.0  0.9469188996428597  0.0051875707309320986  0.21960291958377098  1.0000
  C   C15       1.0  0.4535035923336536  0.42999929193803865  0.8492619468147707  1.0000
  C   C16       1.0  0.9534976581158858  0.9300011877694345  0.15073592520872126  1.0000
  C   C17       1.0  0.4941684078320634  0.4539168791026142  0.9425581114917845  1.0000
  C   C18       1.0  0.9941638784885283  0.9539187749340099  0.057439051206209485  1.0000
  C   C19       1.0  0.532610150941828  0.5539888926264921  0.9719695841224547  1.0000
  C   C20       1.0  0.0326053696065713  0.053989956892515095  0.028028997226535096  1.0000
  C   C21       1.0  0.6010619030636376  0.5090575738676861  0.14700841969371226  1.0000
  C   C22       1.0  0.1010523836648005  0.0090556780362903  0.8529873243532717  1.0000
  C   C23       1.0  0.5398348522330992  0.813283806420898  0.8603777867625693  1.0000
  C   C24       1.0  0.03984398877998529  0.3132841306625735  0.13962008526092254  1.0000
  C   C25       1.0  0.7847893852442667  0.2647955148276466  0.46217025230708225  1.0000
  C   C26       1.0  0.28478896967639133  0.7647929705129144  0.5378332943204285  1.0000
  C   C27       1.0  0.7410312687661786  0.1662390711835116  0.4379311812397617  1.0000
  C   C28       1.0  0.24102471026049696  0.6662335667713464  0.5620723653877562  1.0000
  C   C29       1.0  0.7420628353727422  0.0911562000907438  0.5064867817192604  1.0000
  C   C30       1.0  0.2420525856852151  0.5911536557760044  0.493516055582745  1.0000
  C   C31       1.0  0.7771298370026899  0.11419537834553488  0.6009476588711777  1.0000
  C   C32       1.0  0.27711651584625224  0.614191353982086  0.39905517843082805  1.0000
  C   C33       1.0  0.811201937514106  0.21526568472476268  0.6299193496903825  1.0000
  C   C34       1.0  0.3111944975750518  0.7152631404100234  0.3700849062626331  1.0000
  C   C35       1.0  0.8397946142946537  0.24283751215600793  0.7265316110910119  1.0000
  C   C36       1.0  0.3397842337469044  0.742834227816914  0.2734719355364987  1.0000
  C   C37       1.0  0.8722020093519872  0.34073829422131746  0.7528702856453788  1.0000
  C   C38       1.0  0.3722000580496641  0.8407350098822235  0.24713467963313454  1.0000
  C   C39       1.0  0.8787346176598803  0.4162599997567965  0.6836805481667483  1.0000
  C   C40       1.0  0.37873854757492603  0.916258195466419  0.31632867306478113  1.0000
  C   C41       1.0  0.8541430859225085  0.3920094016323147  0.5892040658537778  1.0000
  C   C42       1.0  0.3541531241872348  0.8920024171714473  0.4108037367267484  1.0000
  C   C43       1.0  0.8197988646156559  0.2919107472316469  0.5591605842004839  1.0000
  C   C44       1.0  0.3198025328102787  0.79190746289256  0.4408436717525319  1.0000
  C   C45       1.0  0.802134153135192  0.3377604362154328  0.3829527802013074  1.0000
  C   C46       1.0  0.3021348807211268  0.837756411851984  0.6170479291241975  1.0000
  C   C47       1.0  0.7720228081099165  0.0312830495732754  0.6719553976124073  1.0000
  C   C48       1.0  0.272012296701952  0.5312790252098266  0.3280446023875925  1.0000
  C   C49       1.0  0.5264017567363268  0.2128036236945476  0.10473616637938928  1.0000
  C   C50       1.0  0.026406733533100635  0.7128077395990076  0.8952595776675948  1.0000
  C   C51       1.0  0.4875509230701596  0.0351185958069991  0.08006086012810697  1.0000
  C   C52       1.0  0.9875411322221906  0.5351145714435503  0.9199405585229028  1.0000
  C   C53       1.0  0.6145552714091663  0.1490105641668436  0.9517977854857802  1.0000
  C   C54       1.0  0.1145488783518331  0.6490139400469488  0.048204342490727484  1.0000
  C   C55       1.0  0.3411316131399147  0.2798194892897569  0.4658835713120411  1.0000
  C   C56       1.0  0.8411330612858379  0.7798154649263083  0.5341128820604482  1.0000
  C   C57       1.0  0.24401512634829461  0.12046338463525788  0.5385333985912766  1.0000
  C   C58       1.0  0.7440135030253143  0.6204578802230996  0.4614609268047047  1.0000
  C   C59       1.0  0.3412944028610454  0.2676949302518707  0.6376822079884261  1.0000
  C   C60       1.0  0.8412890883562197  0.7676923859371314  0.3623156640350657  1.0000
  N   N1        1.0  0.5420197810182756  0.1355339806317559  0.0477865497698247  1.0000
  N   N2        1.0  0.042019400038533716  0.6355395765849252  0.9522106129281693  1.0000
  N   N3        1.0  0.3075992150796267  0.2252426930834517  0.5438810035537216  1.0000
  N   N4        1.0  0.8075947820081736  0.7252371886712936  0.4561168684697704  1.0000
  O   O1        1.0  0.7247963012608594  0.5370948766184397  0.2102696146234564  1.0000
  O   O2        1.0  0.22478857931690743  0.0370952008601151  0.789724001447027  1.0000
  O   O3        1.0  0.4933916786924612  0.4293687911872865  0.1483972790273711  1.0000
  O   O4        1.0  0.9933793398164497  0.929366246872547  0.8516005929961208  1.0000
  O   O5        1.0  0.6228112342342342  0.8164792315872589  0.7804722689194816  1.0000
  O   O6        1.0  0.1228286691663243  0.3164788158045724  0.21952418445300023  1.0000
  O   O7        1.0  0.42728155499814596  0.8776651853110948  0.8831294022513985  1.0000
  O   O8        1.0  0.9272810545445082  0.37766254945534417  0.11686705112109047  1.0000
  O   O9        1.0  0.9280514009736222  0.41131885713619437  0.3873271905744815  1.0000
  O   O10       1.0  0.42804040071293054  0.9113200129432355  0.6126763560530293  1.0000
  O   O11       1.0  0.7028503837008984  0.3226343383922909  0.3080260180594293  1.0000
  O   O12       1.0  0.20284013401337114  0.8226317940775514  0.6919782378935864  1.0000
  O   O13       1.0  0.873352084707328  0.9615795070604847  0.6546393434483162  1.0000
  O   O14       1.0  0.3733556017572681  0.46157983130216  0.3453571099241728  1.0000
  O   O15       1.0  0.6644883124163383  0.03878393643899609  0.7439171791543442  1.0000
  O   O16       1.0  0.1644808724772773  0.5387813921242639  0.2560828208456555  1.0000
  O   O17       1.0  0.4571893503922055  0.20613082408245015  0.1867923591456915  1.0000
  O   O18       1.0  0.9571897862445409  0.7061290197920653  0.8132040942267977  1.0000
  O   O19       1.0  0.31932318100307805  0.24701272956883705  0.3828939061846056  1.0000
  O   O20       1.0  0.8193145333089189  0.747007225156679  0.6171053844898892  1.0000
