data_image0
_chemical_formula_structural       CuAg2H6C14N2O10
_chemical_formula_sum              "Cu1 Ag2 H6 C14 N2 O10"
_cell_length_a       5.056912236690392
_cell_length_b       8.87091683698807
_cell_length_c       8.973817237207498
_cell_angle_alpha    95.2666654728662
_cell_angle_beta     95.54429823188096
_cell_angle_gamma    102.98520001104066

_space_group_name_H-M_alt    "P 1"
_space_group_IT_number       1

loop_
  _space_group_symop_operation_xyz
  'x, y, z'

loop_
  _atom_site_type_symbol
  _atom_site_label
  _atom_site_symmetry_multiplicity
  _atom_site_fract_x
  _atom_site_fract_y
  _atom_site_fract_z
  _atom_site_occupancy
  Cu  Cu1       1.0  0.9999990582346785  0.9999994107065218  2.2526179392744e-06  1.0000
  Ag  Ag1       1.0  0.589003277693976  0.9669211311440686  0.3513036465142888  1.0000
  Ag  Ag2       1.0  0.41099026093281316  0.03307981687472509  0.6486955241986649  1.0000
  H   H1        1.0  0.2922861691445888  0.5591350537840326  0.44983181821877594  1.0000
  H   H2        1.0  0.7077000664408715  0.4408624901299587  0.5501722903879838  1.0000
  H   H3        1.0  0.0062265754514357246  0.6836953788165873  0.2787071392401401  1.0000
  H   H4        1.0  0.993764577271115  0.31630447579235005  0.7212962836189973  1.0000
  H   H5        1.0  0.6994989212612737  0.5203328242317369  0.061858749325835974  1.0000
  H   H6        1.0  0.3005075166117095  0.479665755177521  0.9381386614944702  1.0000
  C   C1        1.0  0.14334596051906345  0.3326633779519382  0.3256072327409854  1.0000
  C   C2        1.0  0.856657043543535  0.6673317077979488  0.674389732446002  1.0000
  C   C3        1.0  0.15987696016321712  0.4911156321677765  0.35266243850003315  1.0000
  C   C4        1.0  0.8401221025986773  0.5088888974565576  0.6473428630948987  1.0000
  C   C5        1.0  0.000606483228032892  0.560298474614761  0.2573159795590882  1.0000
  C   C6        1.0  0.9993940726466307  0.43969546463588205  0.7426818869691942  1.0000
  C   C7        1.0  0.8268903903848184  0.46847500751192667  0.13652356120878298  1.0000
  C   C8        1.0  0.17311950754736932  0.5315317958060248  0.8634791224901477  1.0000
  C   C9        1.0  0.8137553326654938  0.3101188986859923  0.11018502711509368  1.0000
  C   C10       1.0  0.1862457264010188  0.6898762229929428  0.8898140713679793  1.0000
  C   C11       1.0  0.2979078283474266  0.23722800672020833  0.41573115836818175  1.0000
  C   C12       1.0  0.7020936148311135  0.7627729037611315  0.5842661807702285  1.0000
  C   C13       1.0  0.6344145714933092  0.20913694406385724  0.9773752044057602  1.0000
  C   C14       1.0  0.3655908654835756  0.7908639830416744  0.02262345281530996  1.0000
  N   N1        1.0  0.9728106892769262  0.2472095655754174  0.2059772960781459  1.0000
  N   N2        1.0  0.02719577484486981  0.7527937440831632  0.794024941987459  1.0000
  O   O1        1.0  0.9501290952000688  0.09278453912057928  0.1953393539986621  1.0000
  O   O2        1.0  0.04987688649112689  0.9072176058061597  0.8046627690471195  1.0000
  O   O3        1.0  0.5020607917109743  0.20704765194044938  0.3590648672866976  1.0000
  O   O4        1.0  0.4979416731248988  0.7929509285410744  0.6409323423859092  1.0000
  O   O5        1.0  0.20758180551867866  0.19792928071338872  0.5364620671327955  1.0000
  O   O6        1.0  0.7924181543331485  0.8020728127323835  0.4635364033865558  1.0000
  O   O7        1.0  0.7263046876600115  0.10134598499362109  0.9062407088387161  1.0000
  O   O8        1.0  0.2736899917039252  0.8986480266512726  0.09376132370788068  1.0000
  O   O9        1.0  0.41251556731786815  0.2410568320034726  0.9368541505911168  1.0000
  O   O10       1.0  0.58748776406064  0.7589487020122829  0.06314141475665737  1.0000
