data_image0
_chemical_formula_structural       CdP2H34C22S4N4O4
_chemical_formula_sum              "Cd1 P2 H34 C22 S4 N4 O4"
_cell_length_a       8.894772323766453
_cell_length_b       9.346550400133218
_cell_length_c       10.372865104913473
_cell_angle_alpha    66.05010348560282
_cell_angle_beta     76.655611864183
_cell_angle_gamma    72.30644692958039

_space_group_name_H-M_alt    "P 1"
_space_group_IT_number       1

loop_
  _space_group_symop_operation_xyz
  'x, y, z'

loop_
  _atom_site_type_symbol
  _atom_site_label
  _atom_site_symmetry_multiplicity
  _atom_site_fract_x
  _atom_site_fract_y
  _atom_site_fract_z
  _atom_site_occupancy
  Cd  Cd1       1.0  0.5000003470349409  0.9999994493557842  0.4999990426719377  1.0000
  P   P1        1.0  0.6352286995449318  0.6304191634461206  0.6903595310156022  1.0000
  P   P2        1.0  0.36476984557098996  0.36958239826446265  0.30963884972257466  1.0000
  H   H1        1.0  0.18140046907150512  0.16318881537644367  0.3070728572964613  1.0000
  H   H2        1.0  0.8186012025406126  0.8368091291143004  0.6929272318853139  1.0000
  H   H3        1.0  0.3494141378879829  0.6703992333197207  0.5449606149815838  1.0000
  H   H4        1.0  0.6505955796986596  0.3295890118445827  0.4550376773292302  1.0000
  H   H5        1.0  0.0700931571883174  0.7108716731316208  0.44160817164337374  1.0000
  H   H6        1.0  0.9299033138427718  0.2891190257453999  0.5583897914564135  1.0000
  H   H7        1.0  0.9145692986020532  0.1630960268699866  0.2616209840622191  1.0000
  H   H8        1.0  0.08543089818800803  0.8369031528200852  0.7383818203473427  1.0000
  H   H9        1.0  0.8488339860145755  0.9830246907294226  0.34259087664116095  1.0000
  H   H10       1.0  0.1511685806226453  0.016974444790356806  0.6574076394016972  1.0000
  H   H11       1.0  0.7547734108858105  0.9490400819139355  0.16522264668192585  1.0000
  H   H12       1.0  0.24522543532746965  0.05096510534067992  0.8347762667491809  1.0000
  H   H13       1.0  0.20344182155525908  0.0790423933954401  0.06870349052753263  1.0000
  H   H14       1.0  0.7965610603101183  0.9209603593817448  0.9312945944653066  1.0000
  H   H15       1.0  0.8938834138553982  0.3281178387881525  0.8244686665963531  1.0000
  H   H16       1.0  0.10611565453428536  0.6718813298405595  0.1755324270247485  1.0000
  H   H17       1.0  0.9394957239690309  0.4668273012958793  0.6499076774462015  1.0000
  H   H18       1.0  0.06050075532900929  0.5331730831841812  0.35009345687128496  1.0000
  H   H19       1.0  0.16481646249923892  0.37806857605315264  0.7893596927918763  1.0000
  H   H20       1.0  0.8351820826166828  0.6219329856574307  0.2106386879463002  1.0000
  H   H21       1.0  0.03949675445032598  0.44680413478307923  0.9232356166718038  1.0000
  H   H22       1.0  0.9605008956404998  0.5531962358984616  0.07676433720527615  1.0000
  H   H23       1.0  0.08085593735975034  0.5870083788965064  0.7481046140478826  1.0000
  H   H24       1.0  0.9191403085630083  0.412993185551244  0.2518932363422337  1.0000
  H   H25       1.0  0.4003626893815592  0.45915489455425273  0.8864483672276722  1.0000
  H   H26       1.0  0.5996346566799885  0.540846697528096  0.11355312143680861  1.0000
  H   H27       1.0  0.5941239468723296  0.3534408949986201  0.9347736994811485  1.0000
  H   H28       1.0  0.40587374267896337  0.6465642977678813  0.06522543064740925  1.0000
  H   H29       1.0  0.43534664181950683  0.16175356677698727  0.9599347246132269  1.0000
  H   H30       1.0  0.564652989304406  0.8382480308548211  0.04006825814226283  1.0000
  H   H31       1.0  0.6023596727169787  0.15339725964004464  0.827678987850931  1.0000
  H   H32       1.0  0.39763880174494654  0.8466043435036639  0.17232421160201034  1.0000
  H   H33       1.0  0.4113457475645319  0.2585151504651932  0.7746172849048564  1.0000
  H   H34       1.0  0.588652121770771  0.7414840485352843  0.22538691664254878  1.0000
  C   C1        1.0  0.19160271527164943  0.034374362326516895  0.35854818124106214  1.0000
  C   C2        1.0  0.8083992321081439  0.9656223773366649  0.6414523006392159  1.0000
  C   C3        1.0  0.2725281986259274  0.779026324422752  0.4814003045893925  1.0000
  C   C4        1.0  0.7274641670835323  0.22097758334955134  0.518587773066514  1.0000
  C   C5        1.0  0.1362640385390391  0.7962656360967914  0.4300210598666041  1.0000
  C   C6        1.0  0.8637532577427506  0.20373949611398962  0.5699782413771857  1.0000
  C   C7        1.0  0.9477715115562331  0.03508800789879271  0.27501017510877573  1.0000
  C   C8        1.0  0.05223106627986597  0.9649159662792002  0.724989444671458  1.0000
  C   C9        1.0  0.9762226911118361  0.015826605327866606  0.13307556312993546  1.0000
  C   C10       1.0  0.023782146456959197  0.9841725440279987  0.8669254107468947  1.0000
  C   C11       1.0  0.8623836245726295  0.9719431132825207  0.09254379409202346  1.0000
  C   C12       1.0  0.13761719147486667  0.02805846226414841  0.9074570444801185  1.0000
  C   C13       1.0  0.11396126582101114  0.04390048865217723  0.03906303013430801  1.0000
  C   C14       1.0  0.8860389733614511  0.956098666178022  0.9609368830464011  1.0000
  C   C15       1.0  0.9182591895557548  0.44797069438684645  0.7639350514273959  1.0000
  C   C16       1.0  0.08173844640426606  0.5520296845813208  0.23606586619264647  1.0000
  C   C17       1.0  0.058235387068016585  0.46681216801961517  0.8095138684772821  1.0000
  C   C18       1.0  0.9417631297863166  0.5331894102642141  0.190486439746799  1.0000
  C   C19       1.0  0.5127988191444359  0.381223219518482  0.8580625116767353  1.0000
  C   C20       1.0  0.487200288705722  0.6187807711951976  0.1419377581958372  1.0000
  C   C21       1.0  0.48881437566534885  0.22979679776601364  0.8545186662009175  1.0000
  C   C22       1.0  0.5111855453570369  0.7702035867516132  0.1454837455101341  1.0000
  S   S1        1.0  0.4670189628268344  0.7820746590666019  0.7674816369731802  1.0000
  S   S2        1.0  0.5329795681582895  0.2179269109306077  0.23251770750795236  1.0000
  S   S3        1.0  0.7145649222040192  0.714052689439889  0.4840025652155335  1.0000
  S   S4        1.0  0.2854341744472606  0.285946462615577  0.5159966009196637  1.0000
  N   N1        1.0  0.305255775443193  0.9284090015144173  0.43639514602632806  1.0000
  N   N2        1.0  0.6947484599308922  0.07158289675338383  0.5636047624646424  1.0000
  N   N3        1.0  0.08624151644395531  0.9589271632375189  0.35266889767677884  1.0000
  N   N4        1.0  0.9137583397882804  0.041063568823553  0.6473341977883821  1.0000
  O   O1        1.0  0.7772445016446311  0.5681790411399208  0.7888290949642639  1.0000
  O   O2        1.0  0.22275317670779057  0.4318213129683671  0.21116893142691856  1.0000
  O   O3        1.0  0.5804098653994456  0.4710521220366958  0.7156314687431404  1.0000
  O   O4        1.0  0.4195860623632439  0.5289506720984819  0.2843688801773185  1.0000
