data_image0
_chemical_formula_structural       Zn8H20C72Br4O26
_chemical_formula_sum              "Zn8 H20 C72 Br4 O26"
_cell_length_a       21.014430715412782
_cell_length_b       20.96473708696115
_cell_length_c       20.963205253237795
_cell_angle_alpha    103.17622227960793
_cell_angle_beta     112.64128652067141
_cell_angle_gamma    112.6320299267602

_space_group_name_H-M_alt    "P 1"
_space_group_IT_number       1

loop_
  _space_group_symop_operation_xyz
  'x, y, z'

loop_
  _atom_site_type_symbol
  _atom_site_label
  _atom_site_symmetry_multiplicity
  _atom_site_fract_x
  _atom_site_fract_y
  _atom_site_fract_z
  _atom_site_occupancy
  Zn  Zn1       1.0  0.570109713849021  0.2752563697996422  0.7072528161282036  1.0000
  Zn  Zn2       1.0  0.568974085777299  0.8629640400569941  0.2948113421036209  1.0000
  Zn  Zn3       1.0  0.5690118923783344  0.29485060952708864  0.862984142742384  1.0000
  Zn  Zn4       1.0  0.4309936264226267  0.7051636248392869  0.13701989129166486  1.0000
  Zn  Zn5       1.0  0.4310313079675651  0.13704904834158066  0.705194294459403  1.0000
  Zn  Zn6       1.0  0.42989356583995453  0.7247538570322619  0.292755176161549  1.0000
  Zn  Zn7       1.0  0.4298751979101991  0.2926956320332508  0.7247179889585736  1.0000
  Zn  Zn8       1.0  0.5701276319701022  0.7073128548097928  0.27528705357664046  1.0000
  H   H1        1.0  0.5175217538308772  0.5334149944083749  0.731135794895941  1.0000
  H   H2        1.0  0.43683322278469205  0.4644064840517359  0.1395698296603385  1.0000
  H   H3        1.0  0.4350039248708839  0.13856727797945473  0.46489245339012797  1.0000
  H   H4        1.0  0.5650088286038866  0.8614496924738831  0.5350863732990447  1.0000
  H   H5        1.0  0.5631646625359963  0.5356624986342311  0.8604144376579299  1.0000
  H   H6        1.0  0.3224724042888099  0.4570787704506287  0.8182675933581506  1.0000
  H   H7        1.0  0.6775310305273193  0.5428882758268897  0.18175795890591934  1.0000
  H   H8        1.0  0.6754385314883462  0.1814366954803575  0.5396794353631548  1.0000
  H   H9        1.0  0.4823996861754053  0.46652039495162245  0.26879319379720096  1.0000
  H   H10       1.0  0.3245823902888247  0.8185747222072521  0.460361412650954  1.0000
  H   H11       1.0  0.276456423737045  0.45391463836730145  0.6885648895753035  1.0000
  H   H12       1.0  0.7234647179010382  0.5459147876491599  0.31139983159295065  1.0000
  H   H13       1.0  0.7195290234754523  0.31012515594785833  0.5406170564279194  1.0000
  H   H14       1.0  0.28051716599609483  0.689902993331863  0.459459747526715  1.0000
  H   H15       1.0  0.4786726502507648  0.2668234073278057  0.46489479535009787  1.0000
  H   H16       1.0  0.4472707267386014  0.581641967455397  0.9647265960738876  1.0000
  H   H17       1.0  0.5527331297245155  0.4183665051358433  0.03527645548300037  1.0000
  H   H18       1.0  0.5514613076054928  0.03488602630099541  0.4174335024625009  1.0000
  H   H19       1.0  0.4485404819418619  0.9651270627786916  0.5825673999394921  1.0000
  H   H20       1.0  0.5213640122963666  0.7332096828176305  0.5351097834698065  1.0000
  C   C1        1.0  0.499985826593651  0.14071828498972397  0.859320797323697  1.0000
  C   C2        1.0  0.5248697782958018  0.4833685008770205  0.24948451308210196  1.0000
  C   C3        1.0  0.4982537913771876  0.6101959347003784  0.11026834845317501  1.0000
  C   C4        1.0  0.4982173274444148  0.11027618236145288  0.6101320616023498  1.0000
  C   C5        1.0  0.5017902495317372  0.8897380455912016  0.38987324469695744  1.0000
  C   C6        1.0  0.501758474992471  0.38982115834879494  0.889738938976073  1.0000
  C   C7        1.0  0.2802089596928282  0.13988579848086857  0.6400282819818058  1.0000
  C   C8        1.0  0.7197943264596488  0.8601198082354456  0.359978198914895  1.0000
  C   C9        1.0  0.71979429958251  0.3599614956635761  0.86007581533633  1.0000
  C   C10       1.0  0.28020949234704773  0.640044070791987  0.13992178873833436  1.0000
  C   C11       1.0  0.5215333296119765  0.24790656018119248  0.4814615519019083  1.0000
  C   C12       1.0  0.8070246675279406  0.4036379305269193  0.9039333595796109  1.0000
  C   C13       1.0  0.19298188568558317  0.5963716754965702  0.09606860505267174  1.0000
  C   C14       1.0  0.19298163767246018  0.09603479479222442  0.5963536039886532  1.0000
  C   C15       1.0  0.8070216503016708  0.9039708199567755  0.4036547875342008  1.0000
  C   C16       1.0  0.47849615386204647  0.752117363389502  0.5185477314451816  1.0000
  C   C17       1.0  0.881363224806435  0.4407578267737122  0.9408580122629642  1.0000
  C   C18       1.0  0.11863560968086524  0.5592518007910172  0.05913858430391628  1.0000
  C   C19       1.0  0.11863682026233847  0.059123484588290906  0.5592395953908706  1.0000
  C   C20       1.0  0.8813664640684848  0.9408821140953305  0.44076497487967686  1.0000
  C   C21       1.0  0.9626144632670872  0.4813295853607329  0.9813356567686566  1.0000
  C   C22       1.0  0.4750572243379524  0.5165519011798312  0.7504537599221308  1.0000
  C   C23       1.0  0.03738937671342774  0.5186834631662977  0.018658397737461  1.0000
  C   C24       1.0  0.0373893697382925  0.018654561629041704  0.5186729628697434  1.0000
  C   C25       1.0  0.9626118615145954  0.981346417328197  0.48132739077288267  1.0000
  C   C26       1.0  0.5000096294865556  0.4030610546772452  0.5969905589928856  1.0000
  C   C27       1.0  0.49999378217743373  0.5969457000150343  0.4030147970313819  1.0000
  C   C28       1.0  0.5000004016768003  0.4404099539785449  0.5596466502128193  1.0000
  C   C29       1.0  0.5000013504695316  0.559586402757631  0.44035239068892906  1.0000
  C   C30       1.0  0.5001610020485927  0.5175821800539141  0.8228405094873635  1.0000
  C   C31       1.0  0.4998124262180992  0.4824234564039215  0.17713247738212345  1.0000
  C   C32       1.0  0.49754136743880645  0.1761018965422494  0.48169183733987336  1.0000
  C   C33       1.0  0.5000146143507963  0.859294236369749  0.14068040971233126  1.0000
  C   C34       1.0  0.5024762851450432  0.8239174312406731  0.5183056337355508  1.0000
  C   C35       1.0  0.44566171804726196  0.4955986188250777  0.8479098285646244  1.0000
  C   C36       1.0  0.5543389314219312  0.5044040922829255  0.15209021158895564  1.0000
  C   C37       1.0  0.5525084877701331  0.15146362377681302  0.5030970453807626  1.0000
  C   C38       1.0  0.4475060951720736  0.8485511427113295  0.4969087084888884  1.0000
  C   C39       1.0  0.365561797926361  0.4743694525162709  0.7995822652454904  1.0000
  C   C40       1.0  0.6344207557838787  0.525578581406876  0.20041948885369013  1.0000
  C   C41       1.0  0.6319859470907188  0.1997655449101359  0.52277927202649  1.0000
  C   C42       1.0  0.3680390722771564  0.8002504258449578  0.47725273518467753  1.0000
  C   C43       1.0  0.3392624600226455  0.47219410046884047  0.7265974007050815  1.0000
  C   C44       1.0  0.6606687184421389  0.5276681460714201  0.27336855359761353  1.0000
  C   C45       1.0  0.6571984167527134  0.2721903077802353  0.523690086677604  1.0000
  C   C46       1.0  0.3428379157997908  0.7278348950408996  0.47635838914186457  1.0000
  C   C47       1.0  0.3942912490290881  0.4927958182480766  0.7025129351388628  1.0000
  C   C48       1.0  0.4999969090924239  0.4812239497585651  0.5187950708177951  1.0000
  C   C49       1.0  0.605607628481053  0.5070278217708691  0.2974170640119667  1.0000
  C   C50       1.0  0.6016608759611016  0.29574580110963217  0.5033599768076015  1.0000
  C   C51       1.0  0.39838431402954916  0.7042897521174255  0.49669329635607795  1.0000
  C   C52       1.0  0.4694110686397864  0.5447037724376644  0.9794092984427818  1.0000
  C   C53       1.0  0.5306003003895867  0.4553098506746593  0.020594477760070628  1.0000
  C   C54       1.0  0.5298907816856724  0.020382523500352103  0.454781857747271  1.0000
  C   C55       1.0  0.5000036176854437  0.5187729771924978  0.48120076156286723  1.0000
  C   C56       1.0  0.47010991947779257  0.9796276857445038  0.5452184540900616  1.0000
  C   C57       1.0  0.4972237151937903  0.5505222438507219  0.054097151413003544  1.0000
  C   C58       1.0  0.5027924714730858  0.4494954043831285  0.9459103469865723  1.0000
  C   C59       1.0  0.5028756964041818  0.9459572231315222  0.4495461792662851  1.0000
  C   C60       1.0  0.4971275100106637  0.054054707639430405  0.5504554886516146  1.0000
  C   C61       1.0  0.5279201241670249  0.5046121589706161  0.0756212973976531  1.0000
  C   C62       1.0  0.4720967056292054  0.495406649190933  0.9243886183774278  1.0000
  C   C63       1.0  0.47292230624987763  0.9246551351931843  0.49599166948873114  1.0000
  C   C64       1.0  0.527080646409452  0.0753544875767957  0.5040093822348268  1.0000
  C   C65       1.0  0.5000121976872123  0.3592242241910811  0.6407897623933251  1.0000
  C   C66       1.0  0.49999140447726387  0.6407865866210188  0.3592203938972601  1.0000
  C   C67       1.0  0.4999933755937391  0.0969338743161074  0.9031122266231222  1.0000
  C   C68       1.0  0.5000083479661086  0.9030809508333917  0.09688999391161698  1.0000
  C   C69       1.0  0.49998715593194015  0.059584973917488106  0.9404348908285626  1.0000
  C   C70       1.0  0.500015205292307  0.9404309870616387  0.05956401520323596  1.0000
  C   C71       1.0  0.4999939790648894  0.018780500539151  0.9812240663821965  1.0000
  C   C72       1.0  0.5000071110170057  0.9812285586242598  0.0187775689797436  1.0000
  Br  Br1       1.0  0.35836374932227244  0.4879224268778303  0.6022982928385189  1.0000
  Br  Br2       1.0  0.6413659482031164  0.5116122055238536  0.3975213953637748  1.0000
  Br  Br3       1.0  0.6355694816823102  0.3946203249423306  0.5051007965682215  1.0000
  Br  Br4       1.0  0.36450510529697766  0.6054459499764206  0.49502942485984386  1.0000
  O   O1        1.0  0.5000240212018027  0.24991533289670537  0.750093911721244  1.0000
  O   O2        1.0  0.4526564485954055  0.7863888526726727  0.10182623315618142  1.0000
  O   O3        1.0  0.4526178711795268  0.1018572423504338  0.7864136799634805  1.0000
  O   O4        1.0  0.5473850763825396  0.8981570065596571  0.21359031612274026  1.0000
  O   O5        1.0  0.5502933205525338  0.33691440616662754  0.6526028919884367  1.0000
  O   O6        1.0  0.4497088047650378  0.6630946769002505  0.3474058278693945  1.0000
  O   O7        1.0  0.44972030623583953  0.3473724644800954  0.6630997746894778  1.0000
  O   O8        1.0  0.5502835519612219  0.6526406643738412  0.3369133860781445  1.0000
  O   O9        1.0  0.4999798979732192  0.750096037797519  0.24991267669172146  1.0000
  O   O10       1.0  0.44475392985285095  0.08233335159815881  0.6272740776763327  1.0000
  O   O11       1.0  0.5552588637860438  0.9176791473443657  0.37273858420356737  1.0000
  O   O12       1.0  0.5553495990469983  0.3728258658870303  0.9177172319310143  1.0000
  O   O13       1.0  0.4446593984399528  0.6271872198222682  0.08229266113649915  1.0000
  O   O14       1.0  0.4464988482125065  0.35921039181044984  0.8190785652069364  1.0000
  O   O15       1.0  0.5535133586331398  0.6408038171929391  0.18092852896199926  1.0000
  O   O16       1.0  0.5534033594044699  0.18093075621325744  0.6406023874627067  1.0000
  O   O17       1.0  0.4465990678072771  0.8190834686960571  0.35939520043634576  1.0000
  O   O18       1.0  0.31466041816594265  0.10179351712169901  0.6527836485029254  1.0000
  O   O19       1.0  0.6853434419404892  0.8982149715349196  0.34722322430626923  1.0000
  O   O20       1.0  0.6853622805444246  0.3472118772112652  0.8981964210058492  1.0000
  O   O21       1.0  0.3146410647643521  0.6527919633126517  0.10180157691004149  1.0000
  O   O22       1.0  0.31371420219145557  0.21231601966419333  0.6613095053530812  1.0000
  O   O23       1.0  0.6862886923101073  0.7876907250845306  0.3386927860797754  1.0000
  O   O24       1.0  0.686268193161105  0.33867537762647265  0.787643859897784  1.0000
  O   O25       1.0  0.31373578699187027  0.6613342349080399  0.2123561561605172  1.0000
  O   O26       1.0  0.5473421883847821  0.21362598510966543  0.8981747954654792  1.0000
