data_image0
_chemical_formula_structural       Ag2P4H40C52N2O6
_chemical_formula_sum              "Ag2 P4 H40 C52 N2 O6"
_cell_length_a       10.501341571249426
_cell_length_b       11.698395935264593
_cell_length_c       12.170311672351351
_cell_angle_alpha    110.70652875487382
_cell_angle_beta     98.50318235316594
_cell_angle_gamma    97.31066330145154

_space_group_name_H-M_alt    "P 1"
_space_group_IT_number       1

loop_
  _space_group_symop_operation_xyz
  'x, y, z'

loop_
  _atom_site_type_symbol
  _atom_site_label
  _atom_site_symmetry_multiplicity
  _atom_site_fract_x
  _atom_site_fract_y
  _atom_site_fract_z
  _atom_site_occupancy
  Ag  Ag1       1.0  0.8283276409143028  0.5176013536554437  0.5471431822978942  1.0000
  Ag  Ag2       1.0  0.17167343942313099  0.4823994550431508  0.4528581482626207  1.0000
  P   P1        1.0  0.6585334726015403  0.3359966856298584  0.5005092312538649  1.0000
  P   P2        1.0  0.3414666534342317  0.6640041213144416  0.4994895094206697  1.0000
  P   P3        1.0  0.2304862968824253  0.30835304574014094  0.30424757832732036  1.0000
  P   P4        1.0  0.769510934772704  0.6916477468412269  0.6957516022542264  1.0000
  H   H1        1.0  0.2915608160005974  0.1501682865915015  0.4382997355016228  1.0000
  H   H2        1.0  0.7084400753566341  0.849831589649348  0.5617020749090358  1.0000
  H   H3        1.0  0.21530285629221882  0.9271149354004679  0.3957945294882279  1.0000
  H   H4        1.0  0.7846999657012929  0.07288495071900063  0.6042067139989199  1.0000
  H   H5        1.0  0.04632626518639435  0.7952939053941962  0.21210941092362393  1.0000
  H   H6        1.0  0.9536771488862215  0.20470412211408734  0.7878912773673292  1.0000
  H   H7        1.0  0.9539908202541766  0.8891376389551198  0.0716121975610521  1.0000
  H   H8        1.0  0.046009878975297604  0.11086130391797162  0.9283909136562442  1.0000
  H   H9        1.0  0.0346777478204601  0.1114744436606259  0.11021454260024652  1.0000
  H   H10       1.0  0.9653181263920912  0.8885244749709215  0.8897895754475654  1.0000
  H   H11       1.0  0.3737683969120765  0.2008157200950151  0.11465960221847378  1.0000
  H   H12       1.0  0.6262305763991377  0.7991841499072195  0.8853394912897199  1.0000
  H   H13       1.0  0.36203917079053843  0.20533837845469807  0.9105634617006897  1.0000
  H   H14       1.0  0.6379609520976643  0.7946624275795954  0.08943609993033877  1.0000
  H   H15       1.0  0.20569426538644106  0.319837393775572  0.8373287390593872  1.0000
  H   H16       1.0  0.7943047079247734  0.6801624762266699  0.1626703544488066  1.0000
  H   H17       1.0  0.06372293418188954  0.4278409820935708  0.9662324678292433  1.0000
  H   H18       1.0  0.9362748832572051  0.5721579500566065  0.033767799469089324  1.0000
  H   H19       1.0  0.07653181226647382  0.4273466611160828  0.1727204523366765  1.0000
  H   H20       1.0  0.9234679326613386  0.5726522800027141  0.8272800689946462  1.0000
  H   H21       1.0  0.4333768419238311  0.4114652944972051  0.6171495953139399  1.0000
  H   H22       1.0  0.5666219487023197  0.5885336448672902  0.38284833613140984  1.0000
  H   H23       1.0  0.3955274664647844  0.4395538504025254  0.8192337104231768  1.0000
  H   H24       1.0  0.6044728454036061  0.560447888089513  0.1807653713577082  1.0000
  H   H25       1.0  0.5530322533577418  0.3882739950164336  0.9611862082207734  1.0000
  H   H26       1.0  0.44696728059892615  0.6117286705390442  0.03881308764996315  1.0000
  H   H27       1.0  0.7497878750556168  0.30640304512015604  0.8969125000180966  1.0000
  H   H28       1.0  0.250210320343868  0.6935977519455109  0.10308680757994185  1.0000
  H   H29       1.0  0.7923993284719513  0.28545750348520477  0.6968407115153141  1.0000
  H   H30       1.0  0.20760079126868194  0.7145433016390826  0.3031596710722084  1.0000
  H   H31       1.0  0.4952689265022059  0.08214826771781963  0.41057534403969936  1.0000
  H   H32       1.0  0.5047331207271455  0.9178525463750873  0.589425292580813  1.0000
  H   H33       1.0  0.5528496563764804  0.8725120897973115  0.3359595613922012  1.0000
  H   H34       1.0  0.44715027753152736  0.1274877837792303  0.664040480088971  1.0000
  H   H35       1.0  0.7845237321447129  0.852540362771855  0.32472627177660496  1.0000
  H   H36       1.0  0.21547620491085692  0.1474595117146933  0.6752729487480805  1.0000
  H   H37       1.0  0.9560158480115674  0.0419632481530883  0.3787644736745932  1.0000
  H   H38       1.0  0.04398486380816277  0.9580356983600208  0.6212353537167343  1.0000
  H   H39       1.0  0.897673901112796  0.251921078978981  0.44848998022645487  1.0000
  H   H40       1.0  0.10232699968713631  0.7480787999918732  0.5515093673147219  1.0000
  C   C1        1.0  0.5068166486287495  0.3268537347511895  0.4147795463661622  1.0000
  C   C2        1.0  0.4931698526199781  0.6731414300706219  0.5852105707169101  1.0000
  C   C3        1.0  0.39703928373607766  0.3225103365050472  0.3606197472187631  1.0000
  C   C4        1.0  0.6029714717737066  0.6774858646922155  0.6393804540349421  1.0000
  C   C5        1.0  0.17095346436104816  0.1443789043203267  0.27507896026194345  1.0000
  C   C6        1.0  0.829047612828809  0.8556219034682685  0.7249231912550584  1.0000
  C   C7        1.0  0.21948654415067637  0.0925686636346157  0.356606678492227  1.0000
  C   C8        1.0  0.7805126118456017  0.9074321370053582  0.6433935770788038  1.0000
  C   C9        1.0  0.17593480170313575  0.9668466579208258  0.3326547354404496  1.0000
  C   C10       1.0  0.8240680171428137  0.03315322728863631  0.6673473290031919  1.0000
  C   C11       1.0  0.08181040643319201  0.8929602771554461  0.22935286533916624  1.0000
  C   C12       1.0  0.918192409265188  0.10703960714401721  0.7706500200609694  1.0000
  C   C13       1.0  0.030161818160081663  0.9456744894755079  0.15039580179044532  1.0000
  C   C14       1.0  0.9698386920891905  0.054323520939838915  0.8496077892770016  1.0000
  C   C15       1.0  0.07451403576477128  0.07101667639244619  0.1727081702152589  1.0000
  C   C16       1.0  0.9254841470444504  0.9289841170332169  0.8272944212087552  1.0000
  C   C17       1.0  0.22519724861856358  0.3128960226620165  0.15582641038970016  1.0000
  C   C18       1.0  0.7748026852894371  0.6871038509145323  0.8441736310914791  1.0000
  C   C19       1.0  0.3060216887893432  0.2507692083909419  0.0820835971137868  1.0000
  C   C20       1.0  0.6939782451186575  0.7492306651856073  0.9179164443673855  1.0000
  C   C21       1.0  0.2995859458341458  0.2536736132298856  0.9680159102806981  1.0000
  C   C22       1.0  0.7004130274770688  0.746326256772349  0.031983183227488714  1.0000
  C   C23       1.0  0.21231131783125082  0.31775868776338007  0.9268297653282146  1.0000
  C   C24       1.0  0.7876876523323945  0.6822411813288553  0.07317014913646597  1.0000
  C   C25       1.0  0.1314503214409513  0.37856049140750503  0.9997021090124533  1.0000
  C   C26       1.0  0.8685484660376301  0.621438447046991  0.0002966433893903118  1.0000
  C   C27       1.0  0.1376353587823473  0.37697595635452796  0.11467588415412425  1.0000
  C   C28       1.0  0.8623636113812976  0.6230239127377075  0.8853240303105565  1.0000
  C   C29       1.0  0.6148713280560115  0.3449523965367618  0.6430492303177073  1.0000
  C   C30       1.0  0.38512860899955825  0.6550474779497862  0.35694999020697776  1.0000
  C   C31       1.0  0.5037026380667766  0.3894276341491434  0.6782678395575485  1.0000
  C   C32       1.0  0.49629633839199977  0.6105722367630975  0.3217304329941514  1.0000
  C   C33       1.0  0.48252797306102485  0.4052370774925295  0.792955690677992  1.0000
  C   C34       1.0  0.5174713719154483  0.5947646556052035  0.2070440850428952  1.0000
  C   C35       1.0  0.5703571094081922  0.37557558080109743  0.871837171516674  1.0000
  C   C36       1.0  0.4296420528832171  0.624425221658889  0.12816144214136926  1.0000
  C   C37       1.0  0.6803923330977922  0.3297856518101129  0.8359744183299183  1.0000
  C   C38       1.0  0.31960701502625  0.6702160821976194  0.16402453643446793  1.0000
  C   C39       1.0  0.7036055169800405  0.3158568693737038  0.7225845607950631  1.0000
  C   C40       1.0  0.2963938248488631  0.6841448628140229  0.277416035882311  1.0000
  C   C41       1.0  0.6935154699407916  0.1802047895216461  0.4359342163153741  1.0000
  C   C42       1.0  0.3064844671147782  0.8197950849648948  0.5640650042093113  1.0000
  C   C43       1.0  0.596084436063208  0.07320479696494431  0.4032455878467616  1.0000
  C   C44       1.0  0.4039155009923618  0.9267950775215965  0.5967536326779238  1.0000
  C   C45       1.0  0.6286072294201475  0.9555704112350586  0.3615077342686348  1.0000
  C   C46       1.0  0.3713928934680553  0.04443039479922821  0.6384918273624007  1.0000
  C   C47       1.0  0.7584858895088968  0.9443779532701344  0.35360488171330207  1.0000
  C   C48       1.0  0.24151290111725388  0.05562098609436108  0.6463930497320474  1.0000
  C   C49       1.0  0.8550324069879307  0.050612247755566414  0.38474542316467353  1.0000
  C   C50       1.0  0.14496753321520123  0.949387627640981  0.615252976403518  1.0000
  C   C51       1.0  0.8226656119526935  0.168599800814988  0.4249038615431003  1.0000
  C   C52       1.0  0.17733318182101954  0.8313991394595065  0.5750932489457554  1.0000
  N   N1        1.0  0.9173523166463581  0.5981260207188299  0.34524854361904284  1.0000
  N   N2        1.0  0.08264742828144732  0.40187292039996697  0.6547519777122801  1.0000
  O   O1        1.0  0.9532658732336472  0.5333497407592918  0.4084684036233525  1.0000
  O   O2        1.0  0.04673406067436052  0.46665013281725015  0.5915316378578268  1.0000
  O   O3        1.0  0.9841146896370531  0.609533613488509  0.27118017375894243  1.0000
  O   O4        1.0  0.01588524741851671  0.3904662609980321  0.7288190467657429  1.0000
  O   O5        1.0  0.8179450205771062  0.6458996372700839  0.36156405308622647  1.0000
  O   O6        1.0  0.1820558770752569  0.3541002407907713  0.6384361154114443  1.0000
