data_image0
_chemical_formula_structural       Zn2H28C44S8N6O34
_chemical_formula_sum              "Zn2 H28 C44 S8 N6 O34"
_cell_length_a       16.28908963326066
_cell_length_b       17.26395595647033
_cell_length_c       19.238212808997066
_cell_angle_alpha    86.17377815222092
_cell_angle_beta     83.20725021390818
_cell_angle_gamma    86.499164538918

_space_group_name_H-M_alt    "P 1"
_space_group_IT_number       1

loop_
  _space_group_symop_operation_xyz
  'x, y, z'

loop_
  _atom_site_type_symbol
  _atom_site_label
  _atom_site_symmetry_multiplicity
  _atom_site_fract_x
  _atom_site_fract_y
  _atom_site_fract_z
  _atom_site_occupancy
  Zn  Zn1       1.0  0.5825030376548669  0.492158591785632  0.49864699306431953  1.0000
  Zn  Zn2       1.0  0.4060697802021878  0.48693375227301056  0.511943015660961  1.0000
  H   H1        1.0  0.6010330390412478  0.44022839424119536  0.7183027390587569  1.0000
  H   H2        1.0  0.6199871272799627  0.47131788541594233  0.13274974921883853  1.0000
  H   H3        1.0  0.3946421128133153  0.24225428777351246  0.5607692592062961  1.0000
  H   H4        1.0  0.6042843492994622  0.7208287740223438  0.4355161655998785  1.0000
  H   H5        1.0  0.3450677991004625  0.7416415084376948  0.507231507687294  1.0000
  H   H6        1.0  0.6430059001705574  0.25168399793529517  0.45946084656514324  1.0000
  H   H7        1.0  0.417860327091816  0.0014784239067466992  0.44852029825818823  1.0000
  H   H8        1.0  0.5913786746073485  0.9794304338100235  0.49828004021598826  1.0000
  H   H9        1.0  0.65030324513193  0.1076261625972919  0.4508354964473469  1.0000
  H   H10       1.0  0.3485258577422243  0.8862549423304031  0.4912573995781814  1.0000
  H   H11       1.0  0.6639710587213871  0.5635965054356687  0.38641240973508667  1.0000
  H   H12       1.0  0.38511793944497436  0.5646142316777014  0.29845559188591864  1.0000
  H   H13       1.0  0.31996833660950597  0.4500371024118692  0.6333517924049802  1.0000
  H   H14       1.0  0.7675807275513976  0.3937852973042267  0.7065760014651021  1.0000
  H   H15       1.0  0.2233143641018955  0.5692298548135638  0.28960063209135  1.0000
  H   H16       1.0  0.6809255588616454  0.521660747683832  0.9122228070149275  1.0000
  H   H17       1.0  0.39820664805446176  0.6665995511208037  0.08038340440376153  1.0000
  H   H18       1.0  0.267568630194802  0.6612677053946925  0.8054554557328971  1.0000
  H   H19       1.0  0.7377680120754493  0.3746284931195872  0.1887870478785345  1.0000
  H   H20       1.0  0.7289537670172025  0.7813773492451688  0.37441856380768007  1.0000
  H   H21       1.0  0.2701652392385014  0.1572010569886544  0.6059153553238872  1.0000
  H   H22       1.0  0.2887404134827137  0.5292465912316756  0.4149111042338803  1.0000
  H   H23       1.0  0.7048348966282919  0.4195707488648707  0.577174893242308  1.0000
  H   H24       1.0  0.9883262121652621  0.5713557503605314  0.47333493310343755  1.0000
  H   H25       1.0  0.0022742433478129083  0.40199784511830927  0.5345642679973608  1.0000
  H   H26       1.0  0.1119775818970723  0.4154041098766186  0.6150159923062759  1.0000
  H   H27       1.0  0.87235958120759  0.5889783086402998  0.4100544676393341  1.0000
  H   H28       1.0  0.40876419103469175  0.6182876474193365  0.8572299994651048  1.0000
  C   C1        1.0  0.5098558801092709  0.3417869923124569  0.510430951793353  1.0000
  C   C2        1.0  0.4786596557359317  0.8865156510235294  0.4556649403820714  1.0000
  C   C3        1.0  0.5940790497702224  0.13742022579965144  0.47477959286695176  1.0000
  C   C4        1.0  0.4044648065986677  0.8495747077087898  0.47829268912942513  1.0000
  C   C5        1.0  0.5902725779700618  0.21753376961674317  0.4793329503050785  1.0000
  C   C6        1.0  0.4024520387644799  0.7692483634162316  0.4880062670781768  1.0000
  C   C7        1.0  0.5332849093054932  0.0095451699489644  0.4862740395582534  1.0000
  C   C8        1.0  0.47564774534987464  0.9707895406376252  0.4602558351257501  1.0000
  C   C9        1.0  0.24655290174870004  0.5062844418527989  0.45839784686942414  1.0000
  C   C10       1.0  0.7447848170506647  0.45576807982878603  0.5409992356745619  1.0000
  C   C11       1.0  0.1634841070118895  0.5001513421752717  0.45183112759802674  1.0000
  C   C12       1.0  0.47891444323769855  0.637654058122429  0.4912248719887629  1.0000
  C   C13       1.0  0.8280602561367587  0.45841823076072796  0.5482618016618589  1.0000
  C   C14       1.0  0.11194593145219763  0.4672274708784769  0.50966182278367  1.0000
  C   C15       1.0  0.8777677377243406  0.5073635611959445  0.49967759654434474  1.0000
  C   C16       1.0  0.48615255352197567  0.4970175321059004  0.6436057030437965  1.0000
  C   C17       1.0  0.5033591605055108  0.49450746641124954  0.3664638485900369  1.0000
  C   C18       1.0  0.1488869822194587  0.44089064112555576  0.5692378095909945  1.0000
  C   C19       1.0  0.8374027113033405  0.5512857966021727  0.44891105711392504  1.0000
  C   C20       1.0  0.23301671670360238  0.45092893652762456  0.572588566690989  1.0000
  C   C21       1.0  0.753101892681599  0.5440937589607343  0.44418967796505626  1.0000
  C   C22       1.0  0.022657941707343796  0.458604579207595  0.5130634596013338  1.0000
  C   C23       1.0  0.5170047526487878  0.25554193854961943  0.5083303786182756  1.0000
  C   C24       1.0  0.967069050388716  0.5153108059008176  0.496026178299978  1.0000
  C   C25       1.0  0.5581227175369321  0.4781854152706302  0.7498548143549755  1.0000
  C   C26       1.0  0.4371608685147237  0.5453308756077886  0.2617317085173454  1.0000
  C   C27       1.0  0.5724998834725383  0.49061286681755684  0.8177789504144998  1.0000
  C   C28       1.0  0.43543377120376897  0.5624671808457009  0.19030462283689084  1.0000
  C   C29       1.0  0.5172716956751914  0.5413297402242208  0.8583733941338635  1.0000
  C   C30       1.0  0.5043550299658932  0.5391001618522749  0.14251638446224044  1.0000
  C   C31       1.0  0.44968013114687716  0.57747202234264  0.8271756374158556  1.0000
  C   C32       1.0  0.5689458087362809  0.49261677078037264  0.1694165354721946  1.0000
  C   C33       1.0  0.435644275778948  0.5641515994074311  0.7591085077977411  1.0000
  C   C34       1.0  0.47590732036426425  0.723269117037944  0.47588232017808707  1.0000
  C   C35       1.0  0.5684777982786356  0.47369283321651773  0.24063476971726064  1.0000
  C   C36       1.0  0.4905244483356769  0.5136829152543141  0.719156252820845  1.0000
  C   C37       1.0  0.5038773549030536  0.5031163770065561  0.2881788995920616  1.0000
  C   C38       1.0  0.5154102428116759  0.5583977938322774  0.06699099781923219  1.0000
  C   C39       1.0  0.5239727719341616  0.5590472425810162  0.9307359198098198  1.0000
  C   C40       1.0  0.44951465179267563  0.21213596983781705  0.5354093935744473  1.0000
  C   C41       1.0  0.5489974824871312  0.7580480329404223  0.4483202633995517  1.0000
  C   C42       1.0  0.45399232992695454  0.13173524418521507  0.531428800898418  1.0000
  C   C43       1.0  0.5500067538362643  0.8383382428766238  0.43615011437223933  1.0000
  C   C44       1.0  0.5256127776870373  0.09269930621650961  0.49818107461045  1.0000
  S   S1        1.0  0.8665386056481452  0.4016665452840795  0.6199793520747151  1.0000
  S   S2        1.0  0.12566481166713567  0.5305073601944343  0.37030252010618636  1.0000
  S   S3        1.0  0.660335737454581  0.43523255042084935  0.8476016016330945  1.0000
  S   S4        1.0  0.3385978651971869  0.6056626314277835  0.16604229774229404  1.0000
  S   S5        1.0  0.3503267762462201  0.6166576037105925  0.7219685656842004  1.0000
  S   S6        1.0  0.6484832005087853  0.40905733460164134  0.2723218024435212  1.0000
  S   S7        1.0  0.6427150103647675  0.8782633050197789  0.3931076183724045  1.0000
  S   S8        1.0  0.3699161553438159  0.07752123833435577  0.5738669326101161  1.0000
  N   N1        1.0  0.46271763698960916  0.6024783933595471  0.9654657716299155  1.0000
  N   N2        1.0  0.5883092150262995  0.5371082835803378  0.030342076640117514  1.0000
  N   N3        1.0  0.46064986746694814  0.6055211094156476  0.0333265031239947  1.0000
  N   N4        1.0  0.5938611869133652  0.5408717626128378  0.962043918950535  1.0000
  N   N5        1.0  0.2809417735268268  0.482591455389958  0.5171327103067611  1.0000
  N   N6        1.0  0.707617197177072  0.49734724200089164  0.4905003668891084  1.0000
  O   O1        1.0  0.5759571458537212  0.3780705788000772  0.4941524347157298  1.0000
  O   O2        1.0  0.2652522507294748  0.42813096482719  0.6315225770659794  1.0000
  O   O3        1.0  0.9131373275294835  0.33460001748245105  0.5926451165164012  1.0000
  O   O4        1.0  0.9029193387386557  0.4522321752390964  0.6630297845483143  1.0000
  O   O5        1.0  0.7837794835411601  0.3697735183332682  0.6610080911436996  1.0000
  O   O6        1.0  0.07061762806750951  0.4740165846121158  0.3544924578415873  1.0000
  O   O7        1.0  0.09875077608110423  0.6117920135342771  0.3708159721389208  1.0000
  O   O8        1.0  0.20925575825016554  0.5208796829186042  0.31871015051746815  1.0000
  O   O9        1.0  0.629608790750254  0.38649173560336436  0.9073858769208274  1.0000
  O   O10       1.0  0.7062771417438399  0.4008312976948574  0.787732111045372  1.0000
  O   O11       1.0  0.7158031807376803  0.49873307540551076  0.8695226733991674  1.0000
  O   O12       1.0  0.41243543107563607  0.6021748710847845  0.49153075385670775  1.0000
  O   O13       1.0  0.30919661565292955  0.5532666190042831  0.1206060767425541  1.0000
  O   O14       1.0  0.2880711784836835  0.6273204667182313  0.2293234065340854  1.0000
  O   O15       1.0  0.36265798462725474  0.684181723443281  0.12494700780738553  1.0000
  O   O16       1.0  0.3841203535011175  0.6618862598464618  0.6615094344666163  1.0000
  O   O17       1.0  0.28324750909126806  0.5662688405319898  0.7213094542531452  1.0000
  O   O18       1.0  0.321040017365668  0.6773868458272146  0.7819465430920971  1.0000
  O   O19       1.0  0.716597768466336  0.4519916004172728  0.2875701012139373  1.0000
  O   O20       1.0  0.6082273521082514  0.3543115161399938  0.32211921747224187  1.0000
  O   O21       1.0  0.6794665121032538  0.36384162910184864  0.20212973273496004  1.0000
  O   O22       1.0  0.6213253257458149  0.9374188884881601  0.3415460562414411  1.0000
  O   O23       1.0  0.4381037090425437  0.3734136002843158  0.5277401981870256  1.0000
  O   O24       1.0  0.6979412562683152  0.8923325532429941  0.4439457398099478  1.0000
  O   O25       1.0  0.6841564218552632  0.8056712034110162  0.3494412615372369  1.0000
  O   O26       1.0  0.31338271125442657  0.0622375292926876  0.5243890679671139  1.0000
  O   O27       1.0  0.4024086822210435  0.016237075385063804  0.6184599160465609  1.0000
  O   O28       1.0  0.3215949020100057  0.14031670690679474  0.625467146327523  1.0000
  O   O29       1.0  0.5491722384296622  0.605814463111727  0.5026523914024282  1.0000
  O   O30       1.0  0.5556678207848194  0.48382150063056173  0.6086905232944275  1.0000
  O   O31       1.0  0.43670945057598937  0.47554715009933796  0.40166368013542814  1.0000
  O   O32       1.0  0.41540237735301133  0.49769929294385645  0.6217682818972535  1.0000
  O   O33       1.0  0.5700224588513835  0.5107828865228612  0.3895398232387848  1.0000
  O   O34       1.0  0.7177832555457684  0.5846409434875779  0.39291643081261896  1.0000
