data_image0
_chemical_formula_structural       Zn2H20C38N2Cl2O8
_chemical_formula_sum              "Zn2 H20 C38 N2 Cl2 O8"
_cell_length_a       10.945007432416428
_cell_length_b       16.535408976766142
_cell_length_c       17.92410443966443
_cell_angle_alpha    90.07990777759069
_cell_angle_beta     90.80755788123749
_cell_angle_gamma    89.48946523314449

_space_group_name_H-M_alt    "P 1"
_space_group_IT_number       1

loop_
  _space_group_symop_operation_xyz
  'x, y, z'

loop_
  _atom_site_type_symbol
  _atom_site_label
  _atom_site_symmetry_multiplicity
  _atom_site_fract_x
  _atom_site_fract_y
  _atom_site_fract_z
  _atom_site_occupancy
  Zn  Zn1       1.0  0.49813455046629695  0.41553361267732913  0.49982007134781975  1.0000
  Zn  Zn2       1.0  0.5018516944926718  0.5844568588220653  0.5001774271637629  1.0000
  H   H1        1.0  0.9309532036093274  0.3589213888545757  0.5063595647267292  1.0000
  H   H2        1.0  0.3561275926961329  0.8656927981015201  0.41591176991112616  1.0000
  H   H3        1.0  0.35614195866612874  0.13514390716697727  0.4158516309342203  1.0000
  H   H4        1.0  0.6438470730839826  0.8648465657031109  0.584151462220909  1.0000
  H   H5        1.0  0.6366923248155204  0.28649307489141046  0.5802664462547964  1.0000
  H   H6        1.0  0.36329490796475744  0.7134961901632549  0.4197383096486077  1.0000
  H   H7        1.0  0.3616092426571528  0.2872738651108974  0.4198636854824897  1.0000
  H   H8        1.0  0.638385269869879  0.7127159996314062  0.5801383218118943  1.0000
  H   H9        1.0  0.4949222563051024  0.370629740739126  0.2618407155688232  1.0000
  H   H10       1.0  0.5051466607882916  0.6293818427546184  0.7381304800348258  1.0000
  H   H11       1.0  0.4934060806519015  0.3704666904315062  0.7376487879190703  1.0000
  H   H12       1.0  0.06903415758917222  0.6410600159037826  0.49364909081845815  1.0000
  H   H13       1.0  0.5066997137219573  0.6295430786385198  0.2623599915082124  1.0000
  H   H14       1.0  0.07609720007572211  0.4264770559270089  0.3909383279486959  1.0000
  H   H15       1.0  0.923891973760398  0.5735055574761674  0.6090703386696885  1.0000
  H   H16       1.0  0.4951753293232316  0.3698122054068449  0.12196213241037407  1.0000
  H   H17       1.0  0.5050386752736388  0.6302198702865595  0.8780165816669835  1.0000
  H   H18       1.0  0.49310454966175143  0.3696537580678978  0.8775324531910298  1.0000
  H   H19       1.0  0.5071526097950212  0.6303813346516589  0.12247663069682346  1.0000
  H   H20       1.0  0.643856009574769  0.1342970755339508  0.5840968717145711  1.0000
  C   C1        1.0  0.5015271189369201  0.5001229568591227  0.6464288097000264  1.0000
  C   C2        1.0  0.4234234553679882  0.7500965568801589  0.4548513660745853  1.0000
  C   C3        1.0  0.422142700742441  0.25032935506006737  0.45491448842993504  1.0000
  C   C4        1.0  0.5778508980406514  0.7496605101468744  0.5450875137848996  1.0000
  C   C5        1.0  0.500005407817696  0.12238352917928096  0.4999939701335521  1.0000
  C   C6        1.0  0.49997999460550363  0.8776063418681587  0.5000113340082989  1.0000
  C   C7        1.0  0.500125925570771  0.03686655769401879  0.5000206955591933  1.0000
  C   C8        1.0  0.4998549069502473  0.9631245260800653  0.49998625792049  1.0000
  C   C9        1.0  0.7393600370350838  0.4973454913423651  0.5018668225486634  1.0000
  C   C10       1.0  0.26062632486530657  0.5026395401147283  0.4981368091948608  1.0000
  C   C11       1.0  0.9623690450569955  0.42131126451346995  0.5031142811107754  1.0000
  C   C12       1.0  0.4984837058159144  0.49987233845617146  0.35356492403231227  1.0000
  C   C13       1.0  0.03761556292861461  0.5786707461493846  0.496893801712332  1.0000
  C   C14       1.0  0.041243321185774603  0.4584264061773382  0.43974577313150576  1.0000
  C   C15       1.0  0.958743117156921  0.5415549984927422  0.5602617614531551  1.0000
  C   C16       1.0  0.0443811216370023  0.4653183157529596  0.5623852089842812  1.0000
  C   C17       1.0  0.9556043955366248  0.534663694168792  0.43762232097787995  1.0000
  C   C18       1.0  0.1244316232964593  0.5032609796667983  0.49862597510988116  1.0000
  C   C19       1.0  0.8755557213650464  0.496721029325684  0.5013815650113784  1.0000
  C   C20       1.0  0.4972592259311881  0.42658671094451245  0.15293289131996346  1.0000
  C   C21       1.0  0.5029685447301162  0.5734423352264386  0.8470486863678202  1.0000
  C   C22       1.0  0.4962410607163719  0.4264083633087096  0.8467573490146376  1.0000
  C   C23       1.0  0.5002843887563345  0.5000861378323762  0.03407731314056409  1.0000
  C   C24       1.0  0.504005169425966  0.5736182638210179  0.15324329841258325  1.0000
  C   C25       1.0  0.4969230182139555  0.42692978693974476  0.23037938229525418  1.0000
  C   C26       1.0  0.503214425449471  0.5730884190635165  0.7696016842903788  1.0000
  C   C27       1.0  0.496588890640382  0.4267426286242327  0.7692913958275225  1.0000
  C   C28       1.0  0.5035578973400449  0.5732713486230452  0.2307086883309211  1.0000
  C   C29       1.0  0.49958576412075223  0.5000901013209356  0.2700502488376556  1.0000
  C   C30       1.0  0.5005052782280259  0.499919667165912  0.729942269042631  1.0000
  C   C31       1.0  0.5004789704682723  0.5001266645223337  0.11296146294078108  1.0000
  C   C32       1.0  0.49979541867958954  0.4999053852048761  0.8870270713750867  1.0000
  C   C33       1.0  0.49999728975439695  0.4999483278788189  0.9659123795208656  1.0000
  C   C34       1.0  0.5801473355389108  0.16599506881395598  0.5469592500814996  1.0000
  C   C35       1.0  0.4198371668081364  0.8339948035275025  0.4530477228022745  1.0000
  C   C36       1.0  0.41951706876747613  0.16646508719823316  0.453004733645649  1.0000
  C   C37       1.0  0.5804728795957745  0.8335247801437191  0.5469978061914842  1.0000
  C   C38       1.0  0.5765646911562357  0.24989270770986857  0.5451533949083682  1.0000
  N   N1        1.0  0.4990731562172073  0.2911644714388045  0.5000754146344873  1.0000
  N   N2        1.0  0.5009186225031287  0.7088247899103662  0.4999265769641994  1.0000
  Cl  Cl1       1.0  0.10317883118936783  0.4212959205388032  0.6438546742358041  1.0000
  Cl  Cl2       1.0  0.8968066785591235  0.5786866941699955  0.3561528561834065  1.0000
  O   O1        1.0  0.5010387647902378  0.43158795357622654  0.6136852929680074  1.0000
  O   O2        1.0  0.49895293343612224  0.5684067500269308  0.3863150289226596  1.0000
  O   O3        1.0  0.4969921230157368  0.43113985028431046  0.3857123323092963  1.0000
  O   O4        1.0  0.5029948914101682  0.5688560591339707  0.6142756904069344  1.0000
  O   O5        1.0  0.6860718944380155  0.4292717040744377  0.5005654643636887  1.0000
  O   O6        1.0  0.3139107394177714  0.5707181667081399  0.4994364768965694  1.0000
  O   O7        1.0  0.31117318749105044  0.4330038286043631  0.49703093350190375  1.0000
  O   O8        1.0  0.6888185763790206  0.566986642318895  0.5029710590108889  1.0000
