data_image0
_chemical_formula_structural       Gd2H48C52Cl6O22
_chemical_formula_sum              "Gd2 H48 C52 Cl6 O22"
_cell_length_a       8.92296786172676
_cell_length_b       9.946449474932155
_cell_length_c       17.7613
_cell_angle_alpha    76.64902505384526
_cell_angle_beta     76.25173579531982
_cell_angle_gamma    69.61181325226363

_space_group_name_H-M_alt    "P 1"
_space_group_IT_number       1

loop_
  _space_group_symop_operation_xyz
  'x, y, z'

loop_
  _atom_site_type_symbol
  _atom_site_label
  _atom_site_symmetry_multiplicity
  _atom_site_fract_x
  _atom_site_fract_y
  _atom_site_fract_z
  _atom_site_occupancy
  Gd  Gd1       1.0  0.2637319263326318  0.5171177215803766  0.4980626147104203  1.0000
  Gd  Gd2       1.0  0.7362689177764778  0.4828797505755205  0.5019376113938563  1.0000
  H   H1        1.0  0.4613669022298765  0.49058699004797296  0.21920580607720552  1.0000
  H   H2        1.0  0.5386312574232406  0.5094115691656782  0.7807945999642243  1.0000
  H   H3        1.0  0.36374419868230484  0.3534524803259487  0.2526891567449852  1.0000
  H   H4        1.0  0.6362524302742116  0.6465471659454636  0.7473118545029607  1.0000
  H   H5        1.0  0.44442922529023576  0.3502739234546582  0.12628116444420104  1.0000
  H   H6        1.0  0.5555708878923156  0.6497289839900162  0.8737190090902801  1.0000
  H   H7        1.0  0.4422842206458312  0.3342365604169757  0.9909072412520885  1.0000
  H   H8        1.0  0.5577159154845431  0.6657696082009537  0.009091944804566775  1.0000
  H   H9        1.0  0.018434165437810093  0.7141947699469997  0.9829389627373358  1.0000
  H   H10       1.0  0.9815609557699362  0.2858092245554219  0.01706279228299219  1.0000
  H   H11       1.0  0.01874534154063675  0.7301603871729441  0.12019189273809158  1.0000
  H   H12       1.0  0.9812516873008973  0.2698414332139691  0.8798099156654047  1.0000
  H   H13       1.0  0.4982031317877754  0.9093172884727849  0.43649563910601336  1.0000
  H   H14       1.0  0.5017958046875463  0.0906823577986202  0.5635039705932456  1.0000
  H   H15       1.0  0.5976482514066603  0.8272672562948671  0.352383450879188  1.0000
  H   H16       1.0  0.4023506850686617  0.1727323899765381  0.6476161588200712  1.0000
  H   H17       1.0  0.5184944513414963  0.762810166799909  0.2638149317784482  1.0000
  H   H18       1.0  0.4815075465270128  0.2371873053559881  0.7361857195951842  1.0000
  H   H19       1.0  0.4824788579467735  0.7709217917566775  0.12937060689207414  1.0000
  H   H20       1.0  0.5175238708482935  0.22907024511045654  0.870630097051354  1.0000
  H   H21       1.0  0.1520538841829975  0.20674860119968494  0.1283670940835862  1.0000
  H   H22       1.0  0.84795195190091  0.7932477838984655  0.8716292984474449  1.0000
  H   H23       1.0  0.19068403494804895  0.1994218319409597  0.263750703768487  1.0000
  H   H24       1.0  0.8093206703242829  0.8005778143304456  0.7362454020590548  1.0000
  H   H25       1.0  0.0023324965368587097  0.1011626816003073  0.5217137468091481  1.0000
  H   H26       1.0  0.9976691243944628  0.8988358776133509  0.47828568295295076  1.0000
  H   H27       1.0  0.1586184042969805  0.07503307437895052  0.4373930125249644  1.0000
  H   H28       1.0  0.8413851242681218  0.9249633107191997  0.5626064706203096  1.0000
  H   H29       1.0  0.9743014011676859  0.1583951852653698  0.6304625874914508  1.0000
  H   H30       1.0  0.02569986577426418  0.8416077221792975  0.36953575922498766  1.0000
  H   H31       1.0  0.9437836335869747  0.14226324820313616  0.7724740204407682  1.0000
  H   H32       1.0  0.05621306421301849  0.8577461815880555  0.22752459139552886  1.0000
  H   H33       1.0  0.4077035073594645  0.8104080775955254  0.7737517623404528  1.0000
  H   H34       1.0  0.5922912369110946  0.18959700396465  0.22625102315574713  1.0000
  H   H35       1.0  0.4424749542909012  0.8275455430797649  0.6279331844578451  1.0000
  H   H36       1.0  0.5575208978434105  0.1724530161338862  0.3720697491759779  1.0000
  H   H37       1.0  0.2775465421892988  0.4077923233088967  0.7177746900635924  1.0000
  H   H38       1.0  0.7224558326164043  0.5922040617892537  0.2822254938560178  1.0000
  H   H39       1.0  0.0633296367079197  0.4561707415715404  0.7502150837891506  1.0000
  H   H40       1.0  0.9366727380977832  0.5438256435266099  0.2497851001304668  1.0000
  H   H41       1.0  0.029633257543743182  0.6930341037169825  0.6580721331421415  1.0000
  H   H42       1.0  0.9703675865653663  0.30696336843892175  0.3419280929621422  1.0000
  H   H43       1.0  0.1715758373723588  0.6747497923027765  0.718642115553422  1.0000
  H   H44       1.0  0.8284261604961499  0.32524767985312053  0.2813585358202104  1.0000
  H   H45       1.0  0.3738990561621236  0.6144615692925726  0.6169852834156088  1.0000
  H   H46       1.0  0.6261025647691978  0.3855369899210856  0.3830147093683465  1.0000
  H   H47       1.0  0.032164226453609494  0.4199260619536815  0.6387286375045561  1.0000
  H   H48       1.0  0.9678370175405105  0.5800735843177238  0.36127069668971495  1.0000
  C   C1        1.0  0.30951749570156295  0.4979028887291649  0.3331855782626505  1.0000
  C   C2        1.0  0.6904825945331581  0.5020967575422405  0.6668150197278208  1.0000
  C   C3        1.0  0.34630686230497787  0.47027749003896707  0.24929611883252534  1.0000
  C   C4        1.0  0.6536909204109448  0.5297221562324381  0.7507047546629265  1.0000
  C   C5        1.0  0.22957930226031917  0.5411384367599084  0.13277761723635706  1.0000
  C   C6        1.0  0.7704177265812149  0.4588633836270049  0.8672236281452826  1.0000
  C   C7        1.0  0.3494703721770306  0.43025637178538295  0.0963017728091131  1.0000
  C   C8        1.0  0.6505274334867153  0.5697465356592845  0.9036992392522123  1.0000
  C   C9        1.0  0.34891280048144324  0.42075766113512714  0.01904385369456917  1.0000
  C   C10       1.0  0.651084251307914  0.5792474204250483  0.9809569672310873  1.0000
  C   C11       1.0  0.23003030589697457  0.5226486714302894  0.9788767592394051  1.0000
  C   C12       1.0  0.7699663460073651  0.47735423601437793  0.02112439057440698  1.0000
  C   C13       1.0  0.11021826575466058  0.6339949100655673  0.014840045488099904  1.0000
  C   C14       1.0  0.88977723239028  0.3660079973790999  0.9851618051000558  1.0000
  C   C15       1.0  0.11028678707955201  0.6429674847631193  0.09173343632902228  1.0000
  C   C16       1.0  0.8897117724585754  0.3570332485660401  0.908267766867958  1.0000
  C   C17       1.0  0.40375744901164257  0.7493850035439423  0.42437222033093036  1.0000
  C   C18       1.0  0.5962441719196719  0.250613555669716  0.5756272094311754  1.0000
  C   C19       1.0  0.4777649764543881  0.8701190729386141  0.3880476765636658  1.0000
  C   C20       1.0  0.5222343369581209  0.129879486275037  0.611951465681571  1.0000
  C   C21       1.0  0.3583808510497661  0.9824306188590199  0.2722521082479545  1.0000
  C   C22       1.0  0.6416227004631594  0.017569027412385207  0.7277458243976298  1.0000
  C   C23       1.0  0.43898061609334604  0.8610508371587571  0.23474774792975944  1.0000
  C   C24       1.0  0.5610240662311554  0.1389455479393931  0.7652515974630204  1.0000
  C   C25       1.0  0.41787833808145086  0.8648740192778845  0.15879376197253953  1.0000
  C   C26       1.0  0.5821251904836586  0.1351223658202656  0.8412068472164336  1.0000
  C   C27       1.0  0.31542334140651457  0.9891573322378022  0.1205980005313165  1.0000
  C   C28       1.0  0.6845832485517747  0.0108368787448399  0.879400835222782  1.0000
  C   C29       1.0  0.23274955115745397  0.11014721393314632  0.15809800857615391  1.0000
  C   C30       1.0  0.7672566848114708  0.8898513452805049  0.8418997441322773  1.0000
  C   C31       1.0  0.2548101706273939  0.10637186235517503  0.23351306345765718  1.0000
  C   C32       1.0  0.7451945346449309  0.8936277839162372  0.7664841684135837  1.0000
  C   C33       1.0  0.1309599392282408  0.257173949212202  0.4892677858194787  1.0000
  C   C34       1.0  0.8690428125146568  0.7428213488281872  0.510732493667966  1.0000
  C   C35       1.0  0.12674216509487476  0.10293675985405322  0.496799582250695  1.0000
  C   C36       1.0  0.873259832773634  0.897060712301851  0.5031999430792382  1.0000
  C   C37       1.0  0.2117604692286862  0.9928337615602062  0.6197108812312777  1.0000
  C   C38       1.0  0.7882380903094415  0.007166971768953101  0.3802897589438529  1.0000
  C   C39       1.0  0.0715229274049491  0.0817956606635946  0.6601341700755157  1.0000
  C   C40       1.0  0.9284752781438143  0.9182094208965809  0.33986538705394764  1.0000
  C   C41       1.0  0.0528610484846226  0.0724752274849152  0.7412977936560168  1.0000
  C   C42       1.0  0.947135249430353  0.9275320281907612  0.2587011470684288  1.0000
  C   C43       1.0  0.17363172813912794  0.9741320199686498  0.7815317952888988  1.0000
  C   C44       1.0  0.8263630390792542  0.0258763227647876  0.2184694397076186  1.0000
  C   C45       1.0  0.3136145661030553  0.8848671854806157  0.7413818481436891  1.0000
  C   C46       1.0  0.6863790244080973  0.11513789607955262  0.2586205120831551  1.0000
  C   C47       1.0  0.3329048406085137  0.8940756517106863  0.6605883882420684  1.0000
  C   C48       1.0  0.6670910344736143  0.105926168676227  0.3394141209357713  1.0000
  C   C49       1.0  0.15915768641330888  0.4699252833268234  0.7000051138974825  1.0000
  C   C50       1.0  0.8408446883923874  0.5300711017713198  0.2999950700221348  1.0000
  C   C51       1.0  0.149292589735083  0.6284683084466707  0.6732717136260433  1.0000
  C   C52       1.0  0.850709408133433  0.3715291637092264  0.32672893774758904  1.0000
  Cl  Cl1       1.0  0.2320417935067382  0.5139728634994472  0.88172682863663  1.0000
  Cl  Cl2       1.0  0.7679525967744495  0.4860365662917445  0.1182731847483467  1.0000
  Cl  Cl3       1.0  0.29134190070664084  0.9942154119649302  0.025940502789104904  1.0000
  Cl  Cl4       1.0  0.7086584976217978  0.0057733637289417  0.974059775071595  1.0000
  Cl  Cl5       1.0  0.15098595906595588  0.9606090215148627  0.8825385974170034  1.0000
  Cl  Cl6       1.0  0.8490049699370203  0.0394004082763217  0.1174618292254479  1.0000
  O   O1        1.0  0.16630582524450693  0.5522655599249333  0.36767940621273704  1.0000
  O   O2        1.0  0.8336942649902142  0.4477340863464719  0.6323211917777343  1.0000
  O   O3        1.0  0.493597660919157  0.6316653452997727  0.46012478196367823  1.0000
  O   O4        1.0  0.5064028062527584  0.3683332139138784  0.5398747855509214  1.0000
  O   O5        1.0  0.14853129700787798  0.410150151576282  0.6357257648114184  1.0000
  O   O6        1.0  0.851471854620037  0.5898473205796222  0.36427418578787035  1.0000
  O   O7        1.0  0.2600135424393171  0.7617774619340667  0.4216517330866338  1.0000
  O   O8        1.0  0.7399842402766054  0.2382221843373387  0.5783485773869684  1.0000
  O   O9        1.0  0.2583164418399448  0.28017283010342453  0.4945283296176157  1.0000
  O   O10       1.0  0.7416897711811572  0.7198224679369718  0.5054704105686483  1.0000
  O   O11       1.0  0.265103718680706  0.6415075662001399  0.6023305314136209  1.0000
  O   O12       1.0  0.7348967484912092  0.3584909930135112  0.39766959912282834  1.0000
  O   O13       1.0  0.42995300209016546  0.45810679143055927  0.3692914704684683  1.0000
  O   O14       1.0  0.5700459343851563  0.5418928548408459  0.6307081392307907  1.0000
  O   O15       1.0  0.3733567113354468  0.9918401907734875  0.3457000188420238  1.0000
  O   O16       1.0  0.6266422251398751  0.0081594554979176  0.654299590857228  1.0000
  O   O17       1.0  0.0011975737463387989  0.3576006927133761  0.47484570873187687  1.0000
  O   O18       1.0  0.9988059548187634  0.6423956923847669  0.5251554634789457  1.0000
  O   O19       1.0  0.24261963264775233  0.9956133682359578  0.5399417121477724  1.0000
  O   O20       1.0  0.7573804346391455  0.0043830168621923  0.4600587472768254  1.0000
  O   O21       1.0  0.21643988417147136  0.5586248477830226  0.20907557215245018  1.0000
  O   O22       1.0  0.783559452188868  0.4413769726038907  0.7909259607460585  1.0000
