data_image0
_chemical_formula_structural       Cu3H8C20N22
_chemical_formula_sum              "Cu3 H8 C20 N22"
_cell_length_a       7.771274031159492
_cell_length_b       9.292853573886267
_cell_length_c       10.228786683373306
_cell_angle_alpha    84.77281377129081
_cell_angle_beta     87.70269800706424
_cell_angle_gamma    71.3699578552353

_space_group_name_H-M_alt    "P 1"
_space_group_IT_number       1

loop_
  _space_group_symop_operation_xyz
  'x, y, z'

loop_
  _atom_site_type_symbol
  _atom_site_label
  _atom_site_symmetry_multiplicity
  _atom_site_fract_x
  _atom_site_fract_y
  _atom_site_fract_z
  _atom_site_occupancy
  Cu  Cu1       1.0  4.727638975767513e-05  0.9998342505469042  0.5001246045783247  1.0000
  Cu  Cu2       1.0  0.3269078633787217  0.27905313609419846  0.0740087328256251  1.0000
  Cu  Cu3       1.0  0.6741019223760106  0.7206799174173285  0.9265758723413312  1.0000
  H   H1        1.0  0.6448731226046861  0.7473155412673266  0.3176740144225221  1.0000
  H   H2        1.0  0.354574447042893  0.25162309091229673  0.6820477187764454  1.0000
  H   H3        1.0  0.6252479018051034  0.974723511818567  0.1564232141770319  1.0000
  H   H4        1.0  0.3744304010962622  0.024120748952711307  0.8433172734134403  1.0000
  H   H5        1.0  0.10355746948724229  0.19334930792186364  0.2911507029889933  1.0000
  H   H6        1.0  0.8965142093829429  0.8062766928007861  0.7089333026583517  1.0000
  H   H7        1.0  0.36874810283778475  0.7626401174002595  0.4659749697890447  1.0000
  H   H8        1.0  0.6309566042375606  0.2368916027580923  0.5341475943808334  1.0000
  C   C1        1.0  0.5244071701934204  0.8476251935106802  0.31382959303465435  1.0000
  C   C2        1.0  0.4752596560702642  0.15150856893009032  0.6860727928062431  1.0000
  C   C3        1.0  0.5149127098879233  0.9725621742415812  0.22458467826045592  1.0000
  C   C4        1.0  0.4848257803163706  0.026509997208698607  0.7752519936990295  1.0000
  C   C5        1.0  0.22489068555932323  0.09442960794670802  0.2975983956507449  1.0000
  C   C6        1.0  0.7751015570866924  0.9050350400126778  0.70244271224945  1.0000
  C   C7        1.0  0.7045166473401635  0.1890275727008159  0.9556676282881326  1.0000
  C   C8        1.0  0.2956709920255207  0.8110425763775808  0.04442688283368309  1.0000
  C   C9        1.0  0.002495940662697631  0.3000823009561344  0.5973421666553165  1.0000
  C   C10       1.0  0.9969281285995422  0.7005559378703194  0.4017217695722691  1.0000
  C   C11       1.0  0.37448150854568496  0.8549394331772716  0.39410144122794577  1.0000
  C   C12       1.0  0.6252748561011856  0.14448881540786826  0.6059853756846465  1.0000
  C   C13       1.0  0.32222678560906814  0.5345330797074084  0.855067320152891  1.0000
  C   C14       1.0  0.6790743620327928  0.46610827999870025  0.146264705967333  1.0000
  C   C15       1.0  0.9248825031305117  0.494740281509941  0.7351214809368899  1.0000
  C   C16       1.0  0.07468827919968403  0.5055560041401961  0.2642786715965286  1.0000
  C   C17       1.0  0.2671386184390061  0.7605043579211355  0.7248527273132055  1.0000
  C   C18       1.0  0.7321403817366418  0.23941381654809393  0.2751064657156022  1.0000
  C   C19       1.0  0.9985572611795843  0.1927441786381152  0.9428157299872737  1.0000
  C   C20       1.0  0.0013440093746625182  0.8088455066602194  0.056808907635883095  1.0000
  N   N1        1.0  0.3648736879341213  0.0951550923480866  0.21733752417073762  1.0000
  N   N2        1.0  0.6351186849389235  0.9041297423929466  0.7825720599193816  1.0000
  N   N3        1.0  0.5682134345701826  0.17675728378979022  0.0033578555089448982  1.0000
  N   N4        1.0  0.43226263671288495  0.8221985474817187  0.9964307983212493  1.0000
  N   N5        1.0  0.3057830164144518  0.45033940146659307  0.9441921696285221  1.0000
  N   N6        1.0  0.6980390089439437  0.5513113421528291  0.05877159391403808  1.0000
  N   N7        1.0  0.9885257523932579  0.20856351108313484  0.5292813712576817  1.0000
  N   N8        1.0  0.01098097462745077  0.791381128040193  0.4705078994032519  1.0000
  N   N9        1.0  0.22562615475256112  0.9792712854042734  0.38557504924939684  1.0000
  N   N10       1.0  0.7742891005622708  0.020310901659676996  0.6146050429693729  1.0000
  N   N11       1.0  0.8477232765798631  0.19435748957219803  0.8917660685531246  1.0000
  N   N12       1.0  0.15206761875965932  0.8068350697493045  0.1083382139183655  1.0000
  N   N13       1.0  0.3489693834849916  0.6162575841748961  0.752505132819401  1.0000
  N   N14       1.0  0.6504996118009884  0.38385622508399564  0.2478534324058117  1.0000
  N   N15       1.0  0.0365797822121081  0.39949947120037893  0.6624119288329453  1.0000
  N   N16       1.0  0.9624526546399608  0.6021298704591943  0.3356466501238486  1.0000
  N   N17       1.0  0.8358536277773182  0.5885811399663937  0.8011139530812769  1.0000
  N   N18       1.0  0.16414335065238814  0.4104890244599276  0.1995269217140176  1.0000
  N   N19       1.0  0.20213629655096124  0.89071598973036  0.6883065841342316  1.0000
  N   N20       1.0  0.7970016756476069  0.10904182358794402  0.31127191600500487  1.0000
  N   N21       1.0  0.14167639449844674  0.1917852528050474  0.9772343465994953  1.0000
  N   N22       1.0  0.8583911998576779  0.8102778057176112  0.021673902961680386  1.0000
