data_image0
_chemical_formula_structural       Th2H16C24N8O20
_chemical_formula_sum              "Th2 H16 C24 N8 O20"
_cell_length_a       6.897388092313667
_cell_length_b       8.409108891478128
_cell_length_c       14.48763483101109
_cell_angle_alpha    79.08490795966193
_cell_angle_beta     76.23128873361262
_cell_angle_gamma    65.82281759912165

_space_group_name_H-M_alt    "P 1"
_space_group_IT_number       1

loop_
  _space_group_symop_operation_xyz
  'x, y, z'

loop_
  _atom_site_type_symbol
  _atom_site_label
  _atom_site_symmetry_multiplicity
  _atom_site_fract_x
  _atom_site_fract_y
  _atom_site_fract_z
  _atom_site_occupancy
  Th  Th1       1.0  0.7390379572922969  0.7498791696983815  0.25006212455384264  1.0000
  Th  Th2       1.0  0.260961161165369  0.2501226123439722  0.7499380396696081  1.0000
  H   H1        1.0  0.742973640057592  0.5216850498864501  0.9038276592613457  1.0000
  H   H2        1.0  0.168034103232209  0.978883215433953  0.5960005832961741  1.0000
  H   H3        1.0  0.25703193217998443  0.4783141329237564  0.09617340381070255  1.0000
  H   H4        1.0  0.8319599793682214  0.021110733113331993  0.40400123393395404  1.0000
  H   H5        1.0  0.39011072662271545  0.36989252904682957  0.47424692494344367  1.0000
  H   H6        1.0  0.23510993202975775  0.12952526649334567  0.025694519116058204  1.0000
  H   H7        1.0  0.6098838357200056  0.6301052516506686  0.5257510277090418  1.0000
  H   H8        1.0  0.7649035657455127  0.8704765751198522  0.9743076512889318  1.0000
  H   H9        1.0  0.4734044011645153  0.16877124437440466  0.2479109152306833  1.0000
  H   H10       1.0  0.8899715469131876  0.3309907659282061  0.2521847950950615  1.0000
  H   H11       1.0  0.5265966671020408  0.8312278980185467  0.7520887326797165  1.0000
  H   H12       1.0  0.11002539692926666  0.6690110723795469  0.7478174260516539  1.0000
  H   H13       1.0  0.3344228406485854  0.08672256644533859  0.21362619758097884  1.0000
  H   H14       1.0  0.6346871572658018  0.41282440980479856  0.286404837220033  1.0000
  H   H15       1.0  0.6655752458574614  0.913274024658335  0.7863761798416747  1.0000
  H   H16       1.0  0.3653081820925835  0.5871773130651688  0.7135932262006789  1.0000
  C   C1        1.0  0.7894919342407077  0.5825708970253418  0.033854325898595154  1.0000
  C   C2        1.0  0.4058958882911834  0.9172618921571996  0.4661724259327898  1.0000
  C   C3        1.0  0.21051444514215936  0.41743089333953515  0.9661460645844714  1.0000
  C   C4        1.0  0.5940995837934864  0.0827346881154156  0.5338295867295884  1.0000
  C   C5        1.0  0.5537479273995983  0.6893217818579415  0.06843711636804536  1.0000
  C   C6        1.0  0.3114193617792296  0.8104264214866672  0.43159517866545377  1.0000
  C   C7        1.0  0.44625706249902924  0.310677376781598  0.9315630786827711  1.0000
  C   C8        1.0  0.6885750580307004  0.18957140213662166  0.5684043276493539  1.0000
  C   C9        1.0  0.8583049836235479  0.5119484819765531  0.9463806179971216  1.0000
  C   C10       1.0  0.3163887620628002  0.9883540875394059  0.5535193322305149  1.0000
  C   C11       1.0  0.1416991690001765  0.48804940372612277  0.05362103299989943  1.0000
  C   C12       1.0  0.683605402811182  0.011642487317679698  0.446482498051715  1.0000
  C   C13       1.0  0.214693677422666  0.4257802067277295  0.4877343071826843  1.0000
  C   C14       1.0  0.1287331327525791  0.07385614558984338  0.012231340248625608  1.0000
  C   C15       1.0  0.7852981580955003  0.5742162714467013  0.5122640510146397  1.0000
  C   C16       1.0  0.8712769955999489  0.9261470385652186  0.987771934394381  1.0000
  C   C17       1.0  0.1071965035286838  0.49335486274814133  0.4101856467459442  1.0000
  C   C18       1.0  0.011198105495374516  0.006282557643324099  0.08980684532613031  1.0000
  C   C19       1.0  0.8927954142630341  0.5066442417360975  0.5898127245034744  1.0000
  C   C20       1.0  0.9888140549395884  0.9937206131721367  0.910195926055927  1.0000
  C   C21       1.0  0.22725329773529518  0.4736695248947314  0.3093414695947914  1.0000
  C   C22       1.0  0.010738351028010115  0.026042793720002105  0.1906574406008943  1.0000
  C   C23       1.0  0.7727465757237298  0.5263309037746922  0.6906572256303604  1.0000
  C   C24       1.0  0.9892749520705522  0.9739551298913866  0.8093454870571081  1.0000
  N   N1        1.0  0.9311931280596752  0.570615341165272  0.08714772732871985  1.0000
  N   N2        1.0  0.5891513084774119  0.9289908214977273  0.41297364703505224  1.0000
  N   N3        1.0  0.06881171930616832  0.4293838604000655  0.912854021384419  1.0000
  N   N4        1.0  0.41084346886514556  0.07100444291221919  0.5870282679112009  1.0000
  N   N5        1.0  0.8911270234133043  0.5710353832560101  0.42221937830689177  1.0000
  N   N6        1.0  0.8843166591039022  0.9289583140767944  0.07780204111934817  1.0000
  N   N7        1.0  0.10886347476455423  0.4289624241206909  0.5777795808674924  1.0000
  N   N8        1.0  0.11569477645931413  0.0710448754937971  0.9222014159037997  1.0000
  O   O1        1.0  0.5191393988191989  0.7653112718660822  0.14463001486417684  1.0000
  O   O2        1.0  0.42907752099797136  0.7342683473472957  0.35547862206809816  1.0000
  O   O3        1.0  0.48086063918692196  0.23469440942294986  0.8553687064651854  1.0000
  O   O4        1.0  0.5709114769836743  0.26573726644681983  0.6445177721989027  1.0000
  O   O5        1.0  0.4164407373693066  0.7043019075449379  0.022486942291209355  1.0000
  O   O6        1.0  0.14294926786325132  0.7956354206798011  0.4774641328681782  1.0000
  O   O7        1.0  0.58356531461056  0.29570110741548206  0.9775102562032031  1.0000
  O   O8        1.0  0.857040708234898  0.204359693290634  0.5225323915705644  1.0000
  O   O9        1.0  0.41973483580719784  0.36327281243289633  0.2958183111172161  1.0000
  O   O10       1.0  0.07941690234351033  0.13642110289242032  0.204199805451168  1.0000
  O   O11       1.0  0.5802616682290918  0.6367289587783986  0.7041814883459523  1.0000
  O   O12       1.0  0.9205900495718073  0.8635756119715623  0.7958069559570974  1.0000
  O   O13       1.0  0.11956679868743682  0.5642544889844388  0.2441142363208613  1.0000
  O   O14       1.0  0.9279176543608896  0.9356934465741134  0.25590027010314037  1.0000
  O   O15       1.0  0.8804293478162322  0.4357498414401987  0.755883154510869  1.0000
  O   O16       1.0  0.07208667092523803  0.06430306158496527  0.7440990438743497  1.0000
  O   O17       1.0  0.4817739237742629  0.062311105579873086  0.22447101036608072  1.0000
  O   O18       1.0  0.7684102657742359  0.4373414967375098  0.27563387541133016  1.0000
  O   O19       1.0  0.5182271444922928  0.9376880368130782  0.7755286375443193  1.0000
  O   O20       1.0  0.23158434871240974  0.5626602448875888  0.7243648736504724  1.0000
