data_image0
_chemical_formula_structural       Zn4H30C61S6N4Cl6O16
_chemical_formula_sum              "Zn4 H30 C61 S6 N4 Cl6 O16"
_cell_length_a       12.704393713051388
_cell_length_b       14.096971070971367
_cell_length_c       28.156967519822743
_cell_angle_alpha    90.6089868582759
_cell_angle_beta     89.80268720303474
_cell_angle_gamma    89.83832456060888

_space_group_name_H-M_alt    "P 1"
_space_group_IT_number       1

loop_
  _space_group_symop_operation_xyz
  'x, y, z'

loop_
  _atom_site_type_symbol
  _atom_site_label
  _atom_site_symmetry_multiplicity
  _atom_site_fract_x
  _atom_site_fract_y
  _atom_site_fract_z
  _atom_site_occupancy
  Zn  Zn1       1.0  0.5040392492061372  0.3997278925730969  0.4952138995735709  1.0000
  Zn  Zn2       1.0  0.4976341344124649  0.5993848659295222  0.5013486437426309  1.0000
  Zn  Zn3       1.0  0.504147569473247  0.6000622978952491  0.0492222926180119  1.0000
  Zn  Zn4       1.0  0.4989459972946975  0.40029313758046925  0.043325566129667  1.0000
  H   H1        1.0  0.6242931763446079  0.05949311448635089  0.4433419241078909  1.0000
  H   H2        1.0  0.37629294122065454  0.9398696110006525  0.554590451939248  1.0000
  H   H3        1.0  0.6053640929700067  0.7445485366588754  0.4526937458060729  1.0000
  H   H4        1.0  0.6195094297973257  0.9191746823355018  0.4463100470546165  1.0000
  H   H5        1.0  0.39878224100415594  0.2557867055659954  0.5463469147922169  1.0000
  H   H6        1.0  0.38398556459886635  0.08132638210187788  0.5529835966859906  1.0000
  H   H7        1.0  0.4997150441717722  0.3404181687275382  0.21162197751388592  1.0000
  H   H8        1.0  0.5002514653512264  0.34276010228229836  0.7422119484331233  1.0000
  H   H9        1.0  0.5019999759448696  0.6563548165866137  0.8022743010714848  1.0000
  H   H10       1.0  0.49912011864129374  0.36546291750671855  0.8979724845997622  1.0000
  H   H11       1.0  0.4965776690137105  0.3503903394571495  0.8110285333625313  1.0000
  H   H12       1.0  0.4990689712937382  0.6336300796802167  0.646477681733657  1.0000
  H   H13       1.0  0.49728747256487793  0.6487850937359381  0.7334583701044578  1.0000
  H   H14       1.0  0.8671629389228882  0.6596625505724133  0.4993135275633733  1.0000
  H   H15       1.0  0.6241655561575713  0.9397255221505534  0.10078582976068161  1.0000
  H   H16       1.0  0.37812204859941545  0.060918351764968307  0.9895363549660203  1.0000
  H   H17       1.0  0.6067909617146441  0.2544555178054041  0.09123451710383532  1.0000
  H   H18       1.0  0.6210297770037911  0.07975014523082538  0.0972185054520693  1.0000
  H   H19       1.0  0.3998143727035953  0.7445498720982967  0.9980012621400292  1.0000
  H   H20       1.0  0.3861880434764445  0.9190821316922638  0.9908753769969891  1.0000
  H   H21       1.0  0.8689621128580499  0.3420437978242886  0.0455752447037128  1.0000
  H   H22       1.0  0.572755805169912  0.7066333137390541  0.35393424902920156  1.0000
  H   H23       1.0  0.4977155150290145  0.7309738121481714  0.30198319506938276  1.0000
  H   H24       1.0  0.43429716745052355  0.70595715882596  0.3572190078606852  1.0000
  H   H25       1.0  0.18102680682388686  0.2946573941490414  0.5314680529955922  1.0000
  H   H26       1.0  0.06461187543317949  0.26939282525442815  0.4984615418843887  1.0000
  H   H27       1.0  0.1864899101909572  0.2936311292858278  0.4690236941421659  1.0000
  H   H28       1.0  0.18102641753388576  0.7069064116738061  0.0132758113524361  1.0000
  H   H29       1.0  0.0641140377948872  0.7322567728895991  0.0463713896702771  1.0000
  H   H30       1.0  0.18582808042856414  0.7080227363904256  0.0757193822037081  1.0000
  C   C1        1.0  0.5008764417657973  0.4839595723154845  0.5909246890932849  1.0000
  C   C2        1.0  0.2956335267175874  0.48778079924868223  0.4982212743537033  1.0000
  C   C3        1.0  0.5007679087726659  0.5114637767869327  0.4055033917593747  1.0000
  C   C4        1.0  0.7055024784108356  0.5152802609707052  0.4992516328973977  1.0000
  C   C5        1.0  0.5015523596523366  0.5150660240943593  0.9535727368201846  1.0000
  C   C6        1.0  0.29647792153908625  0.5138164241244995  0.047067089955263  1.0000
  C   C7        1.0  0.5016089867931015  0.48499453319539754  0.1389231112715095  1.0000
  C   C8        1.0  0.7063397334745929  0.48661952676508236  0.04493060018337051  1.0000
  C   C9        1.0  0.57396640103444  0.1971552540277912  0.46600039447450575  1.0000
  C   C10       1.0  0.5716866837098423  0.0982145158597874  0.46711098261708633  1.0000
  C   C11       1.0  0.4276591635156707  0.802341059524835  0.5319843041882706  1.0000
  C   C12       1.0  0.42939880234667527  0.9013296313213528  0.5309617434483371  1.0000
  C   C13       1.0  0.5564601029069962  0.7917603446821602  0.47437466115569993  1.0000
  C   C14       1.0  0.5633234914029829  0.8895493292942688  0.4712545123769871  1.0000
  C   C15       1.0  0.44619816934311274  0.20836436812965783  0.5241336589689354  1.0000
  C   C16       1.0  0.4391702860003336  0.11059599845815879  0.5274704240430452  1.0000
  C   C17       1.0  0.5029342823764509  0.052495324855747996  0.49827912205542196  1.0000
  C   C18       1.0  0.49860366619880386  0.9474194469129104  0.5001288421919625  1.0000
  C   C19       1.0  0.501104541524498  0.5842048093419692  0.3214015924507407  1.0000
  C   C20       1.0  0.5006006278266852  0.41432932799144595  0.22309480587647096  1.0000
  C   C21       1.0  0.5006710557097521  0.5093049789623478  0.35320559620673453  1.0000
  C   C22       1.0  0.501269295975753  0.48845639395081264  0.191345033243266  1.0000
  C   C23       1.0  0.500781301496403  0.4482442444479844  0.2705236042335315  1.0000
  C   C24       1.0  0.501336244289675  0.5481056223034741  0.274194237713175  1.0000
  C   C25       1.0  0.5000693411530649  0.48244932840518834  0.6443439131699122  1.0000
  C   C26       1.0  0.5010747541050834  0.5166112577583064  0.9001404278756127  1.0000
  C   C27       1.0  0.5002137490105198  0.4009420286516701  0.6728851348734395  1.0000
  C   C28       1.0  0.49953722485964397  0.4085036523990482  0.7223552052226269  1.0000
  C   C29       1.0  0.5018048501750627  0.5981205324880535  0.8716084460882955  1.0000
  C   C30       1.0  0.5007967256413721  0.5906232135241469  0.822137389387045  1.0000
  C   C31       1.0  0.49930328931777285  0.42869297241011123  0.8761022328591821  1.0000
  C   C32       1.0  0.4980180545255947  0.42097833762733927  0.8270323307102743  1.0000
  C   C33       1.0  0.4989613386092557  0.5704130505583791  0.6683762605578779  1.0000
  C   C34       1.0  0.49808422051918194  0.5781624229851873  0.7174547465454211  1.0000
  C   C35       1.0  0.4985670504996236  0.4966659419301037  0.7459514101645013  1.0000
  C   C36       1.0  0.49884817077868604  0.5024746093741541  0.7985516468906013  1.0000
  C   C37       1.0  0.10883096074216782  0.4161524058105144  0.4992491135804045  1.0000
  C   C38       1.0  0.8922957779763792  0.5858620195724742  0.4993509198928976  1.0000
  C   C39       1.0  0.1798762919689594  0.49110763342321206  0.4988893984594256  1.0000
  C   C40       1.0  0.8215067099231277  0.5115560055823919  0.4994414480048732  1.0000
  C   C41       1.0  0.9971590130179067  0.5521206043454043  0.4994210606006675  1.0000
  C   C42       1.0  0.0045539131737513  0.4522587033550778  0.499535683999369  1.0000
  C   C43       1.0  0.573566876548732  0.8023319740293073  0.0784135207744399  1.0000
  C   C44       1.0  0.5719423574745548  0.9012561432556512  0.0770215502048543  1.0000
  C   C45       1.0  0.42972111480533215  0.1980545027860003  0.012097645549658902  1.0000
  C   C46       1.0  0.43130162760406426  0.09904622070028067  0.0130131824190158  1.0000
  C   C47       1.0  0.5582323519084085  0.20765655898761537  0.0694577307674109  1.0000
  C   C48       1.0  0.5650069876831766  0.10980048422398883  0.0724177352233042  1.0000
  C   C49       1.0  0.4470180470563606  0.7917507871409127  0.020151031379469896  1.0000
  C   C50       1.0  0.44065030512716424  0.8895464021862904  0.0165352849928624  1.0000
  C   C51       1.0  0.5041187824024859  0.9473335364092036  0.0456557660416337  1.0000
  C   C52       1.0  0.5002591561009238  0.05243241594983769  0.043676286889585504  1.0000
  C   C53       1.0  0.1092411634821957  0.5854449946368375  0.045622517982465596  1.0000
  C   C54       1.0  0.8936131028130915  0.4158412461784948  0.0453369388796858  1.0000
  C   C55       1.0  0.180735770095815  0.5104714702517441  0.0462159133851543  1.0000
  C   C56       1.0  0.8223675906509912  0.4901435704305968  0.04488292503270231  1.0000
  C   C57       1.0  0.9983087859822816  0.44955087630558666  0.0453795082824797  1.0000
  C   C58       1.0  0.005155622673555599  0.5493958709942746  0.0450974174687886  1.0000
  C   C59       1.0  0.5013171875493896  0.6876516485185106  0.33412425510798016  1.0000
  C   C60       1.0  0.13624238827387103  0.3127475172663523  0.4994697634398619  1.0000
  C   C61       1.0  0.13601521736747196  0.6888638842149887  0.0453320098484582  1.0000
  S   S1        1.0  0.5002561131924779  0.3976424272064278  0.3259107739857612  1.0000
  S   S2        1.0  0.5019383595070864  0.5996317324964195  0.21887777858013643  1.0000
  S   S3        1.0  0.12036919570169859  0.6027839480472749  0.4991288344147407  1.0000
  S   S4        1.0  0.881688286033132  0.4005372849403344  0.49972665408622424  1.0000
  S   S5        1.0  0.12181361738735319  0.39884625758196524  0.045939552713029706  1.0000
  S   S6        1.0  0.8819650469767738  0.6011423041178574  0.04444608333954391  1.0000
  N   N1        1.0  0.5122875208023103  0.25171356471872736  0.49369184189185944  1.0000
  N   N2        1.0  0.489653227230967  0.7479520206850765  0.5043464579157728  1.0000
  N   N3        1.0  0.512179660613171  0.7480605057037193  0.0507931537244275  1.0000
  N   N4        1.0  0.49163123418417604  0.25195142342988663  0.039661397158546705  1.0000
  Cl  Cl1       1.0  0.6592387597296964  0.251410085759005  0.42781267811208323  1.0000
  Cl  Cl2       1.0  0.3427853700563687  0.747724966164796  0.5703092052079697  1.0000
  Cl  Cl3       1.0  0.5026858179620106  0.28573108178153467  0.6503679442520537  1.0000
  Cl  Cl4       1.0  0.505730854625469  0.713247678659087  0.8941533615798747  1.0000
  Cl  Cl5       1.0  0.6574738286420538  0.747658284759531  0.1169659487799493  1.0000
  Cl  Cl6       1.0  0.3449293701926949  0.25339644386555454  0.9740948835368002  1.0000
  O   O1        1.0  0.49383593055164715  0.40574187523447586  0.5684450175078268  1.0000
  O   O2        1.0  0.5082512230571156  0.5656457367005316  0.572152411985897  1.0000
  O   O3        1.0  0.34182913699217476  0.5684417360993664  0.4990472944349946  1.0000
  O   O4        1.0  0.34049265644753757  0.40683806070777706  0.4968558793121645  1.0000
  O   O5        1.0  0.5019456916316685  0.5915714194560521  0.4269630704130734  1.0000
  O   O6        1.0  0.4998214391519583  0.4299618423965582  0.4251600381693805  1.0000
  O   O7        1.0  0.6595360277987938  0.43484081586063883  0.5005458017486006  1.0000
  O   O8        1.0  0.6609082128266266  0.5963047420951213  0.49782104233369046  1.0000
  O   O9        1.0  0.49164877634399334  0.5930922136308394  0.9760797370300979  1.0000
  O   O10       1.0  0.5112680653970116  0.433580129651041  0.9723473057222805  1.0000
  O   O11       1.0  0.3433407474226513  0.4332550962263965  0.045517336978584  1.0000
  O   O12       1.0  0.3407542039504677  0.5947465181270957  0.04924303980968861  1.0000
  O   O13       1.0  0.5011370929525185  0.40446056344225667  0.1180634106671974  1.0000
  O   O14       1.0  0.5025012380995761  0.5661482119597139  0.1189810760296695  1.0000
  O   O15       1.0  0.6601591070363427  0.5670790240236556  0.0426276401199885  1.0000
  O   O16       1.0  0.6619371008597739  0.40582607842073065  0.0472795811169391  1.0000
