data_image0
_chemical_formula_structural       Al2H18C22N2O10
_chemical_formula_sum              "Al2 H18 C22 N2 O10"
_cell_length_a       6.667045600436338
_cell_length_b       8.783868411957553
_cell_length_c       17.778965820072802
_cell_angle_alpha    77.03477266045427
_cell_angle_beta     78.7904845551202
_cell_angle_gamma    75.01632401422943

_space_group_name_H-M_alt    "P 1"
_space_group_IT_number       1

loop_
  _space_group_symop_operation_xyz
  'x, y, z'

loop_
  _atom_site_type_symbol
  _atom_site_label
  _atom_site_symmetry_multiplicity
  _atom_site_fract_x
  _atom_site_fract_y
  _atom_site_fract_z
  _atom_site_occupancy
  Al  Al1       1.0  0.4888389312036027  0.5113594285811586  0.5009746642769243  1.0000
  Al  Al2       1.0  0.9881065628097617  0.5152097722335611  0.49918133213237326  1.0000
  H   H1        1.0  0.2651705841961345  0.32752386073445194  0.5624599131363082  1.0000
  H   H2        1.0  0.7477527857887621  0.617531589075675  0.4036553325302279  1.0000
  H   H3        1.0  0.7035350473149151  0.40247686275692024  0.2832485663053318  1.0000
  H   H4        1.0  0.7934159426524943  0.37658010203268333  0.1426232180246032  1.0000
  H   H5        1.0  0.04743517811299109  0.5347970738699601  0.2604589462905905  1.0000
  H   H6        1.0  0.9183295942553755  0.5792297985441549  0.7253189964700225  1.0000
  H   H7        1.0  0.3431046420635013  0.43366229396933414  0.7373791652905409  1.0000
  H   H8        1.0  0.28867886557065253  0.4014588243976932  0.882947361736768  1.0000
  H   H9        1.0  0.1465671763251848  0.5430014216671567  0.050303073414788485  1.0000
  H   H10       1.0  0.9581079250427608  0.5860126630684447  0.1280870051178198  1.0000
  H   H11       1.0  0.8434235334425326  0.578249388964217  0.9349738026465174  1.0000
  H   H12       1.0  0.994698876015285  0.6260296267507214  0.8472399598376086  1.0000
  H   H13       1.0  0.5974866675819825  0.028514847488480755  0.5886367547295562  1.0000
  H   H14       1.0  0.7830366145552786  0.8405873011261279  0.588763938048771  1.0000
  H   H15       1.0  0.6498650898967709  0.9283172840453208  0.5083809159599821  1.0000
  H   H16       1.0  0.33523448542358375  0.09114892971491174  0.4941453775341385  1.0000
  H   H17       1.0  0.20264868024654697  0.17995726374245183  0.4132424739781085  1.0000
  H   H18       1.0  0.38691938556043953  0.9909779636929271  0.41449019586688246  1.0000
  C   C1        1.0  0.8280656460946432  0.22199690020747204  0.5140984116951727  1.0000
  C   C2        1.0  0.6730937788310598  0.5188622708902031  0.6374965157077241  1.0000
  C   C3        1.0  0.152617124675416  0.8000271436384168  0.4883505012592833  1.0000
  C   C4        1.0  0.31323590909179433  0.49529907807842494  0.3619905392752755  1.0000
  C   C5        1.0  0.3697738036509861  0.4736366785290329  0.279040221874716  1.0000
  C   C6        1.0  0.5813385222602392  0.42813314331583296  0.24652450414353672  1.0000
  C   C7        1.0  0.630509302288765  0.4143499514892924  0.16847431038131325  1.0000
  C   C8        1.0  0.4723606721083584  0.45016979897539505  0.12061218446463323  1.0000
  C   C9        1.0  0.2574706720737369  0.4928850448495368  0.15422798274694569  1.0000
  C   C10       1.0  0.2104564554398109  0.5017368865867695  0.23368336387949273  1.0000
  C   C11       1.0  0.519009716974665  0.4508068586454144  0.03959282324075277  1.0000
  C   C12       1.0  0.5380689766938502  0.4613960295224901  0.9686939384525244  1.0000
  C   C13       1.0  0.5697371027127005  0.4762976740779834  0.8867288675085232  1.0000
  C   C14       1.0  0.7501861241610542  0.5285444152975672  0.8421256849184  1.0000
  C   C15       1.0  0.7799437092577433  0.5422179644990096  0.7607754917838319  1.0000
  C   C16       1.0  0.6339612260942573  0.5086705571812971  0.7237829052502034  1.0000
  C   C17       1.0  0.4541780944207759  0.4599198333939611  0.7674985195463575  1.0000
  C   C18       1.0  0.4248262852673577  0.44248314272376654  0.8480659679374652  1.0000
  C   C19       1.0  0.8921408364013814  0.04496263978008131  0.516477122024014  1.0000
  C   C20       1.0  0.0906314524873935  0.9771740948139894  0.48610418187552523  1.0000
  C   C21       1.0  0.7216937932128928  0.9558474679614191  0.5528394041896617  1.0000
  C   C22       1.0  0.26242084045944136  0.06484083669204922  0.4496115758436117  1.0000
  N   N1        1.0  0.10114919667286419  0.5217345509069062  0.10888991713304816  1.0000
  N   N2        1.0  0.8945501115874707  0.5588687387905721  0.8795607233692092  1.0000
  O   O1        1.0  0.6368073117161543  0.2882805878255112  0.506297732353566  1.0000
  O   O2        1.0  0.850209284251882  0.5433636894584168  0.6017795913643977  1.0000
  O   O3        1.0  0.016526726654298284  0.7303034563578948  0.4789127317390296  1.0000
  O   O4        1.0  0.45645460135840904  0.5171907196586361  0.39398857427747197  1.0000
  O   O5        1.0  0.34144588060421915  0.7308117381996128  0.49805468471027575  1.0000
  O   O6        1.0  0.12525142473037937  0.4923234567054563  0.3941944103278913  1.0000
  O   O7        1.0  0.9640963496017605  0.29471894260264264  0.5213573891066403  1.0000
  O   O8        1.0  0.5282648356402648  0.49911654547229733  0.6058070063791021  1.0000
  O   O9        1.0  0.24267807463320418  0.4397696466413806  0.5381257036512037  1.0000
  O   O10       1.0  0.7348597772104668  0.5816096532501619  0.4596515009973387  1.0000
