data_image0
_chemical_formula_structural       In12H132C144O60
_chemical_formula_sum              "In12 H132 C144 O60"
_cell_length_a       14.712024087623732
_cell_length_b       18.66803266747962
_cell_length_c       24.301650936003504
_cell_angle_alpha    89.9999446953596
_cell_angle_beta     89.99998801235294
_cell_angle_gamma    104.85238438358984

_space_group_name_H-M_alt    "P 1"
_space_group_IT_number       1

loop_
  _space_group_symop_operation_xyz
  'x, y, z'

loop_
  _atom_site_type_symbol
  _atom_site_label
  _atom_site_symmetry_multiplicity
  _atom_site_fract_x
  _atom_site_fract_y
  _atom_site_fract_z
  _atom_site_occupancy
  In  In1       1.0  6.88252725575323e-08  0.4999996278009532  0.499999589451896  1.0000
  In  In2       1.0  0.999998004098934  0.9999997517730108  0.9999991155335621  1.0000
  In  In3       1.0  0.8807223454830008  0.31111621683171364  0.530762122787884  1.0000
  In  In4       1.0  0.11928014232814377  0.1888833085080108  0.0307587379527234  1.0000
  In  In5       1.0  0.11927787804560809  0.6888840887813927  0.4692406961974243  1.0000
  In  In6       1.0  0.880723076892117  0.8111136712597968  0.9692490189697552  1.0000
  In  In7       1.0  0.667848207434659  0.16823319649035537  0.53278509713126  1.0000
  In  In8       1.0  0.33214884131503897  0.3317663269040239  0.0327881631877815  1.0000
  In  In9       1.0  0.3321490750805935  0.8317643385202018  0.46721237242445574  1.0000
  In  In10      1.0  0.6678501613476084  0.6682323162535937  0.9672130098195096  1.0000
  In  In11      1.0  0.4999984817230397  0.9999984728526741  0.4999989607297053  1.0000
  In  In12      1.0  0.49999823250101355  0.49999829085965786  1.0172567357e-06  1.0000
  H   H1        1.0  0.5281113912739313  0.08399314912821862  0.5891619654551263  1.0000
  H   H2        1.0  0.4719149602989035  0.41598578309884  0.08915260644624108  1.0000
  H   H3        1.0  0.47191895681177  0.9159827655798198  0.410849083430854  1.0000
  H   H4        1.0  0.5281073573715601  0.5839967836535108  0.9108407481666774  1.0000
  H   H5        1.0  0.7701973785547194  0.23796734866393618  0.4538500983720368  1.0000
  H   H6        1.0  0.22980648809452478  0.2620326847417616  0.9538498986811064  1.0000
  H   H7        1.0  0.22980688113922546  0.762030739375163  0.5461498401510951  1.0000
  H   H8        1.0  0.770194914395546  0.7379670664497695  0.0461508628309417  1.0000
  H   H9        1.0  0.8315993370221264  0.44020117207398357  0.5396845170783919  1.0000
  H   H10       1.0  0.1684035043821978  0.059799448990482104  0.0396841022828838  1.0000
  H   H11       1.0  0.16840224586452726  0.5597991333093333  0.4603150099494115  1.0000
  H   H12       1.0  0.8316011161040889  0.9401997474307252  0.96031542474514  1.0000
  H   H13       1.0  0.7694512253155211  0.9610661120093554  0.4117971315819631  1.0000
  H   H14       1.0  0.23054320148220597  0.5389345017395115  0.911802446805261  1.0000
  H   H15       1.0  0.23054356078985447  0.0389341945386548  0.5881966345207985  1.0000
  H   H16       1.0  0.7694520839011219  0.46106525049395236  0.0882020181592722  1.0000
  H   H17       1.0  0.8346523883847183  0.12756595694939676  0.38506674253901  1.0000
  H   H18       1.0  0.16534763607873512  0.37243472890162377  0.8850664690803285  1.0000
  H   H19       1.0  0.16534869521916565  0.872434902740011  0.6149340189726544  1.0000
  H   H20       1.0  0.8346525874511951  0.6275655767138132  0.11493305794756031  1.0000
  H   H21       1.0  0.8080590968985604  0.05990568298138042  0.22508833781561322  1.0000
  H   H22       1.0  0.1919425963731456  0.4400957837303423  0.7250900682439365  1.0000
  H   H23       1.0  0.19194076583936956  0.9400935142525385  0.7749107777180343  1.0000
  H   H24       1.0  0.808059166908599  0.5599050758421316  0.2749119277517096  1.0000
  H   H25       1.0  0.7630401103396309  0.0673227126947538  0.2923430279083519  1.0000
  H   H26       1.0  0.23695876805759034  0.43267644221169377  0.7923447581366929  1.0000
  H   H27       1.0  0.23695839304174615  0.932676484771576  0.7076556761307061  1.0000
  H   H28       1.0  0.7630404150008161  0.5673227551362459  0.20765723785973478  1.0000
  H   H29       1.0  0.8467539358109731  0.1429258943842129  0.2630400471115237  1.0000
  H   H30       1.0  0.15324482773563372  0.35707496477335354  0.7630406095756826  1.0000
  H   H31       1.0  0.15324560804076262  0.8570744113475753  0.736959068421733  1.0000
  H   H32       1.0  0.84675403643692  0.6429253410730381  0.2369605634309977  1.0000
  H   H33       1.0  0.10700237640651272  0.9847803534185788  0.2070098433935925  1.0000
  H   H34       1.0  0.8929988319856362  0.5152199954412283  0.7070080968480852  1.0000
  H   H35       1.0  0.8929973059343369  0.0152182896226876  0.792991741108331  1.0000
  H   H36       1.0  0.10700501223882944  0.48478308066565734  0.2929897841998397  1.0000
  H   H37       1.0  0.18050074143496891  0.9961753069300132  0.2654416671323361  1.0000
  H   H38       1.0  0.8194969795223201  0.503822742755247  0.765438703876093  1.0000
  H   H39       1.0  0.8194972626626367  0.0038244448406601003  0.7345607403586386  1.0000
  H   H40       1.0  0.18050338249904027  0.4961759001737533  0.2345575311949872  1.0000
  H   H41       1.0  0.09784891436683553  0.9105394510408688  0.25452639634885804  1.0000
  H   H42       1.0  0.902150355147924  0.5894591680833016  0.7545254165338521  1.0000
  H   H43       1.0  0.9021516280481235  0.08945974607465959  0.7454760111421663  1.0000
  H   H44       1.0  0.09784968798575726  0.4105405833409391  0.24547452198893183  1.0000
  H   H45       1.0  0.9745796714340145  0.07620889264909181  0.4518383479712186  1.0000
  H   H46       1.0  0.02541278079564788  0.4237894828934046  0.9518392886165828  1.0000
  H   H47       1.0  0.025415932837333365  0.9237897510897071  0.5481615905522546  1.0000
  H   H48       1.0  0.974582185702985  0.5762113778405507  0.04816147289546541  1.0000
  H   H49       1.0  0.9375759447027789  0.9791776014714557  0.4576779476917352  1.0000
  H   H50       1.0  0.06241468590058468  0.520821839405201  0.9576779482349309  1.0000
  H   H51       1.0  0.0624191602861259  0.0208215965740166  0.5423224023262421  1.0000
  H   H52       1.0  0.9375791016379152  0.47917957575266024  0.0423215787929507  1.0000
  H   H53       1.0  0.0585032858447363  0.0221286320535441  0.4489242207897775  1.0000
  H   H54       1.0  0.9414876289835374  0.47786919366436825  0.9489237707107138  1.0000
  H   H55       1.0  0.9414907786738027  0.9778694577264704  0.5510757177340011  1.0000
  H   H56       1.0  0.058507157119514416  0.5221311128795563  0.051075756317523306  1.0000
  H   H57       1.0  0.9784393041032258  0.983249894779334  0.17666781724265232  1.0000
  H   H58       1.0  0.021561748369187186  0.5167499429232549  0.6766682374810955  1.0000
  H   H59       1.0  0.0215620983873421  0.0167498564130781  0.8233317097853715  1.0000
  H   H60       1.0  0.9784413742701047  0.48325091641854817  0.3233317010410843  1.0000
  H   H61       1.0  0.950579851866429  0.1404408269778585  0.18292408533555  1.0000
  H   H62       1.0  0.04942133423183042  0.3595590369651022  0.6829246591145122  1.0000
  H   H63       1.0  0.04942105134186651  0.8595594785215185  0.8170754416922961  1.0000
  H   H64       1.0  0.9505800682584039  0.6404407142267275  0.3170756909028611  1.0000
  H   H65       1.0  0.17565728830339813  0.9614230456921505  0.3525880230088205  1.0000
  H   H66       1.0  0.8243402657672332  0.538578759957488  0.852586679323899  1.0000
  H   H67       1.0  0.8243409380969382  0.038579477150278804  0.6474127385024033  1.0000
  H   H68       1.0  0.1756580991245328  0.4614221001984972  0.1474107902305235  1.0000
  H   H69       1.0  0.0004927146822736716  0.8817719004959984  0.4184745338579888  1.0000
  H   H70       1.0  0.9995055624998698  0.618225932020465  0.918472285869889  1.0000
  H   H71       1.0  0.9995055663963722  0.118224525898583  0.5815258161608128  1.0000
  H   H72       1.0  0.0004929408819976024  0.3817732654467392  0.0815251836851374  1.0000
  H   H73       1.0  0.16813535896434223  0.360353120589565  0.39615689142935656  1.0000
  H   H74       1.0  0.8318668340775586  0.1396458864945771  0.8961571177593015  1.0000
  H   H75       1.0  0.8318640044918124  0.6396466309521999  0.6038409896200818  1.0000
  H   H76       1.0  0.16813764791845634  0.860354972615113  0.1038428207627859  1.0000
  H   H77       1.0  0.013636987148721903  0.2156838410686461  0.4128883284673535  1.0000
  H   H78       1.0  0.9863616555133986  0.2843168055529688  0.9128896623303079  1.0000
  H   H79       1.0  0.9863618770244925  0.784316464778918  0.5871111985606206  1.0000
  H   H80       1.0  0.013639788881988557  0.7156851625170829  0.0871127451596223  1.0000
  H   H81       1.0  0.2415287070762702  0.15218316788006092  0.48010105512520346  1.0000
  H   H82       1.0  0.7584708799291917  0.34781627479731725  0.9801023707432179  1.0000
  H   H83       1.0  0.7584680761562125  0.8478149214365871  0.5198976489143732  1.0000
  H   H84       1.0  0.24153210421933116  0.6521862472320947  0.0198992137570642  1.0000
  H   H85       1.0  0.2534630290903337  0.24884072367956378  0.4768753117284632  1.0000
  H   H86       1.0  0.74653366140798  0.2511581698465832  0.9768762891012557  1.0000
  H   H87       1.0  0.7465337541419783  0.7511573656367858  0.5231238038057882  1.0000
  H   H88       1.0  0.25346506427446497  0.7488437986885897  0.0231248839048206  1.0000
  H   H89       1.0  0.14013073593658015  0.18816614879285248  0.47624452008614787  1.0000
  H   H90       1.0  0.8598667732389199  0.3118310828228843  0.9762458495594472  1.0000
  H   H91       1.0  0.8598658668998166  0.8118313863328908  0.523754183953649  1.0000
  H   H92       1.0  0.14013308949800773  0.6881681144092867  0.023755734942263  1.0000
  H   H93       1.0  0.3495575595928812  0.06838869179409102  0.3047981745955965  1.0000
  H   H94       1.0  0.650441489153408  0.43161099963887034  0.8047982072312366  1.0000
  H   H95       1.0  0.6504491837397807  0.9316149380371216  0.6952029984093572  1.0000
  H   H96       1.0  0.3495561541525233  0.5683876437508674  0.19520296577614  1.0000
  H   H97       1.0  0.3306812519292348  0.109734128528487  0.2412810766071232  1.0000
  H   H98       1.0  0.6693181669428084  0.3902645444946629  0.7412819605254981  1.0000
  H   H99       1.0  0.6693186108085243  0.8902650687051405  0.7587184504212062  1.0000
  H   H100      1.0  0.3306851360920716  0.6097368690371708  0.2587192124804929  1.0000
  H   H101      1.0  0.41983803642740714  0.15679390933267712  0.2873166089773136  1.0000
  H   H102      1.0  0.5801610264212513  0.3432058068946943  0.7873171276268566  1.0000
  H   H103      1.0  0.5801622709154799  0.8432108300438729  0.7126804490808637  1.0000
  H   H104      1.0  0.4198406949558374  0.656792835800431  0.21268157641220142  1.0000
  H   H105      1.0  0.0656262943787311  0.22428436806239924  0.2372195984347343  1.0000
  H   H106      1.0  0.93437574989872  0.275718189824893  0.737221356763655  1.0000
  H   H107      1.0  0.9343742899438681  0.7757170459357212  0.7627786941086896  1.0000
  H   H108      1.0  0.06562741464572497  0.7242848863951394  0.2627806392310816  1.0000
  H   H109      1.0  0.9996612786464137  0.2149347249129363  0.2994947356213729  1.0000
  H   H110      1.0  0.00033777437730723135  0.28506497404049475  0.7994970168871092  1.0000
  H   H111      1.0  0.00033844560174149424  0.7850661350103465  0.7005035569223069  1.0000
  H   H112      1.0  0.999663628111932  0.7149347771495798  0.200505802098327  1.0000
  H   H113      1.0  0.08389410672323545  0.29841058544648275  0.2847492624250236  1.0000
  H   H114      1.0  0.9161051385929183  0.2015896886136943  0.7847490206112441  1.0000
  H   H115      1.0  0.9161067964853867  0.7015897200534765  0.7152494416134658  1.0000
  H   H116      1.0  0.08389508493701209  0.7984106170017425  0.2152505064166519  1.0000
  H   H117      1.0  0.3717031379379066  0.08789955056763431  0.38978539605582097  1.0000
  H   H118      1.0  0.6282967442285565  0.4121027912790041  0.8897858574722477  1.0000
  H   H119      1.0  0.6282962674232307  0.9121024178520543  0.6102149539608632  1.0000
  H   H120      1.0  0.371703160414853  0.5878986228337268  0.1102144925446069  1.0000
  H   H121      1.0  0.4107717203959353  0.23859403364819798  0.4485171499037506  1.0000
  H   H122      1.0  0.5892245775078917  0.2614098881639535  0.948520608575322  1.0000
  H   H123      1.0  0.5892250081593957  0.7614101521183373  0.5514790851655036  1.0000
  H   H124      1.0  0.4107721091389749  0.7385920807185187  0.05148179891491371  1.0000
  H   H125      1.0  0.14275312445496272  0.16283907230917552  0.20133604603913113  1.0000
  H   H126      1.0  0.8572475475079386  0.33716131982644276  0.7013365340570276  1.0000
  H   H127      1.0  0.857248638827613  0.8371617872647547  0.798663892483134  1.0000
  H   H128      1.0  0.1427540353780544  0.662838985555709  0.2986646389494823  1.0000
  H   H129      1.0  0.35408792232035313  0.23915699723933406  0.2073092610561531  1.0000
  H   H130      1.0  0.6459117043539849  0.2608422781596076  0.7073081865214875  1.0000
  H   H131      1.0  0.6459124396993515  0.760841645686746  0.7926910889616963  1.0000
  H   H132      1.0  0.35408937925005546  0.7391585815300913  0.2926921634955022  1.0000
  C   C1        1.0  0.7015579945731502  0.04068722883317119  0.4490418606300395  1.0000
  C   C2        1.0  0.29843450181681414  0.4593133675524895  0.949046855255304  1.0000
  C   C3        1.0  0.2984357510611985  0.9593119694482157  0.5509531399572225  1.0000
  C   C4        1.0  0.7015587445317664  0.540686385029737  0.0509567867200005  1.0000
  C   C5        1.0  0.7730153386193591  0.0201904634415726  0.4135636156550362  1.0000
  C   C6        1.0  0.22697868423843903  0.47980852034390153  0.9135677811358534  1.0000
  C   C7        1.0  0.2269797663712084  0.9798087346068203  0.586432619416172  1.0000
  C   C8        1.0  0.7730160599569726  0.5201895693174237  0.08643586083997688  1.0000
  C   C9        1.0  0.836886111770603  0.0693867066986655  0.38383968686044767  1.0000
  C   C10       1.0  0.16311033489369453  0.4306134272801287  0.8838422509690461  1.0000
  C   C11       1.0  0.16311089376394963  0.9306141536885663  0.6161590171780915  1.0000
  C   C12       1.0  0.8368863098475142  0.5693863247232542  0.1161593335326643  1.0000
  C   C13       1.0  0.9082886954008911  0.0477549040460019  0.3491391672494402  1.0000
  C   C14       1.0  0.0917063779943135  0.4522430625028591  0.8491409013646561  1.0000
  C   C15       1.0  0.09170776894540476  0.9522442937685158  0.6508595367897456  1.0000
  C   C16       1.0  0.9082892262765367  0.5477555812350658  0.1508602716428555  1.0000
  C   C17       1.0  0.9040581521778391  0.05343256029600949  0.2914978140601008  1.0000
  C   C18       1.0  0.09594022761910993  0.44656715011648646  0.7914991403573951  1.0000
  C   C19       1.0  0.09593967152500946  0.9465666372860897  0.7085013014736744  1.0000
  C   C20       1.0  0.9040591358355455  0.5534326014226422  0.2085024441441377  1.0000
  C   C21       1.0  0.9703092685294338  0.0291491307275322  0.2588753438778681  1.0000
  C   C22       1.0  0.029690316545206537  0.47085007153191333  0.7588762490548079  1.0000
  C   C23       1.0  0.029689914530131103  0.9708500666224539  0.741123771655822  1.0000
  C   C24       1.0  0.9703102258704133  0.5291491255847802  0.24112451245750316  1.0000
  C   C25       1.0  0.03781783867493969  0.997769768030615  0.2842626191144646  1.0000
  C   C26       1.0  0.9621791874199414  0.502228255074506  0.7842621079260184  1.0000
  C   C27       1.0  0.9621789445568749  0.0022283212848677  0.7157377309038253  1.0000
  C   C28       1.0  0.037819676753436206  0.49777205077334236  0.21573700760728093  1.0000
  C   C29       1.0  0.03968668717453739  0.9912035432955123  0.3421064281642359  1.0000
  C   C30       1.0  0.9603118320099497  0.508794951726365  0.8421059123391146  1.0000
  C   C31       1.0  0.9603123154884513  0.008795099862695098  0.6578939218537059  1.0000
  C   C32       1.0  0.03968685176734252  0.49120479993057853  0.1578932031944049  1.0000
  C   C33       1.0  0.9775992415612791  0.019581382692202  0.37489832859116495  1.0000
  C   C34       1.0  0.022394271301770644  0.4804159933641615  0.8748979931081563  1.0000
  C   C35       1.0  0.022396182313649187  0.9804167068551025  0.625102432921885  1.0000
  C   C36       1.0  0.9776008336873048  0.5195832046816022  0.1251019454151461  1.0000
  C   C37       1.0  0.8263783316787039  0.08198216405943982  0.2665735758086143  1.0000
  C   C38       1.0  0.17362092829949916  0.418018135779171  0.7665745019544944  1.0000
  C   C39       1.0  0.17362035209842458  0.9180175875972193  0.73342595121958  1.0000
  C   C40       1.0  0.8263784351549928  0.5819816157596733  0.23342749404171312  1.0000
  C   C41       1.0  0.10873233223968266  0.9709111829819789  0.2506941233301205  1.0000
  C   C42       1.0  0.8912662606883969  0.5290874416939603  0.7506927782060445  1.0000
  C   C43       1.0  0.8912659907444364  0.0290874602914073  0.7493074611718882  1.0000
  C   C44       1.0  0.10873464252039608  0.4709128638062907  0.24930551433777032  1.0000
  C   C45       1.0  0.987822598939516  0.024460623886319904  0.43647274360501603  1.0000
  C   C46       1.0  0.012169005611802642  0.4755372193758446  0.9364724130389065  1.0000
  C   C47       1.0  0.012170966296579912  0.975538020200368  0.5635276064132668  1.0000
  C   C48       1.0  0.9878257804912494  0.5244630871680868  0.0635271139893305  1.0000
  C   C49       1.0  0.967694403147625  0.031558821761706206  0.1985942534465366  1.0000
  C   C50       1.0  0.032306589913289885  0.4684404657648216  0.6985947485856769  1.0000
  C   C51       1.0  0.0323039198373253  0.9684398215131369  0.8014052735820912  1.0000
  C   C52       1.0  0.9676954922553092  0.5315592853109478  0.3014056014316608  1.0000
  C   C53       1.0  0.9569430228678255  0.08766620673323189  0.16644662316920034  1.0000
  C   C54       1.0  0.043055957091652906  0.4123331267373445  0.6664475700818145  1.0000
  C   C55       1.0  0.043055660909466595  0.9123335449237189  0.8335524923643121  1.0000
  C   C56       1.0  0.9569439056457725  0.5876660704957005  0.3335527799358644  1.0000
  C   C57       1.0  0.968574780783271  0.08469197230990491  0.10606266016372962  1.0000
  C   C58       1.0  0.0314252883589532  0.41530855507095044  0.6060640178373333  1.0000
  C   C59       1.0  0.03142544274666649  0.915308333305532  0.8939368668641592  1.0000
  C   C60       1.0  0.9685733954176708  0.5846911965848349  0.39393674367489234  1.0000
  C   C61       1.0  0.10309450672822616  0.9508747314043192  0.367176752301539  1.0000
  C   C62       1.0  0.8969023139891945  0.5491248367899715  0.8671753915921983  1.0000
  C   C63       1.0  0.8969028176918455  0.049125020483870706  0.6328235977160972  1.0000
  C   C64       1.0  0.10309519082779421  0.4508754692905869  0.1328229009518367  1.0000
  C   C65       1.0  0.07370964601540203  0.8973158566867097  0.4051285165942388  1.0000
  C   C66       1.0  0.9262893635174475  0.602684211522515  0.9051262894210838  1.0000
  C   C67       1.0  0.9262903971177818  0.10268389473665708  0.5948726564125764  1.0000
  C   C68       1.0  0.07370968105284703  0.3973166485177019  0.0948707686386143  1.0000
  C   C69       1.0  0.13155968176210558  0.8505939391102829  0.428601421120419  1.0000
  C   C70       1.0  0.8684415282657552  0.6494066496486041  0.9285999895925272  1.0000
  C   C71       1.0  0.8684421234259502  0.1494091373424524  0.5713997518850533  1.0000
  C   C72       1.0  0.1315591945471155  0.35059310166103336  0.0713978914568258  1.0000
  C   C73       1.0  0.03804829346633199  0.35580851458760065  0.4421459579442484  1.0000
  C   C74       1.0  0.9619539043813601  0.14419264414763694  0.9421469874025874  1.0000
  C   C75       1.0  0.9619524293460414  0.6441912367211629  0.5578531575891433  1.0000
  C   C76       1.0  0.03805179848060184  0.8558098774175348  0.057854597097517106  1.0000
  C   C77       1.0  0.1016180561444884  0.32295782988853716  0.4089506905208751  1.0000
  C   C78       1.0  0.89838298952138  0.17704393035153745  0.9089521151497452  1.0000
  C   C79       1.0  0.8983823477818617  0.6770430299183943  0.5910480135174438  1.0000
  C   C80       1.0  0.10162085470175705  0.8229591457530108  0.0910490578555923  1.0000
  C   C81       1.0  0.08114080529108492  0.25011055329382265  0.3980440524399356  1.0000
  C   C82       1.0  0.9188583905346376  0.24989177695525908  0.898044597418867  1.0000
  C   C83       1.0  0.9188577399962695  0.7498908610521936  0.6019546515982981  1.0000
  C   C84       1.0  0.0811435950495039  0.7501118536883807  0.10195657558638521  1.0000
  C   C85       1.0  0.14667407080559508  0.2149268114079632  0.3686950265028699  1.0000
  C   C86       1.0  0.8533242467155444  0.2850727895128315  0.8686963766655538  1.0000
  C   C87       1.0  0.8533237528975802  0.7850723861747181  0.6313032660415558  1.0000
  C   C88       1.0  0.14667769696261249  0.7149286242511295  0.1313047963405225  1.0000
  C   C89       1.0  0.21437737484157537  0.19098892333724393  0.3993448006095903  1.0000
  C   C90       1.0  0.7856195585975241  0.30901063434426124  0.8993457300924135  1.0000
  C   C91       1.0  0.7856216697280586  0.8090119367018078  0.600653903428821  1.0000
  C   C92       1.0  0.21437912517910718  0.6909891173115242  0.1006550314198051  1.0000
  C   C93       1.0  0.2807564315044999  0.1620577657191546  0.3708817203380406  1.0000
  C   C94       1.0  0.7192408856880731  0.3379429407141289  0.8708830482561112  1.0000
  C   C95       1.0  0.7192419333869324  0.8379430944362484  0.6291165722057315  1.0000
  C   C96       1.0  0.2807564387316716  0.6620568111734854  0.1291181247508817  1.0000
  C   C97       1.0  0.27788373045950004  0.1553311542849301  0.3128864862435634  1.0000
  C   C98       1.0  0.7221137720087041  0.3446679717166674  0.8128873973111439  1.0000
  C   C99       1.0  0.7221156329959867  0.844668597255662  0.6871130407845811  1.0000
  C   C100      1.0  0.27788627112464326  0.6553317797069907  0.1871133642009895  1.0000
  C   C101      1.0  0.21029338950571494  0.18103809830587644  0.2828794661585263  1.0000
  C   C102      1.0  0.7897044560558155  0.31895996175821034  0.7828799762443522  1.0000
  C   C103      1.0  0.7897059739499354  0.8189616532350072  0.7171196493749434  1.0000
  C   C104      1.0  0.210296946434255  0.6810397894333208  0.2171207852677028  1.0000
  C   C105      1.0  0.1428335889329659  0.2094451469296885  0.3110660222701824  1.0000
  C   C106      1.0  0.8571654547564547  0.2905545356124222  0.8110673678777117  1.0000
  C   C107      1.0  0.8571664542013763  0.7905546044957177  0.688932270273895  1.0000
  C   C108      1.0  0.14283630852545312  0.7094463239603429  0.1889342166232595  1.0000
  C   C109      1.0  0.21231147330208694  0.1948637961191864  0.4613228930529587  1.0000
  C   C110      1.0  0.7876864087030171  0.30513456504225184  0.9613242366448347  1.0000
  C   C111      1.0  0.7876858511186526  0.8051359557701758  0.5386758109859713  1.0000
  C   C112      1.0  0.21231467490069625  0.6948662946468643  0.0386769363615045  1.0000
  C   C113      1.0  0.34775411082256363  0.12091537642552204  0.2847838771229974  1.0000
  C   C114      1.0  0.6522442743909307  0.3790843435102005  0.7847843600086009  1.0000
  C   C115      1.0  0.6522481936486031  0.8790871457217051  0.7152152384092645  1.0000
  C   C116      1.0  0.34775644842094516  0.6209154077976891  0.2152159900088151  1.0000
  C   C117      1.0  0.06940318743853878  0.23777289417140676  0.2811145533640698  1.0000
  C   C118      1.0  0.93059692088341  0.2622279391174374  0.7811163221832373  1.0000
  C   C119      1.0  0.9305965368097798  0.7622279657521673  0.7188833276849423  1.0000
  C   C120      1.0  0.06940484239849813  0.7377729204553277  0.218885262317734  1.0000
  C   C121      1.0  0.3572141352877195  0.140975396798467  0.39993900843074937  1.0000
  C   C122      1.0  0.6427824787863372  0.35902526853900696  0.8999386844137119  1.0000
  C   C123      1.0  0.6427828702463287  0.8590254635878906  0.6000609300918143  1.0000
  C   C124      1.0  0.3572155253122631  0.6409744832334142  0.1000612541091996  1.0000
  C   C125      1.0  0.4158286162334333  0.1835040949749072  0.436531564572384  1.0000
  C   C126      1.0  0.5841687318106707  0.31650095210408585  0.9365329255248014  1.0000
  C   C127      1.0  0.5841681123212439  0.8165000907904627  0.5634663164755835  1.0000
  C   C128      1.0  0.4158289953073861  0.683502125045308  0.0634678359862519  1.0000
  C   C129      1.0  0.49219341516700854  0.156976516196714  0.4619648210721863  1.0000
  C   C130      1.0  0.5078083512211647  0.34302960249303993  0.9619686409824624  1.0000
  C   C131      1.0  0.5078101520777523  0.8430298852886011  0.5380318254904921  1.0000
  C   C132      1.0  0.4921944944365959  0.656974582223981  0.0380345894959149  1.0000
  C   C133      1.0  0.21000699847859036  0.18339695765445188  0.2224613478710964  1.0000
  C   C134      1.0  0.7899919362935747  0.3166022963689413  0.7224614481761124  1.0000
  C   C135      1.0  0.7899939047297052  0.816603347844925  0.7775381791567497  1.0000
  C   C136      1.0  0.2100081068401067  0.6833974550552996  0.2775384903466716  1.0000
  C   C137      1.0  0.2845702878296024  0.21398338283304946  0.1904174183164073  1.0000
  C   C138      1.0  0.7154288531893013  0.28601647083120696  0.6904163162877168  1.0000
  C   C139      1.0  0.7154311146606317  0.78601636835878  0.8095829317009661  1.0000
  C   C140      1.0  0.28457051026618524  0.7139832807093853  0.3095832107404348  1.0000
  C   C141      1.0  0.2737033233060514  0.223642039941268  0.1306070756283901  1.0000
  C   C142      1.0  0.7262946870018467  0.2763584529772487  0.6306059793906371  1.0000
  C   C143      1.0  0.7262992581439887  0.7763571568260729  0.8693953318624992  1.0000
  C   C144      1.0  0.2737023185322016  0.7236424074091091  0.3693939591319264  1.0000
  O   O1        1.0  0.5731515122655749  0.07047687571274959  0.5644661145825864  1.0000
  O   O2        1.0  0.4268547622120948  0.42951761316578535  0.06447814896939971  1.0000
  O   O3        1.0  0.42685724097366057  0.9295162235721223  0.4355218905964832  1.0000
  O   O4        1.0  0.5731499548536617  0.5704777036787901  0.9355328999110099  1.0000
  O   O5        1.0  0.7540595723133732  0.25847295780504  0.48830536407137964  1.0000
  O   O6        1.0  0.2459458062934132  0.24152758069053704  0.9883047660588674  1.0000
  O   O7        1.0  0.2459409701029145  0.7415262393128189  0.5116937514622251  1.0000
  O   O8        1.0  0.7540594938710612  0.7584716156143119  0.0116951724637886  1.0000
  O   O9        1.0  0.8688366538934527  0.4207034089304215  0.5132612142663433  1.0000
  O   O10       1.0  0.13116430828185338  0.0792955872706145  0.013260789720341401  1.0000
  O   O11       1.0  0.13116456820135622  0.5792957880716686  0.4867374897725369  1.0000
  O   O12       1.0  0.8688382312638651  0.9207013926199678  0.98673750282461  1.0000
  O   O13       1.0  0.713625106063432  0.10844984725210338  0.46228291043282616  1.0000
  O   O14       1.0  0.2863736352414961  0.39154906662225386  0.9622846649217892  1.0000
  O   O15       1.0  0.2863735358078827  0.8915476875251613  0.5377162051015177  1.0000
  O   O16       1.0  0.713625367420988  0.6084495765350725  0.037716919580177  1.0000
  O   O17       1.0  0.6324599047744143  0.9869821515230512  0.4639302142516258  1.0000
  O   O18       1.0  0.3675319835544713  0.5130211598163041  0.9639384118086483  1.0000
  O   O19       1.0  0.367529985093661  0.013019818528498203  0.5360602598934108  1.0000
  O   O20       1.0  0.6324616654914335  0.4869819180259539  0.0360672876387866  1.0000
  O   O21       1.0  0.9931406164787686  0.14725332968376392  0.08113017291809402  1.0000
  O   O22       1.0  0.006862191490171221  0.35274723259549035  0.5811315801362653  1.0000
  O   O23       1.0  0.006862325764771478  0.8527469754677239  0.9188689426149423  1.0000
  O   O24       1.0  0.9931371719648183  0.6472525189442281  0.4188691813759107  1.0000
  O   O25       1.0  0.9562285862670944  0.021212987735012196  0.0835181256390527  1.0000
  O   O26       1.0  0.04377218074058929  0.4787875715058619  0.5835190231408447  1.0000
  O   O27       1.0  0.043773357411893685  0.9787884260304053  0.9164809898936427  1.0000
  O   O28       1.0  0.9562271827145705  0.5212121800341478  0.41648132687665657  1.0000
  O   O29       1.0  0.2201482445743252  0.86770981062039  0.4204953755148678  1.0000
  O   O30       1.0  0.7798533327844266  0.6322918980165184  0.9204952024012343  1.0000
  O   O31       1.0  0.7798537829156301  0.13229603690263764  0.5795062089842347  1.0000
  O   O32       1.0  0.22014725153734094  0.3677095159801453  0.0795051476155706  1.0000
  O   O33       1.0  0.08431303324558559  0.7942237843434012  0.4556485786504537  1.0000
  O   O34       1.0  0.9156915114485499  0.705774548592963  0.9556479222881437  1.0000
  O   O35       1.0  0.9156909494678228  0.20577762907267072  0.5443521828608198  1.0000
  O   O36       1.0  0.08431374681011047  0.29422243083249805  0.044351604740661806  1.0000
  O   O37       1.0  0.07050782989400523  0.42289537832740365  0.45758932621627924  1.0000
  O   O38       1.0  0.9294946743818568  0.07710465000661058  0.9575895865895774  1.0000
  O   O39       1.0  0.9294935725967336  0.5771043728652998  0.5424097893170696  1.0000
  O   O40       1.0  0.07050776857924036  0.922896209451551  0.042409940437970306  1.0000
  O   O41       1.0  0.9565548915916577  0.31453450913417663  0.45354061415250874  1.0000
  O   O42       1.0  0.04344815713842111  0.18546718751466781  0.9535413178953718  1.0000
  O   O43       1.0  0.043447370973027  0.6854657961324904  0.5464597358646089  1.0000
  O   O44       1.0  0.9565578646089036  0.8145342255511708  0.046462324078511606  1.0000
  O   O45       1.0  0.5024567270970053  0.0936649201280275  0.4467971501253701  1.0000
  O   O46       1.0  0.4975452319226931  0.4063417742646607  0.9468021588321562  1.0000
  O   O47       1.0  0.49754566118777876  0.9063420357814775  0.5531978504584671  1.0000
  O   O48       1.0  0.5024579745264077  0.5936635188327131  0.0532031291191757  1.0000
  O   O49       1.0  0.5441686295853713  0.19917381591911723  0.4973463489234149  1.0000
  O   O50       1.0  0.45583152660234544  0.3008294817509594  0.9973477377717826  1.0000
  O   O51       1.0  0.45583131696435686  0.8008298150738752  0.5026531781032588  1.0000
  O   O52       1.0  0.544169737397624  0.699171932129353  0.0026530237396614003  1.0000
  O   O53       1.0  0.3433895589436133  0.26746909491086507  0.10620171715660831  1.0000
  O   O54       1.0  0.6566101073887578  0.23252810701210788  0.6062018967632667  1.0000
  O   O55       1.0  0.6566109415663632  0.7325278853267321  0.8937982213671702  1.0000
  O   O56       1.0  0.34339021272513287  0.7674683190345846  0.3937980417607392  1.0000
  O   O57       1.0  0.196044053432189  0.1895019581776651  0.10826869318848512  1.0000
  O   O58       1.0  0.8039505218267136  0.3105046634532585  0.6082667387789513  1.0000
  O   O59       1.0  0.8039573490572137  0.8104977930127008  0.8917337143022693  1.0000
  O   O60       1.0  0.19604321103430772  0.6895028481539  0.3917311422679717  1.0000
