data_image0
_chemical_formula_structural       MnH12C4O8
_chemical_formula_sum              "Mn1 H12 C4 O8"
_cell_length_a       5.235697215153262
_cell_length_b       5.341541835944975
_cell_length_c       7.808180828515215
_cell_angle_alpha    84.61205465361135
_cell_angle_beta     75.89860736128377
_cell_angle_gamma    79.70614979879981

_space_group_name_H-M_alt    "P 1"
_space_group_IT_number       1

loop_
  _space_group_symop_operation_xyz
  'x, y, z'

loop_
  _atom_site_type_symbol
  _atom_site_label
  _atom_site_symmetry_multiplicity
  _atom_site_fract_x
  _atom_site_fract_y
  _atom_site_fract_z
  _atom_site_occupancy
  Mn  Mn1       1.0  0.9999987438094707  0.9999975544442633  1.2961188246871166e-06  1.0000
  H   H1        1.0  0.20226690699428937  0.4503357659402453  0.05846081883254328  1.0000
  H   H2        1.0  0.7977243914081741  0.5496618579181884  0.9415390001345684  1.0000
  H   H3        1.0  0.43300765147263587  0.2575767742404977  0.948765062571617  1.0000
  H   H4        1.0  0.5669920532351186  0.7424302081718821  0.051231406584236104  1.0000
  H   H5        1.0  0.2693983900444295  0.8436887477511306  0.6385599841728292  1.0000
  H   H6        1.0  0.7305985421933983  0.15631076478602773  0.3614426094030278  1.0000
  H   H7        1.0  0.4427436864050308  0.0017113117555424939  0.708269450042863  1.0000
  H   H8        1.0  0.5572532473082035  0.9982882240125903  0.2917344224077353  1.0000
  H   H9        1.0  0.8440921628157341  0.5622276617663642  0.3528521487158826  1.0000
  H   H10       1.0  0.15591859280930015  0.4377717428955066  0.647153292960347  1.0000
  H   H11       1.0  0.1256779934937171  0.32374118376561967  0.3462105053678782  1.0000
  H   H12       1.0  0.8743251484678328  0.6762562679792196  0.6537873701147277  1.0000
  C   C1        1.0  0.21029691283940374  0.6980739629505877  0.3142142946358959  1.0000
  C   C2        1.0  0.7897042076113222  0.30193721901898124  0.6858046898047476  1.0000
  C   C3        1.0  0.028987189696955847  0.509520791849006  0.4002502962513717  1.0000
  C   C4        1.0  0.9710277884466766  0.49047637162734486  0.5997392413730367  1.0000
  O   O1        1.0  0.25125276418306447  0.7266453441715084  0.14281462563034353  1.0000
  O   O2        1.0  0.7487447601725209  0.27335047443537513  0.8571945428656562  1.0000
  O   O3        1.0  0.3177639898534182  0.8160473918535799  0.4024253139239137  1.0000
  O   O4        1.0  0.6822293330106676  0.18393654824208744  0.597555953834643  1.0000
  O   O5        1.0  0.23680954223042514  0.2837753914850579  0.0031328871022751077  1.0000
  O   O6        1.0  0.7631825606170465  0.7162298238581214  0.99686624685787  1.0000
  O   O7        1.0  0.29731045917406357  0.8963683346581562  0.7502021188215835  1.0000
  O   O8        1.0  0.7026937899306774  0.10363496614568388  0.24980411405045538  1.0000
