data_image0
_chemical_formula_structural       Al4H38C62N6Cl4O20
_chemical_formula_sum              "Al4 H38 C62 N6 Cl4 O20"
_cell_length_a       6.635866233719369
_cell_length_b       20.942710737406063
_cell_length_c       21.520930866371117
_cell_angle_alpha    90.00148177683754
_cell_angle_beta     90.00635877347815
_cell_angle_gamma    98.40565953344996

_space_group_name_H-M_alt    "P 1"
_space_group_IT_number       1

loop_
  _space_group_symop_operation_xyz
  'x, y, z'

loop_
  _atom_site_type_symbol
  _atom_site_label
  _atom_site_symmetry_multiplicity
  _atom_site_fract_x
  _atom_site_fract_y
  _atom_site_fract_z
  _atom_site_occupancy
  Al  Al1       1.0  0.9537281584701134  0.6854586965413105  0.4987123603554835  1.0000
  Al  Al2       1.0  0.04637629656983219  0.314568429192093  0.9987494804602404  1.0000
  Al  Al3       1.0  0.4532231758049078  0.688306270455861  0.499415245014731  1.0000
  Al  Al4       1.0  0.546942763155016  0.3117083495311661  0.9994159597856295  1.0000
  H   H1        1.0  0.12034422942436142  0.500714863549298  0.07324666163420089  1.0000
  H   H2        1.0  0.8794789423304438  0.49943626280801834  0.5732993802611616  1.0000
  H   H3        1.0  0.05628654082951094  0.6513042052198729  0.23526907759943325  1.0000
  H   H4        1.0  0.9427604997813005  0.3489110139465197  0.7354516122639082  1.0000
  H   H5        1.0  0.1545449594302966  0.598852213718935  0.14136133698080036  1.0000
  H   H6        1.0  0.8448019198724879  0.4013444410755015  0.6414803941442953  1.0000
  H   H7        1.0  0.4459774324399674  0.4817975558011796  0.44788754026455274  1.0000
  H   H8        1.0  0.5544721367690357  0.5182040180384748  0.9479402175402496  1.0000
  H   H9        1.0  0.5892120525923942  0.39210929136012856  0.2765542703946621  1.0000
  H   H10       1.0  0.4104173612870951  0.6079853084995361  0.7767093125523559  1.0000
  H   H11       1.0  0.43821705254823234  0.38309177713728104  0.38155839748942805  1.0000
  H   H12       1.0  0.5619533997511253  0.6169555032318499  0.8816710080430923  1.0000
  H   H13       1.0  0.8693020944097611  0.6484608915635093  0.33388248245336166  1.0000
  H   H14       1.0  0.12990095741272256  0.3516756404176249  0.8340299560004992  1.0000
  H   H15       1.0  0.4723205743222891  0.8033197962219703  0.34686465494354474  1.0000
  H   H16       1.0  0.5277424762281484  0.19671570322707052  0.8469146876326759  1.0000
  H   H17       1.0  0.41542390452144673  0.0925107989839091  0.22574437851812226  1.0000
  H   H18       1.0  0.5850512963586282  0.9076721239173509  0.7256058572732299  1.0000
  H   H19       1.0  0.4393413354183338  0.1830644408573221  0.14766317338568768  1.0000
  H   H20       1.0  0.5611664276201437  0.8171466276689117  0.6474972560745725  1.0000
  H   H21       1.0  0.002198797881888495  0.05043942922004159  0.16790993439394697  1.0000
  H   H22       1.0  0.9978832629377051  0.9495685898058925  0.667917415808752  1.0000
  H   H23       1.0  0.09588593548066628  0.9634545637225218  0.33091913896893727  1.0000
  H   H24       1.0  0.9042594177042814  0.0365459063147  0.83090851741116  1.0000
  H   H25       1.0  0.029899706855651693  0.14227813090802502  0.09173524396634748  1.0000
  H   H26       1.0  0.9702493154912304  0.8577567043500309  0.5917157964609884  1.0000
  H   H27       1.0  0.5149593046188911  0.38794614228637414  0.12962606288670028  1.0000
  H   H28       1.0  0.2199637870332083  0.4153200770114439  0.16138020438283718  1.0000
  H   H29       1.0  0.3482335158608691  0.4827417242844234  0.20291129334585628  1.0000
  H   H30       1.0  0.30080867023530533  0.40621916394589885  0.2395350994257726  1.0000
  H   H31       1.0  0.4848056063829134  0.6121020556131854  0.6297961369688918  1.0000
  H   H32       1.0  0.7796740621919723  0.584736332378462  0.6616066265933539  1.0000
  H   H33       1.0  0.6513528428043215  0.5173398021636899  0.7031444366001266  1.0000
  H   H34       1.0  0.6988550516460776  0.5938694690860871  0.7397460879273082  1.0000
  H   H35       1.0  0.19197721756108876  0.6552971405201761  0.42451013335453774  1.0000
  H   H36       1.0  0.8081596329953912  0.3447328679931729  0.9245347987508907  1.0000
  H   H37       1.0  0.7254072695697644  0.7212505856864554  0.5720327483897519  1.0000
  H   H38       1.0  0.2747846541946473  0.27876815221956974  0.07205846953187489  1.0000
  C   C1        1.0  0.1585921708073954  0.6016377252171453  0.576649690622787  1.0000
  C   C2        1.0  0.8414735640750235  0.39842256348828914  0.0766228231577344  1.0000
  C   C3        1.0  0.24746817294228404  0.7775942226629624  0.5704409597942187  1.0000
  C   C4        1.0  0.752762860395073  0.2224806881309433  0.07048868552942619  1.0000
  C   C5        1.0  0.7506522733887095  0.774125613581127  0.4240798494274998  1.0000
  C   C6        1.0  0.24938078694052024  0.2258874967147548  0.9241045254462958  1.0000
  C   C7        1.0  0.6536904826568914  0.5975173477796788  0.4276140130360416  1.0000
  C   C8        1.0  0.3463592833069811  0.40252928262893317  0.9276825082554935  1.0000
  C   C9        1.0  0.04006314033959056  0.5570797906321943  0.15069363938759747  1.0000
  C   C10       1.0  0.9593383721420635  0.4430974499146599  0.6508233986680166  1.0000
  C   C11       1.0  0.8569802393091662  0.4526522320269065  0.12070538184254789  1.0000
  C   C12       1.0  0.14283953471225888  0.5474741134582004  0.6208226114561554  1.0000
  C   C13       1.0  0.5178443473505395  0.4847402971031088  0.4022236989659047  1.0000
  C   C14       1.0  0.482243795370536  0.5152913521581794  0.9023199052221925  1.0000
  C   C15       1.0  0.5103175433807152  0.4299116868921332  0.36442101436079344  1.0000
  C   C16       1.0  0.48967835278190824  0.5701404200833623  0.8645463982076861  1.0000
  C   C17       1.0  0.5932498738891637  0.43508237735498057  0.30526283833841455  1.0000
  C   C18       1.0  0.40645859594238226  0.5650079589580059  0.805427628547484  1.0000
  C   C19       1.0  0.6883172381746688  0.494988867431033  0.2812759254695364  1.0000
  C   C20       1.0  0.311195979599816  0.5051071222747012  0.7814389223339403  1.0000
  C   C21       1.0  0.7209603365816406  0.5489863685798608  0.3229467699697465  1.0000
  C   C22       1.0  0.27852823332974447  0.45110490229586725  0.8230943999469956  1.0000
  C   C23       1.0  0.7696665013955909  0.5017920113917995  0.21870715352307707  1.0000
  C   C24       1.0  0.22974964811415075  0.4983333248703731  0.7188783484646065  1.0000
  C   C25       1.0  0.9201519854971282  0.555934141566013  0.20517567274367107  1.0000
  C   C26       1.0  0.07912085985879708  0.4442182381851225  0.705335722636839  1.0000
  C   C27       1.0  0.9495043605981621  0.6086169213112173  0.24804627733472978  1.0000
  C   C28       1.0  0.049668463868542324  0.3915608848737764  0.7482286033864368  1.0000
  C   C29       1.0  0.8471888498493813  0.6067643400324981  0.30317041550842555  1.0000
  C   C30       1.0  0.15208644903351845  0.3933689847074291  0.8033297155192257  1.0000
  C   C31       1.0  0.7129806650296259  0.45550849152107264  0.16971301800193564  1.0000
  C   C32       1.0  0.28666373238359444  0.5446078994112042  0.6698883370565837  1.0000
  C   C33       1.0  0.01822833837285737  0.503817171718083  0.11244638514543229  1.0000
  C   C34       1.0  0.9814441542667752  0.49635223442759  0.6125488675206653  1.0000
  C   C35       1.0  0.628159990807319  0.5428249519951366  0.38271044652178426  1.0000
  C   C36       1.0  0.3716915597881112  0.45723162359750813  0.8828051075972069  1.0000
  C   C37       1.0  0.7365257736302696  0.16805851878795153  0.11566109703866088  1.0000
  C   C38       1.0  0.2637666479549949  0.8320356485339035  0.6155903855879926  1.0000
  C   C39       1.0  0.896566548816807  0.13117260973489658  0.12159186177092347  1.0000
  C   C40       1.0  0.10364018204695201  0.8688874553406051  0.6215466531927162  1.0000
  C   C41       1.0  0.8819697204011375  0.0805048512830666  0.16365433111577937  1.0000
  C   C42       1.0  0.1182199753329413  0.9195448658506463  0.6636245970066595  1.0000
  C   C43       1.0  0.7073814705055027  0.067156651126183  0.2013589301242789  1.0000
  C   C44       1.0  0.29286750577509923  0.9329210730255187  0.7013098604061907  1.0000
  C   C45       1.0  0.5480726250852044  0.1041190444197326  0.19573344641568005  1.0000
  C   C46       1.0  0.45233135374027  0.8960250058751671  0.6956244951599614  1.0000
  C   C47       1.0  0.5619491865856644  0.15404002210012643  0.15268588133294259  1.0000
  C   C48       1.0  0.4384805317154558  0.8461206981230517  0.6525568254794436  1.0000
  C   C49       1.0  0.6139667377534933  0.8897264333539354  0.30133840987124216  1.0000
  C   C50       1.0  0.3861298334773693  0.11030942069962181  0.8013654102769932  1.0000
  C   C51       1.0  0.6087489002111892  0.8389979320820159  0.3432683917682624  1.0000
  C   C52       1.0  0.3913214510139796  0.16103703157772742  0.8432975080668043  1.0000
  C   C53       1.0  0.7918841444300072  0.9360358543225402  0.2973243404631559  1.0000
  C   C54       1.0  0.2082482801725973  0.0639907449905053  0.7973282475754144  1.0000
  C   C55       1.0  0.7737367207961013  0.8318123487241849  0.3821336129233329  1.0000
  C   C56       1.0  0.22630360920000914  0.168203773162503  0.8821594085881299  1.0000
  C   C57       1.0  0.9506951038565744  0.878184978868532  0.37803358760768185  1.0000
  C   C58       1.0  0.049376458679894576  0.12182181673095013  0.8780390641543645  1.0000
  C   C59       1.0  0.9584656986424916  0.9283073006284541  0.33526486152101137  1.0000
  C   C60       1.0  0.04166409592281179  0.0717036961967139  0.8352668796734689  1.0000
  C   C61       1.0  0.34128843907217987  0.4306741936666397  0.19504648353257176  1.0000
  C   C62       1.0  0.6583477072567234  0.5694048275056574  0.6952655031441778  1.0000
  N   N1        1.0  0.6737060346149804  0.016667149880745996  0.24549670791055425  1.0000
  N   N2        1.0  0.32650529429965025  0.9834009777824517  0.7454633387107422  1.0000
  N   N3        1.0  0.8269276135921827  0.9887631978788036  0.25619017973112074  1.0000
  N   N4        1.0  0.173243418335197  0.0112726677485213  0.7561801860132035  1.0000
  N   N5        1.0  0.5309653664618493  0.41560346057995196  0.16899508328791057  1.0000
  N   N6        1.0  0.4687385493660229  0.5845027326815995  0.669197410231085  1.0000
  Cl  Cl1       1.0  0.4053259662570384  0.8908810229539201  0.25370607419835517  1.0000
  Cl  Cl2       1.0  0.5948046708289638  0.10918629434485182  0.7537444307433956  1.0000
  Cl  Cl3       1.0  0.16240574438243982  0.8779985328942247  0.42473758095589886  1.0000
  Cl  Cl4       1.0  0.8377099378553083  0.1219879819982097  0.9247367000052404  1.0000
  O   O1        1.0  0.41239675055395947  0.7622074041774383  0.5488068003715084  1.0000
  O   O2        1.0  0.5877743514898269  0.2377989408895047  0.04880640891162359  1.0000
  O   O3        1.0  0.9942948412944402  0.6148723420140243  0.5520636311925456  1.0000
  O   O4        1.0  0.0058088567265954785  0.3852027510372338  0.05206556180789329  1.0000
  O   O5        1.0  0.8345928887574418  0.6243951270983246  0.4392531951289839  1.0000
  O   O6        1.0  0.1655084506194129  0.37561151115185254  0.9393076536337188  1.0000
  O   O7        1.0  0.06873320602841197  0.7496813131321145  0.5574676968737433  1.0000
  O   O8        1.0  0.9314946429855906  0.25038528669438875  0.057529519640994  1.0000
  O   O9        1.0  0.9120794930680629  0.7552147259362697  0.44369990857173036  1.0000
  O   O10       1.0  0.08796160387981895  0.24478499101619627  0.9437485672312389  1.0000
  O   O11       1.0  0.33590604140300667  0.6340722241439067  0.5661245195534264  1.0000
  O   O12       1.0  0.6643017874331534  0.36590808511399336  0.0660996457795378  1.0000
  O   O13       1.0  0.20336363829208892  0.6842126876431963  0.4600025121161265  1.0000
  O   O14       1.0  0.7967578414982625  0.31580622006602965  0.9600142576443104  1.0000
  O   O15       1.0  0.5690933271369261  0.7473299148477182  0.4353908883781656  1.0000
  O   O16       1.0  0.4309508903086012  0.25270210633848933  0.9353938104677508  1.0000
  O   O17       1.0  0.4933837447083035  0.6134835697092811  0.4520496128330222  1.0000
  O   O18       1.0  0.5067120540696379  0.3865518804795016  0.9520970258542859  1.0000
  O   O19       1.0  0.7050577382567766  0.690116043867974  0.5384050831016367  1.0000
  O   O20       1.0  0.2950981220706126  0.30990832574789107  0.03843486139032849  1.0000
