data_image0
_chemical_formula_structural       Mn4H24C16N28Cl4O4
_chemical_formula_sum              "Mn4 H24 C16 N28 Cl4 O4"
_cell_length_a       7.262521295550601
_cell_length_b       7.63364654172269
_cell_length_c       17.039213611168343
_cell_angle_alpha    98.29001396907404
_cell_angle_beta     89.99699937435932
_cell_angle_gamma    118.4200438061222

_space_group_name_H-M_alt    "P 1"
_space_group_IT_number       1

loop_
  _space_group_symop_operation_xyz
  'x, y, z'

loop_
  _atom_site_type_symbol
  _atom_site_label
  _atom_site_symmetry_multiplicity
  _atom_site_fract_x
  _atom_site_fract_y
  _atom_site_fract_z
  _atom_site_occupancy
  Mn  Mn1       1.0  0.16950344591511873  0.9996927387572683  0.2500030473075087  1.0000
  Mn  Mn2       1.0  0.8133910237001983  0.00015035892205619855  0.7499695428065607  1.0000
  Mn  Mn3       1.0  0.5004110261758113  0.49234600467823225  0.9936378232765009  1.0000
  Mn  Mn4       1.0  0.008181985872603456  0.5079559294506595  0.5062179052662048  1.0000
  H   H1        1.0  0.10624999123528052  0.996106309512129  0.09378287657980883  1.0000
  H   H2        1.0  0.1103310868653082  0.0036684241296712004  0.40621739753468233  1.0000
  H   H3        1.0  0.8860709423522194  0.9856771076239497  0.8964692418156945  1.0000
  H   H4        1.0  0.8999730821283974  0.014714338227129496  0.6034628037751518  1.0000
  H   H5        1.0  0.2282803044505072  0.2459041640836616  0.1353675275033908  1.0000
  H   H6        1.0  0.9823522922287249  0.7538596360846765  0.364714528127152  1.0000
  H   H7        1.0  0.7626867325259565  0.7434998338189658  0.8498927120217132  1.0000
  H   H8        1.0  0.018951761747132343  0.25686504898896345  0.6500674599960519  1.0000
  H   H9        1.0  0.8492223204472038  0.37700927052236455  0.035531809251168105  1.0000
  H   H10       1.0  0.4719301293997518  0.6225790924492074  0.4645189287824253  1.0000
  H   H11       1.0  0.15148665374502449  0.6153583987490093  0.9620488200494394  1.0000
  H   H12       1.0  0.5361058235196339  0.385058464051717  0.5379083233623733  1.0000
  H   H13       1.0  0.8211340724685529  0.050278740034478596  0.0678877664890152  1.0000
  H   H14       1.0  0.7708567382340518  0.9492846645539499  0.43215749904676676  1.0000
  H   H15       1.0  0.17700246170377895  0.9419479758116294  0.9310979322704186  1.0000
  H   H16       1.0  0.23476041703764136  0.058774963408403394  0.5690501351775836  1.0000
  H   H17       1.0  0.09341439809259096  0.27660632831758386  0.3470669525692358  1.0000
  H   H18       1.0  0.8164910097326084  0.7227864554894051  0.15293821542638852  1.0000
  H   H19       1.0  0.8939447109801433  0.7483409640432651  0.6521415151472854  1.0000
  H   H20       1.0  0.14575336613672357  0.2519669748452316  0.8477063212294595  1.0000
  H   H21       1.0  0.1062951260472005  0.35785720409763405  0.26639050768404365  1.0000
  H   H22       1.0  0.7479294235981654  0.6413309026356941  0.23354812239588094  1.0000
  H   H23       1.0  0.8815224781142702  0.6764453272546688  0.7347587570802432  1.0000
  H   H24       1.0  0.20528749514615896  0.323725268183118  0.7650569455756085  1.0000
  C   C1        1.0  0.4211750019157279  0.13329369123419343  0.10419025073146321  1.0000
  C   C2        1.0  0.28791676845681013  0.866392765698059  0.39580091882236706  1.0000
  C   C3        1.0  0.5714725370448476  0.8552752232810548  0.8880230290865259  1.0000
  C   C4        1.0  0.7158564098681737  0.14517712315753778  0.6120620528414663  1.0000
  C   C5        1.0  0.4026467532183347  0.8102181135651634  0.13617844095266926  1.0000
  C   C6        1.0  0.5927062051117602  0.1893273681752916  0.3637757365915064  1.0000
  C   C7        1.0  0.5945025274823195  0.17587414350885672  0.8567160807373781  1.0000
  C   C8        1.0  0.4182312583211781  0.8246351457981618  0.643429929435392  1.0000
  C   C9        1.0  0.5053656621225641  0.0005757529215841999  0.10730879619210751  1.0000
  C   C10       1.0  0.5049756309387019  0.9990201389006683  0.39265182917432645  1.0000
  C   C11       1.0  0.4885280853508077  0.9891966487049615  0.8873241368927439  1.0000
  C   C12       1.0  0.4988900055934806  0.011432193861445198  0.6128778188905244  1.0000
  C   C13       1.0  0.7007814281294599  0.09485986539033321  0.0768650702920439  1.0000
  C   C14       1.0  0.6059415188266398  0.9047410012852521  0.4231443998571436  1.0000
  C   C15       1.0  0.29631741776760373  0.8966766793459158  0.920035814708598  1.0000
  C   C16       1.0  0.3993441095540716  0.10394438230690639  0.580088883667294  1.0000
  N   N1        1.0  0.5537225557724383  0.29534817740714187  0.07234774494626352  1.0000
  N   N2        1.0  0.2582822420002626  0.7044258481361821  0.427718997375635  1.0000
  N   N3        1.0  0.4427644680685461  0.6942048753496477  0.9207919207444277  1.0000
  N   N4        1.0  0.7483761921766001  0.30613197713493173  0.5792051859141696  1.0000
  N   N5        1.0  0.27662668349959296  0.7780712031710164  0.19686695663932602  1.0000
  N   N6        1.0  0.4986343275202357  0.2213359519941633  0.3031087753634197  1.0000
  N   N7        1.0  0.727229049720492  0.19821893244833427  0.7981723210385994  1.0000
  N   N8        1.0  0.5288497381479755  0.8022210372327122  0.7018742931044245  1.0000
  N   N9        1.0  0.2082283266540513  0.5843276630988468  0.2056608932462183  1.0000
  N   N10       1.0  0.6237699155147424  0.41516631442641483  0.294358166776405  1.0000
  N   N11       1.0  0.8070508930869449  0.39288543508089185  0.7864074094468877  1.0000
  N   N12       1.0  0.414259266763082  0.6074559903557313  0.7135185322573109  1.0000
  N   N13       1.0  0.28820453504290094  0.5040940814998649  0.15253011321608062  1.0000
  N   N14       1.0  0.7840024527455822  0.49559567571878904  0.3474947463603471  1.0000
  N   N15       1.0  0.7270113707623125  0.48172506421028055  0.836217164098912  1.0000
  N   N16       1.0  0.24532530911486813  0.5185185716773616  0.6636781094977877  1.0000
  N   N17       1.0  0.4102094492646628  0.639831363446298  0.10712118111814566  1.0000
  N   N18       1.0  0.7704997674033008  0.3598968636524589  0.3928716423231648  1.0000
  N   N19       1.0  0.5938708914535766  0.3514300779585895  0.8815236697666791  1.0000
  N   N20       1.0  0.2422465110338619  0.6489056909334108  0.6185148901611442  1.0000
  N   N21       1.0  0.22988702205835657  0.10879232282442079  0.1317111270709361  1.0000
  N   N22       1.0  0.12118029204655992  0.8909271142915781  0.3683066432694204  1.0000
  N   N23       1.0  0.7615371168242148  0.8813414351038843  0.8566834171197685  1.0000
  N   N24       1.0  0.879879049750599  0.1190189350300983  0.6432980809781128  1.0000
  N   N25       1.0  0.7235091161957214  0.26860269427999833  0.05794092302647161  1.0000
  N   N26       1.0  0.45479046880733165  0.7310842427660591  0.44213798129527504  1.0000
  N   N27       1.0  0.2753246220222889  0.7226281191724266  0.9383645464919042  1.0000
  N   N28       1.0  0.5525433184507378  0.2777979785821855  0.561636335013276  1.0000
  Cl  Cl1       1.0  0.1155684534301997  0.2707895796186364  0.9691062491453339  1.0000
  Cl  Cl2       1.0  0.8451603957674434  0.7295993926013863  0.5308299465362867  1.0000
  Cl  Cl3       1.0  0.879347913945615  0.7159314679030684  0.025425029651344716  1.0000
  Cl  Cl4       1.0  0.16276919758362138  0.28373946957145074  0.47462491477430296  1.0000
  O   O1        1.0  0.06975111251978205  0.2338027302663049  0.2889125009505307  1.0000
  O   O2        1.0  0.8354448457165656  0.7655095311106165  0.2110971046146091  1.0000
  O   O3        1.0  0.9235189470764738  0.7974432782015128  0.7103182946835744  1.0000
  O   O4        1.0  0.12642954164147108  0.20276660365743024  0.789536190964192  1.0000
