data_image0
_chemical_formula_structural       Zn2H50C44N6O8
_chemical_formula_sum              "Zn2 H50 C44 N6 O8"
_cell_length_a       8.038419523424642
_cell_length_b       9.68670492385426
_cell_length_c       14.675472977181588
_cell_angle_alpha    88.0503827845831
_cell_angle_beta     88.17071254787825
_cell_angle_gamma    74.5335430930579

_space_group_name_H-M_alt    "P 1"
_space_group_IT_number       1

loop_
  _space_group_symop_operation_xyz
  'x, y, z'

loop_
  _atom_site_type_symbol
  _atom_site_label
  _atom_site_symmetry_multiplicity
  _atom_site_fract_x
  _atom_site_fract_y
  _atom_site_fract_z
  _atom_site_occupancy
  Zn  Zn1       1.0  0.22593862800959405  0.6276137867745105  0.17092654462368267  1.0000
  Zn  Zn2       1.0  0.77406234354293  0.3723866934302435  0.8290735053931397  1.0000
  H   H1        1.0  0.45492954901051535  0.36626480103168985  0.058437840509533594  1.0000
  H   H2        1.0  0.5450710776465685  0.6337367497259194  0.9415608283766159  1.0000
  H   H3        1.0  0.22456740026191832  0.6157597219550933  0.8159974528439518  1.0000
  H   H4        1.0  0.7754339172408822  0.38423968722182866  0.18400329688697067  1.0000
  H   H5        1.0  0.08196569845639354  0.5059134806084201  0.8182678836370341  1.0000
  H   H6        1.0  0.918035619046414  0.4940859285685093  0.18173286609388836  1.0000
  H   H7        1.0  0.7825062869676245  0.044783991713785595  0.1470459773099151  1.0000
  H   H8        1.0  0.2174906045893581  0.955217551325553  0.8529554812129092  1.0000
  H   H9        1.0  0.6700699503003946  0.12248905468436526  0.047009098866404  1.0000
  H   H10       1.0  0.32993047058059954  0.877509279783709  0.952991690485504  1.0000
  H   H11       1.0  0.6011047133696653  0.6185472726007645  0.11834743325556467  1.0000
  H   H12       1.0  0.398896951138248  0.38145106507336374  0.881653334772885  1.0000
  H   H13       1.0  0.30437245331159357  0.1288717384869216  0.1493451307523443  1.0000
  H   H14       1.0  0.6956276216191244  0.8711276670089773  0.8506549588854637  1.0000
  H   H15       1.0  0.777326142739334  0.7949148842254485  0.10436603503455189  1.0000
  H   H16       1.0  0.2226751758183028  0.20508452447650424  0.8956340332797976  1.0000
  H   H17       1.0  0.045768068997041784  0.5444204460228049  0.6411532601921974  1.0000
  H   H18       1.0  0.9542313108686148  0.45558110295366555  0.3588474742671366  1.0000
  H   H19       1.0  0.19824409580687075  0.6466249802276848  0.6426284984566806  1.0000
  H   H20       1.0  0.8017556310639053  0.35337549724599165  0.35737225430017355  1.0000
  H   H21       1.0  0.7082896020205709  0.026720147516144297  0.3170790898381455  1.0000
  H   H22       1.0  0.29170639924362274  0.9732803179645019  0.6829183198062124  1.0000
  H   H23       1.0  0.14929866686156879  0.9370721957696797  0.16701356973061365  1.0000
  H   H24       1.0  0.8507014080691494  0.06292720972621878  0.8329865199071945  1.0000
  H   H25       1.0  0.9910280249730409  0.7952433678858879  0.9123532573604577  1.0000
  H   H26       1.0  0.008973292529766825  0.20475604129103428  0.08764749237046487  1.0000
  H   H27       1.0  0.8875839307131771  0.6577567312643351  0.9290669704364658  1.0000
  H   H28       1.0  0.11241703978451065  0.3422437494153954  0.0709337609969296  1.0000
  H   H29       1.0  0.9978074744238303  0.8191260191042385  0.7480767343929597  1.0000
  H   H30       1.0  0.0021938441338136138  0.1808733895977142  0.2519233339213898  1.0000
  H   H31       1.0  0.8528773314703172  0.7103126730161263  0.748469962753525  1.0000
  H   H32       1.0  0.14712363797253408  0.28968780813857353  0.25153145009644357  1.0000
  H   H33       1.0  0.32230360030974486  0.519676670608156  0.3813627538838772  1.0000
  H   H34       1.0  0.6776982689194215  0.4803248838304768  0.6186365750953797  1.0000
  H   H35       1.0  0.44886905015455636  0.35001782360639305  0.5092971248091158  1.0000
  H   H36       1.0  0.5511322715675891  0.6499815836706445  0.4907008992555077  1.0000
  H   H37       1.0  0.03537680810185158  0.5997246291889056  0.46505835472087387  1.0000
  H   H38       1.0  0.9646216751420058  0.4002758450787098  0.5349424193594385  1.0000
  H   H39       1.0  0.17120930262262854  0.7142328373908882  0.4727583460660154  1.0000
  H   H40       1.0  0.8287904253029765  0.2857676396078118  0.5272417252742656  1.0000
  H   H41       1.0  0.797887076137116  0.8013715919756875  0.4058216015057638  1.0000
  H   H42       1.0  0.20211140710673456  0.19862888229192777  0.594179172574556  1.0000
  H   H43       1.0  0.9215387107392629  0.9232460197724418  0.4200025027041079  1.0000
  H   H44       1.0  0.07846136419145475  0.07675338572345677  0.5799975869337002  1.0000
  H   H45       1.0  0.6336915918647891  0.10628280551225798  0.4782866823733726  1.0000
  H   H46       1.0  0.36630724260351855  0.8937165953526712  0.5217113843381682  1.0000
  H   H47       1.0  0.8258778818904277  0.7549263307514237  0.5776663500129542  1.0000
  H   H48       1.0  0.17412149692039247  0.24507521870002333  0.4223350658629527  1.0000
  H   H49       1.0  0.9695388296108124  0.8632209453598132  0.585473910002861  1.0000
  H   H50       1.0  0.03046248683715192  0.13677846429207818  0.4145275211446346  1.0000
  C   C1        1.0  0.5529841280725948  0.22889518117153776  0.2625016828730438  1.0000
  C   C2        1.0  0.4470124228082926  0.7711074305207642  0.7374956688528014  1.0000
  C   C3        1.0  0.4684120732046679  0.3429312834299694  0.13111160191549226  1.0000
  C   C4        1.0  0.5315873098254968  0.657070264121586  0.868887088294116  1.0000
  C   C5        1.0  0.5539329771634199  0.9780511238791973  0.12510220525514626  1.0000
  C   C6        1.0  0.4460670967124615  0.02194828209167809  0.8748985657992348  1.0000
  C   C7        1.0  0.12823431693076517  0.6238043224271619  0.9950492172174491  1.0000
  C   C8        1.0  0.8717670016268714  0.37619508627479087  0.004950851096900504  1.0000
  C   C9        1.0  0.00014439805072196873  0.7880260082194255  0.3067161089911465  1.0000
  C   C10       1.0  0.9998553288200471  0.21197446925425104  0.6932846437657074  1.0000
  C   C11       1.0  0.08731842660342445  0.6179467378690687  0.8218270885451701  1.0000
  C   C12       1.0  0.912682890899383  0.3820526713078607  0.17817366118575248  1.0000
  C   C13       1.0  0.6539160527291445  0.09014912276357019  0.11863624996457386  1.0000
  C   C14       1.0  0.34608312663461066  0.909849207548504  0.8813631978776468  1.0000
  C   C15       1.0  0.540807632179032  0.7329676220217747  0.1256646861511257  1.0000
  C   C16       1.0  0.4591936874334411  0.26703178620520157  0.874334700746651  1.0000
  C   C17       1.0  0.37553090312477627  0.017302842709888498  0.1415365884836532  1.0000
  C   C18       1.0  0.6244707624379728  0.9826954944892632  0.8584634981282234  1.0000
  C   C19       1.0  0.6377379527613203  0.8325079099691235  0.1161340334638794  1.0000
  C   C20       1.0  0.3622633657963164  0.16749149873282926  0.883866034850463  1.0000
  C   C21       1.0  0.05923485676296289  0.6537729594684547  0.6488060132557363  1.0000
  C   C22       1.0  0.940765218167762  0.34622644602744396  0.3511940763820717  1.0000
  C   C23       1.0  0.4451875310056651  0.36736693215941324  0.27908411892855867  1.0000
  C   C24       1.0  0.5548106094524171  0.6326346117111186  0.7209139111879281  1.0000
  C   C25       1.0  0.6228286927949683  0.1315686374432801  0.3324278771723428  1.0000
  C   C26       1.0  0.3771673084692254  0.868431828037373  0.6675695324720152  1.0000
  C   C27       1.0  0.28765519622798774  0.9121885710908725  0.1509289562479879  1.0000
  C   C28       1.0  0.7123464693347612  0.08780976610828618  0.8490711303638887  1.0000
  C   C29       1.0  0.014401420802421808  0.6774142689239112  0.9137821269523981  1.0000
  C   C30       1.0  0.9856007933221917  0.3225862149618662  0.0862185831575388  1.0000
  C   C31       1.0  0.990959099132873  0.7072174762380568  0.7428428765675219  1.0000
  C   C32       1.0  0.009041871364821926  0.2927830044416666  0.25715785486588055  1.0000
  C   C33       1.0  0.40699212481987973  0.41375553855007025  0.3685426502176128  1.0000
  C   C34       1.0  0.5930072571554491  0.5862460094764543  0.6314567214085685  1.0000
  C   C35       1.0  0.4769076265491706  0.31723477932738575  0.43877921533317016  1.0000
  C   C36       1.0  0.5230921034861069  0.6827656967213683  0.561219493173958  1.0000
  C   C37       1.0  0.03519837851959563  0.7111793318203538  0.4775977871996132  1.0000
  C   C38       1.0  0.9647997587739854  0.28882221347509335  0.5224022871665994  1.0000
  C   C39       1.0  0.9319902370222765  0.8106041371342341  0.40466845495036796  1.0000
  C   C40       1.0  0.06800824622157363  0.1893963371333811  0.5953323191299517  1.0000
  C   C41       1.0  0.5820249055873249  0.1784701086398073  0.4211725595469175  1.0000
  C   C42       1.0  0.417972685254064  0.8215292890190681  0.578825528488089  1.0000
  C   C43       1.0  0.96372765254975  0.7526925102841344  0.5732209882206476  1.0000
  C   C44       1.0  0.036271726261070135  0.24730903916730537  0.42678042765525237  1.0000
  N   N1        1.0  0.3691528272155865  0.7718633779955083  0.1438705828588596  1.0000
  N   N2        1.0  0.6308488383471627  0.22813495920364343  0.856129503753017  1.0000
  N   N3        1.0  0.5663740795799797  0.21814795052568303  0.16786267444063435  1.0000
  N   N4        1.0  0.4336231642562965  0.7818525186359935  0.8321353952968379  1.0000
  N   N5        1.0  0.39375202192308495  0.435169053804266  0.1949975753060826  1.0000
  N   N6        1.0  0.6062473600522439  0.5648324942222657  0.8050017963200984  1.0000
  O   O1        1.0  0.11857011603403587  0.6697268466981113  0.2928450598061473  1.0000
  O   O2        1.0  0.8814283682646507  0.33027362709453456  0.7071550328575922  1.0000
  O   O3        1.0  0.9409288727072539  0.8813363826942715  0.24632516587188744  1.0000
  O   O4        1.0  0.05907120327830741  0.11866302232665052  0.7536742423493477  1.0000
  O   O5        1.0  0.054121472837927447  0.659498540514029  0.07410422244005589  1.0000
  O   O6        1.0  0.9458819870232702  0.3405019456278566  0.9258951035132694  1.0000
  O   O7        1.0  0.2834463353706058  0.555590611708787  0.9851654838348478  1.0000
  O   O8        1.0  0.7165553301921437  0.4444077254903645  0.01483460277702161  1.0000
