data_image0
_chemical_formula_structural       Zn2H12C22N2O20
_chemical_formula_sum              "Zn2 H12 C22 N2 O20"
_cell_length_a       10.96945893941671
_cell_length_b       10.45078942741303
_cell_length_c       11.789628223654184
_cell_angle_alpha    98.2489614227806
_cell_angle_beta     91.41095664791627
_cell_angle_gamma    84.3719500272888

_space_group_name_H-M_alt    "P 1"
_space_group_IT_number       1

loop_
  _space_group_symop_operation_xyz
  'x, y, z'

loop_
  _atom_site_type_symbol
  _atom_site_label
  _atom_site_symmetry_multiplicity
  _atom_site_fract_x
  _atom_site_fract_y
  _atom_site_fract_z
  _atom_site_occupancy
  Zn  Zn1       1.0  0.4884482091512368  0.6195396459831954  0.5061024155128279  1.0000
  Zn  Zn2       1.0  0.512715602116721  0.352241863433413  0.4632902165585121  1.0000
  H   H1        1.0  0.10065750491381921  0.6812368792952128  0.4269215206517598  1.0000
  H   H2        1.0  0.0526197902415788  0.2275861362972833  0.5415413015818016  1.0000
  H   H3        1.0  0.839686266823712  0.3889775795208338  0.2912700021253869  1.0000
  H   H4        1.0  0.8105889245427348  0.2757860231576643  0.47967400240760566  1.0000
  H   H5        1.0  0.06776993567183351  0.6585865753896769  0.6086897154218747  1.0000
  H   H6        1.0  0.9093980947558933  0.6966132463303653  0.4867187930351235  1.0000
  H   H7        1.0  0.8785998257326142  0.6193163140472037  0.6455302941025636  1.0000
  H   H8        1.0  0.07205756274199619  0.5365887910418365  0.12230093794168076  1.0000
  H   H9        1.0  0.2740458408260764  0.4579242609250258  0.7864925828035466  1.0000
  H   H10       1.0  0.7230686257671478  0.6039349534096558  0.21213578949078027  1.0000
  H   H11       1.0  0.9326544169377229  0.31098429036342157  0.7844078706217132  1.0000
  H   H12       1.0  0.22732910502443096  0.3024378623341875  0.356828146123  1.0000
  C   C1        1.0  0.5132524654836175  0.46015025048630787  0.697777270088899  1.0000
  C   C2        1.0  0.4997429316187549  0.4766475693140323  0.2650402728025795  1.0000
  C   C3        1.0  0.5125644656837666  0.4604924927596983  0.8200605711078308  1.0000
  C   C4        1.0  0.06323394057148592  0.5872144960476787  0.4008330730510251  1.0000
  C   C5        1.0  0.0676876341559449  0.5525943319204174  0.6048685526445041  1.0000
  C   C6        1.0  0.9221440148578355  0.6088821875441397  0.42300776952964  1.0000
  C   C7        1.0  0.9299430668129818  0.5273788458838949  0.6096544836715408  1.0000
  C   C8        1.0  0.5086495013455802  0.46854970537627577  0.9244384880663573  1.0000
  C   C9        1.0  0.08532548827860613  0.3545899236246158  0.44661785089377287  1.0000
  C   C10       1.0  0.9408013761603371  0.3619085847940155  0.4266432590109374  1.0000
  C   C11       1.0  0.1132361715312413  0.5500822166545873  0.2793773115435343  1.0000
  C   C12       1.0  0.1225861382797078  0.49526646304553157  0.4852012228545631  1.0000
  C   C13       1.0  0.1340908645500321  0.533721280591699  0.7174522333820048  1.0000
  C   C14       1.0  0.8427345328914626  0.6536338390343417  0.32527099765115247  1.0000
  C   C15       1.0  0.8878878882825418  0.43431696052515195  0.6867001548920229  1.0000
  C   C16       1.0  0.880990546906034  0.4971134443426663  0.4835863152873542  1.0000
  C   C17       1.0  0.5010197320958767  0.4822621259207196  0.14365022538031977  1.0000
  C   C18       1.0  0.5051340306847151  0.47620653353774123  0.03945541511554749  1.0000
  C   C19       1.0  0.2625397409581396  0.5022174621788053  0.4868041935116095  1.0000
  C   C20       1.0  0.7395404783460506  0.504075405944931  0.4864413094225241  1.0000
  C   C21       1.0  0.5086728563513746  0.044786679057395376  0.4642202992929753  1.0000
  C   C22       1.0  0.4939545342040716  0.9240292507299441  0.4904580256170305  1.0000
  N   N1        1.0  0.5217210007873874  0.14756332002879452  0.44248494108536107  1.0000
  N   N2        1.0  0.4813801435716556  0.8218617945762147  0.5138461344485563  1.0000
  O   O1        1.0  0.5040768200524894  0.5717737007441243  0.6656520275973179  1.0000
  O   O2        1.0  0.0279308758184698  0.5523911719671445  0.19509705631166693  1.0000
  O   O3        1.0  0.0946361698360647  0.5921484167882625  0.8085142984874591  1.0000
  O   O4        1.0  0.23935443801764927  0.4556422527606044  0.708686623247935  1.0000
  O   O5        1.0  0.8353500845372537  0.7647881729438238  0.3042058549271473  1.0000
  O   O6        1.0  0.774946417378807  0.562080582930207  0.26785764468399975  1.0000
  O   O7        1.0  0.7793247593307059  0.43427325704610803  0.707684718930224  1.0000
  O   O8        1.0  0.9756640320872164  0.3582514692027772  0.7340916526560333  1.0000
  O   O9        1.0  0.13918762439915608  0.2990117809996491  0.3419040963471502  1.0000
  O   O10       1.0  0.12023154494821137  0.28095827210616864  0.5349857446605668  1.0000
  O   O11       1.0  0.9175484576065287  0.341696161056838  0.30879366562739813  1.0000
  O   O12       1.0  0.5198142493194027  0.34990739163386303  0.634929611879741  1.0000
  O   O13       1.0  0.9008703372452516  0.2608976811299826  0.48172373656658607  1.0000
  O   O14       1.0  0.30143841111684816  0.6133209138053886  0.5131451503456715  1.0000
  O   O15       1.0  0.3294595555638224  0.395667000552173  0.4628794974149385  1.0000
  O   O16       1.0  0.6816048873966096  0.6151618517269452  0.5083239410657753  1.0000
  O   O17       1.0  0.6908147851102981  0.3967662358055364  0.464335975782518  1.0000
  O   O18       1.0  0.494070033262865  0.5845256625675007  0.3317747528402392  1.0000
  O   O19       1.0  0.5079412428275916  0.3630443246852977  0.29299556062385074  1.0000
  O   O20       1.0  0.2229498008236845  0.5324614250845983  0.2605582515130179  1.0000
