data_image0
_chemical_formula_structural       Ag8H24C40N24O24
_chemical_formula_sum              "Ag8 H24 C40 N24 O24"
_cell_length_a       6.711315191433515
_cell_length_b       9.777990821317298
_cell_length_c       19.818101507005704
_cell_angle_alpha    89.99994018122841
_cell_angle_beta     90.00002601026144
_cell_angle_gamma    97.80631775046479

_space_group_name_H-M_alt    "P 1"
_space_group_IT_number       1

loop_
  _space_group_symop_operation_xyz
  'x, y, z'

loop_
  _atom_site_type_symbol
  _atom_site_label
  _atom_site_symmetry_multiplicity
  _atom_site_fract_x
  _atom_site_fract_y
  _atom_site_fract_z
  _atom_site_occupancy
  Ag  Ag1       1.0  0.24450402437665283  0.3656795292642911  0.6717903439647157  1.0000
  Ag  Ag2       1.0  0.7555032614293609  0.134322714130235  0.17179145876738025  1.0000
  Ag  Ag3       1.0  0.7554977907367827  0.6343140004744966  0.32820596274617486  1.0000
  Ag  Ag4       1.0  0.24449700809545044  0.865687286738357  0.82820737088695  1.0000
  Ag  Ag5       1.0  0.2894792301194258  0.23046943368633774  0.3029583678613647  1.0000
  Ag  Ag6       1.0  0.7105371406446108  0.26953251499524816  0.802957846578941  1.0000
  Ag  Ag7       1.0  0.7105335841004461  0.7695272942191309  0.697041470974163  1.0000
  Ag  Ag8       1.0  0.2894655909247348  0.7304661755826984  0.19704249684484404  1.0000
  H   H1        1.0  0.3049672105370149  0.09898385044844098  0.5616642993041124  1.0000
  H   H2        1.0  0.695047797724001  0.4010208505003305  0.06166583106391948  1.0000
  H   H3        1.0  0.6950232124687119  0.9010126596097547  0.43833150281639616  1.0000
  H   H4        1.0  0.3049661162415731  0.5989820704162412  0.938336026127551  1.0000
  H   H5        1.0  0.3209406417607923  0.06590641693767199  0.43540246334679705  1.0000
  H   H6        1.0  0.6790657496563101  0.43410535167056  0.9354044116900294  1.0000
  H   H7        1.0  0.6790516405739809  0.93409217198208  0.5645933387735196  1.0000
  H   H8        1.0  0.32093509616328925  0.5658995028728667  0.06459694091110887  1.0000
  H   H9        1.0  0.28269201387112725  0.4967631939478919  0.3430872975275604  1.0000
  H   H10       1.0  0.717293964955303  0.0032434937585890007  0.843088370593783  1.0000
  H   H11       1.0  0.7172983827161232  0.503241558930732  0.6569140550729242  1.0000
  H   H12       1.0  0.28270968306920713  0.9967603576607191  0.15691449577528968  1.0000
  H   H13       1.0  0.24399401981663968  0.7285572435430366  0.3900831847307343  1.0000
  H   H14       1.0  0.7559931925940402  0.7714427587451453  0.8900851916913195  1.0000
  H   H15       1.0  0.7559833350443482  0.2714412001383478  0.6099146357454399  1.0000
  H   H16       1.0  0.24400786293778506  0.22855488513804542  0.10991666550011558  1.0000
  H   H17       1.0  0.17470662128511089  0.6978984667104626  0.6831465742922375  1.0000
  H   H18       1.0  0.8253020200671057  0.8021064700174563  0.18314865706139466  1.0000
  H   H19       1.0  0.8252884896777459  0.3020908762507801  0.316854778310855  1.0000
  H   H20       1.0  0.17469919233479905  0.19790044886178035  0.8168542093070594  1.0000
  H   H21       1.0  0.15310638364648096  0.8957800734189617  0.6050674195358139  1.0000
  H   H22       1.0  0.8469087020925486  0.6042282452142373  0.10506956432329417  1.0000
  H   H23       1.0  0.8468969242178941  0.10421347083308767  0.39493595142397436  1.0000
  H   H24       1.0  0.1531024096705806  0.39577567881911335  0.8949358249922523  1.0000
  C   C1        1.0  0.26354973936776815  0.41278161805065844  0.5119536353765354  1.0000
  C   C2        1.0  0.7364467309398676  0.08722819965618099  0.011954257228566696  1.0000
  C   C3        1.0  0.7364457117552162  0.5872180320778426  0.48804721263583406  1.0000
  C   C4        1.0  0.26354963663754205  0.9127766113158841  0.9880475999614898  1.0000
  C   C5        1.0  0.2931907758960364  0.18431199594773776  0.5273638256737171  1.0000
  C   C6        1.0  0.7068124400789982  0.3156937208402013  0.027363366136455586  1.0000
  C   C7        1.0  0.7067977877823709  0.8156824352437653  0.47263550857138614  1.0000
  C   C8        1.0  0.29318953190527003  0.6843090838924297  0.9726354635190542  1.0000
  C   C9        1.0  0.3050075256053403  0.1663778023800901  0.4570089568584022  1.0000
  C   C10       1.0  0.6949921828197104  0.3336297165621787  0.9570074052073135  1.0000
  C   C11       1.0  0.6949838138553017  0.8336238685202062  0.5429888636181913  1.0000
  C   C12       1.0  0.3050116484943501  0.6663751670298055  0.04299293821561179  1.0000
  C   C13       1.0  0.27919971201462346  0.39749365720115276  0.4408040384213691  1.0000
  C   C14       1.0  0.7208025994527459  0.1025118736229302  0.9408045776367968  1.0000
  C   C15       1.0  0.7208004006410889  0.6025070686684515  0.5591958004127376  1.0000
  C   C16       1.0  0.2792116810941465  0.8974931116323928  0.05919677496518718  1.0000
  C   C17       1.0  0.27267461162460893  0.5131322451451082  0.3973634318110156  1.0000
  C   C18       1.0  0.7273193120690634  0.9868719227213131  0.8973638568203764  1.0000
  C   C19       1.0  0.727321755953049  0.4868725658262249  0.6026389299682434  1.0000
  C   C20       1.0  0.27269255927667047  0.0131278871646998  0.10263800037142798  1.0000
  C   C21       1.0  0.2484601196598959  0.6397741882814216  0.4229697994658819  1.0000
  C   C22       1.0  0.751529900745147  0.8602329579730891  0.9229722838635651  1.0000
  C   C23       1.0  0.751531036511686  0.3602264504447277  0.5770315531352634  1.0000
  C   C24       1.0  0.2484718879498189  0.13976881458612672  0.07702957332729447  1.0000
  C   C25       1.0  0.22856258642946864  0.6591959458274558  0.49405934941336216  1.0000
  C   C26       1.0  0.7714263774383735  0.8408130432876957  0.9940603284247157  1.0000
  C   C27       1.0  0.7714287530331488  0.3408057250669643  0.5059425077768436  1.0000
  C   C28       1.0  0.2285681308094922  0.1591896888242843  0.005940519587127799  1.0000
  C   C29       1.0  0.2364770718107606  0.5462457550855573  0.5388376216822478  1.0000
  C   C30       1.0  0.7635206123820308  0.9537574357535732  0.038838641906565385  1.0000
  C   C31       1.0  0.7635180127304081  0.4537518307056701  0.4611627217412034  1.0000
  C   C32       1.0  0.23646886775129158  0.046242156280023  0.9611627106946301  1.0000
  C   C33       1.0  0.1892040589383583  0.6848558122774691  0.6289653025698171  1.0000
  C   C34       1.0  0.8107983750647205  0.8151481919198957  0.12896737956351956  1.0000
  C   C35       1.0  0.8107865473618572  0.3151417299387234  0.3710380683885574  1.0000
  C   C36       1.0  0.1891951903092632  0.18485762217188295  0.8710359913938103  1.0000
  C   C37       1.0  0.1803203942700335  0.7966363588937427  0.5843888660937393  1.0000
  C   C38       1.0  0.8196833055288762  0.7033667574291086  0.08439097769271338  1.0000
  C   C39       1.0  0.8196750568534483  0.2033632912332948  0.4156129910970349  1.0000
  C   C40       1.0  0.18032277811848013  0.2966340265295315  0.9156123932661796  1.0000
  N   N1        1.0  0.2729377927163839  0.3057127835040347  0.5546075863251119  1.0000
  N   N2        1.0  0.7270589290805985  0.19428969937057158  0.05460716574000909  1.0000
  N   N3        1.0  0.7270496447958692  0.6942836975026693  0.4453912433304124  1.0000
  N   N4        1.0  0.27293576245780565  0.8057140649111502  0.9453931776824899  1.0000
  N   N5        1.0  0.2992995078179277  0.27090853820138244  0.4142238133349847  1.0000
  N   N6        1.0  0.7006923283825441  0.22909696833908552  0.914223807476425  1.0000
  N   N7        1.0  0.7006996619624175  0.7290952696524329  0.5857755209094008  1.0000
  N   N8        1.0  0.29931430513543944  0.7709069121317143  0.08577603135762499  1.0000
  N   N9        1.0  0.217451006267332  0.5612855232076727  0.6063889928660514  1.0000
  N   N10       1.0  0.782556433737902  0.9387216867915948  0.10639102922630876  1.0000
  N   N11       1.0  0.7825394167398796  0.4387109868461181  0.3936098367896576  1.0000
  N   N12       1.0  0.21743676505425916  0.061282062962909806  0.8936118371421029  1.0000
  N   N13       1.0  0.2008866698916663  0.7859567106971282  0.5181262151755348  1.0000
  N   N14       1.0  0.7991027971153668  0.7140423391410236  0.018128825512171397  1.0000
  N   N15       1.0  0.799102050658561  0.21404699548527617  0.48187766037099766  1.0000
  N   N16       1.0  0.20089359688471828  0.285954228998122  0.9818760592143289  1.0000
  N   N17       1.0  0.4518780094130576  0.5290254905223717  0.7970152440324936  1.0000
  N   N18       1.0  0.5481158424124787  0.9709707266558852  0.2970111854085501  1.0000
  N   N19       1.0  0.5481243555749629  0.4709711357168302  0.2029856039807711  1.0000
  N   N20       1.0  0.4518902412323981  0.029030057310102095  0.7029871396583329  1.0000
  N   N21       1.0  0.9445002972201519  0.09563775839484383  0.7028756472679374  1.0000
  N   N22       1.0  0.055514142607151484  0.4043541599628852  0.20287154499980883  1.0000
  N   N23       1.0  0.05550039172762671  0.9043578211576815  0.29712116403177186  1.0000
  N   N24       1.0  0.9444934602061535  0.5956383956988702  0.7971262754792006  1.0000
  O   O1        1.0  0.4157123122862103  0.40349930661002276  0.7748885194423349  1.0000
  O   O2        1.0  0.584281089898063  0.09649940943410228  0.2748840729852019  1.0000
  O   O3        1.0  0.5842824056721554  0.5964962148468587  0.2251093010354025  1.0000
  O   O4        1.0  0.41571789658853214  0.9035033662595208  0.7251092061889179  1.0000
  O   O5        1.0  0.41231406447147373  0.6266622330022571  0.7597619107638137  1.0000
  O   O6        1.0  0.5876879477661844  0.8733382939223943  0.2597573818820748  1.0000
  O   O7        1.0  0.5876927787577414  0.3733344368112483  0.24023641430373732  1.0000
  O   O8        1.0  0.4123380914685128  0.12666577535593151  0.7402414477748065  1.0000
  O   O9        1.0  0.5265094828952  0.5505210105913037  0.8546484149643587  1.0000
  O   O10       1.0  0.47347677835185203  0.9494739340177103  0.3546448577304203  1.0000
  O   O11       1.0  0.47349102276302796  0.4494735367885453  0.14535091928149768  1.0000
  O   O12       1.0  0.526520348806926  0.050526762810683606  0.6453509443898893  1.0000
  O   O13       1.0  0.9478561332415862  0.22463345802776047  0.7195876225080438  1.0000
  O   O14       1.0  0.05218592556874311  0.2753628017880629  0.21957649417037559  1.0000
  O   O15       1.0  0.052149950403787705  0.7753673259367558  0.28041171173724416  1.0000
  O   O16       1.0  0.9478468706576775  0.7246289686144606  0.7804147666507644  1.0000
  O   O17       1.0  0.8567124644430918  0.004820602755373197  0.7420469148491831  1.0000
  O   O18       1.0  0.1432837342011197  0.49516896294197477  0.24204582426295923  1.0000
  O   O19       1.0  0.1432839295530428  0.9951759653955249  0.2579498964500999  1.0000
  O   O20       1.0  0.8567115600527728  0.5048214121875461  0.7579560329291934  1.0000
  O   O21       1.0  0.0275724533773811  0.06652523674737408  0.6495682663349098  1.0000
  O   O22       1.0  0.9724385557402613  0.43347298624066605  0.14956528288146123  1.0000
  O   O23       1.0  0.9724272926947819  0.933473424790094  0.35042753578587577  1.0000
  O   O24       1.0  0.027564542409663793  0.5665277686782275  0.85043304218523  1.0000
