data_image0
_chemical_formula_structural       Zn2H36C44N8O8
_chemical_formula_sum              "Zn2 H36 C44 N8 O8"
_cell_length_a       10.334052063685897
_cell_length_b       10.208467338176291
_cell_length_c       11.414477256346393
_cell_angle_alpha    75.43540936669224
_cell_angle_beta     83.10872770845995
_cell_angle_gamma    60.31937952057394

_space_group_name_H-M_alt    "P 1"
_space_group_IT_number       1

loop_
  _space_group_symop_operation_xyz
  'x, y, z'

loop_
  _atom_site_type_symbol
  _atom_site_label
  _atom_site_symmetry_multiplicity
  _atom_site_fract_x
  _atom_site_fract_y
  _atom_site_fract_z
  _atom_site_occupancy
  Zn  Zn1       1.0  0.872128170811152  0.6043950814816765  0.19006737761868925  1.0000
  Zn  Zn2       1.0  0.12787327063033874  0.395605549403875  0.8099334843606484  1.0000
  H   H1        1.0  0.3391655948779118  0.2613337550909306  0.13349388366002302  1.0000
  H   H2        1.0  0.6608363579153507  0.738665733323863  0.8665106866342782  1.0000
  H   H3        1.0  0.6142659032101534  0.13103162164994592  0.09978081234988417  1.0000
  H   H4        1.0  0.3857346290417709  0.8689667216611667  0.9002241650964534  1.0000
  H   H5        1.0  0.7586704371178712  0.26107278500200687  0.11456683996548382  1.0000
  H   H6        1.0  0.2413305611399751  0.7389266950684928  0.8854343279508612  1.0000
  H   H7        1.0  0.35667767807255757  0.6528067175340909  0.19032798093958556  1.0000
  H   H8        1.0  0.6433236837896672  0.34719621366510006  0.8096706185842635  1.0000
  H   H9        1.0  0.03947945609543524  0.6697957859601118  0.942788528586945  1.0000
  H   H10       1.0  0.9605200363362344  0.3302048528342709  0.05721165992420652  1.0000
  H   H11       1.0  0.6008220186726022  0.9286586732530111  0.05988501308289782  1.0000
  H   H12       1.0  0.399177382768663  0.07134427288285389  0.9401146647692683  1.0000
  H   H13       1.0  0.6454561529639591  0.09998388648750729  0.8422908320613515  1.0000
  H   H14       1.0  0.35454626012965923  0.9000167422005774  0.15771080460120152  1.0000
  H   H15       1.0  0.0442661763215356  0.829814836036192  0.7449313637730482  1.0000
  H   H16       1.0  0.9557332308252955  0.17018810658575487  0.2550674381808733  1.0000
  H   H17       1.0  0.9876233289006822  0.0083302206344555  0.7852662932447386  1.0000
  H   H18       1.0  0.012374572419972208  0.9916738807113817  0.21473152930398243  1.0000
  H   H19       1.0  0.8120609624471627  0.24390149419543405  0.6818771962380552  1.0000
  H   H20       1.0  0.18793945629078487  0.7561014216316405  0.31811624911135544  1.0000
  H   H21       1.0  0.6488629814076889  0.408676408514367  0.5003439373772878  1.0000
  H   H22       1.0  0.35113157318408383  0.5913265415809619  0.4996501152622983  1.0000
  H   H23       1.0  0.5998182446237692  0.2825668105960659  0.3625472933583325  1.0000
  H   H24       1.0  0.400174071227511  0.7174303994796674  0.6374517925592968  1.0000
  H   H25       1.0  0.7117637546139619  0.9990894329197461  0.405268851242397  1.0000
  H   H26       1.0  0.2882349424408376  0.0009065969030572982  0.5947324598017686  1.0000
  H   H27       1.0  0.015367200457710332  0.7306102727931075  0.588413117079881  1.0000
  H   H28       1.0  0.9846328261480082  0.2693892094748449  0.4115872761532485  1.0000
  H   H29       1.0  0.8702661696752403  0.7377496187708062  0.6896625824586096  1.0000
  H   H30       1.0  0.12973526606067765  0.2622510156286637  0.3103391554189727  1.0000
  H   H31       1.0  0.010785522385177323  0.6877558024301462  0.3773403836432366  1.0000
  H   H32       1.0  0.9892165385152083  0.3122413681014109  0.6226620696153162  1.0000
  H   H33       1.0  0.6066799668477146  0.6772206013141754  0.39098496752968265  1.0000
  H   H34       1.0  0.3933185482262616  0.3227800431915854  0.6090153221964982  1.0000
  H   H35       1.0  0.6344994514054746  0.755515891750733  0.6011709117703248  1.0000
  H   H36       1.0  0.3655005637891124  0.24448359754505578  0.39883123325930103  1.0000
  C   C1        1.0  0.16479891381615644  0.5494600854039574  0.18164002995007417  1.0000
  C   C2        1.0  0.835201544562068  0.4505405547068832  0.8183618091425373  1.0000
  C   C3        1.0  0.33042536193259053  0.4651074730251636  0.16487358655471243  1.0000
  C   C4        1.0  0.669573681609869  0.5348920184680849  0.835127783791698  1.0000
  C   C5        1.0  0.40386128235849134  0.31689332535857767  0.14055208044270273  1.0000
  C   C6        1.0  0.5961392555990062  0.6831050144386168  0.8594520211053974  1.0000
  C   C7        1.0  0.5575240577710405  0.24424002834266637  0.12201720494874017  1.0000
  C   C8        1.0  0.44247648018644986  0.755758311454528  0.87798689659936  1.0000
  C   C9        1.0  0.6389563195305001  0.31733926089100345  0.12965166915230242  1.0000
  C   C10       1.0  0.3610441445532971  0.6826613757059262  0.8703492940420645  1.0000
  C   C11       1.0  0.5672318221679475  0.4640588833854481  0.1567203622337416  1.0000
  C   C12       1.0  0.43277167068491446  0.5359394252219545  0.8432799320762783  1.0000
  C   C13       1.0  0.41298623015291014  0.5375204882021335  0.17218695110864962  1.0000
  C   C14       1.0  0.5870132622787594  0.4624801505922492  0.827813237402502  1.0000
  C   C15       1.0  0.6511109796350283  0.5431859559526089  0.17305255151773474  1.0000
  C   C16       1.0  0.34888834222696374  0.4568192904969024  0.8269448638789427  1.0000
  C   C17       1.0  0.9267795089024702  0.7626064035434296  0.9484541200549544  1.0000
  C   C18       1.0  0.07322042671284383  0.23739538606601224  0.05154576251918291  1.0000
  C   C19       1.0  0.6985634581391483  0.9025007759250697  0.003376065664184681  1.0000
  C   C20       1.0  0.30143603429252147  0.09749986286931289  0.9966241228469741  1.0000
  C   C21       1.0  0.7198526302032063  0.986335615713081  0.8954570653959307  1.0000
  C   C22       1.0  0.28014774859574487  0.013667324711413199  0.10454251124119911  1.0000
  C   C23       1.0  0.9472817273368648  0.9383537823550582  0.7587736414805519  1.0000
  C   C24       1.0  0.052716702452265514  0.061649165978266786  0.24122526168839187  1.0000
  C   C25       1.0  0.8519684132761044  0.0301680603821595  0.6465279287036907  1.0000
  C   C26       1.0  0.14803056209822082  0.9698337243969064  0.35346942739074183  1.0000
  C   C27       1.0  0.7890269144369596  0.1913056054755273  0.6203059112882626  1.0000
  C   C28       1.0  0.21097349859541475  0.8086973138654584  0.37968840995939246  1.0000
  C   C29       1.0  0.6977578206958768  0.28314861401344865  0.5189725634912818  1.0000
  C   C30       1.0  0.3022402854278784  0.7168508585937656  0.48102277678243877  1.0000
  C   C31       1.0  0.6700540777953988  0.21284953155188896  0.44234456877178724  1.0000
  C   C32       1.0  0.329942147486662  0.7871476556783463  0.5576541122857179  1.0000
  C   C33       1.0  0.7337412169201726  0.0520142222618531  0.4669151186021878  1.0000
  C   C34       1.0  0.2662565141880648  0.9479818062444921  0.5330845418605179  1.0000
  C   C35       1.0  0.8241467141991591  0.9589714111832709  0.5689199015147894  1.0000
  C   C36       1.0  0.1758533124065593  0.0410280710846891  0.4310804917183404  1.0000
  C   C37       1.0  0.8933675982185603  0.7843344073093306  0.5965999695623552  1.0000
  C   C38       1.0  0.10663393421334177  0.2156639162347389  0.4034014030759749  1.0000
  C   C39       1.0  0.9062275131212233  0.6921524130033703  0.4103487565598555  1.0000
  C   C40       1.0  0.09377508765878424  0.307843597487846  0.5896530255224306  1.0000
  C   C41       1.0  0.6957329291010125  0.6877778880724179  0.42145860591709555  1.0000
  C   C42       1.0  0.30426999534437743  0.3122215981449159  0.5785467390604211  1.0000
  C   C43       1.0  0.7072836076628736  0.728330433347608  0.5241868872846921  1.0000
  C   C44       1.0  0.2927195558190335  0.27166440304759487  0.47581072002834895  1.0000
  N   N1        1.0  0.8280017781253336  0.7641828242950055  0.03532001884330778  1.0000
  N   N2        1.0  0.17199966902172298  0.2358178030766282  0.964679967237785  1.0000
  N   N3        1.0  0.8650568626966121  0.8951564283239151  0.8620207926699521  1.0000
  N   N4        1.0  0.13494201027616273  0.1048476708244621  0.1379778045619844  1.0000
  N   N5        1.0  0.8412666080306296  0.7299057105989917  0.5157557746763145  1.0000
  N   N6        1.0  0.15873403232841102  0.2700903148288916  0.4842470857342818  1.0000
  N   N7        1.0  0.8208903420947352  0.6653381032354345  0.35121971557387616  1.0000
  N   N8        1.0  0.17911021868503957  0.3346602225060948  0.6487808823812315  1.0000
  O   O1        1.0  0.10219059092015216  0.6862897023724698  0.19447030806056625  1.0000
  O   O2        1.0  0.89780890721709  0.3137109329080019  0.8055290045523407  1.0000
  O   O3        1.0  0.09493805992316602  0.4729686421954041  0.18127514950824522  1.0000
  O   O4        1.0  0.9050639156923806  0.5270308321637175  0.8187259171930705  1.0000
  O   O5        1.0  0.7957634941893376  0.4599288216142626  0.18016214618097587  1.0000
  O   O6        1.0  0.20423894172655838  0.5400717930181571  0.8198359868885916  1.0000
  O   O7        1.0  0.5823078025444132  0.6817268752536165  0.18188189146479775  1.0000
  O   O8        1.0  0.4176957074251604  0.3182714228120318  0.8181157751504884  1.0000
