data_image0
_chemical_formula_structural       Cd4H24C16N8O28
_chemical_formula_sum              "Cd4 H24 C16 N8 O28"
_cell_length_a       7.269065430082877
_cell_length_b       7.298193190074747
_cell_length_c       14.617553453138836
_cell_angle_alpha    89.9996712513724
_cell_angle_beta     89.99962541538784
_cell_angle_gamma    90.00040065110281

_space_group_name_H-M_alt    "P 1"
_space_group_IT_number       1

loop_
  _space_group_symop_operation_xyz
  'x, y, z'

loop_
  _atom_site_type_symbol
  _atom_site_label
  _atom_site_symmetry_multiplicity
  _atom_site_fract_x
  _atom_site_fract_y
  _atom_site_fract_z
  _atom_site_occupancy
  Cd  Cd1       1.0  0.9473487643056303  0.0037372928600234  0.2066520622348804  1.0000
  Cd  Cd2       1.0  0.5526489507142075  0.9962650161716976  0.706648759406072  1.0000
  Cd  Cd3       1.0  0.05264483077814219  0.5037327723826124  0.2933492380237866  1.0000
  Cd  Cd4       1.0  0.44734973215308566  0.4962623159952599  0.7933502037334464  1.0000
  H   H1        1.0  0.31772921617007915  0.5979092777182301  0.0160245647491166  1.0000
  H   H2        1.0  0.18226351511538752  0.40209035479586663  0.5160205002602467  1.0000
  H   H3        1.0  0.6822746688847731  0.0979142559045201  0.48397714869864933  1.0000
  H   H4        1.0  0.8177248777890541  0.9020793984040906  0.9839746291510354  1.0000
  H   H5        1.0  0.4525710758240606  0.7959148318620707  0.031485609982148305  1.0000
  H   H6        1.0  0.047426953537936405  0.20408873429208535  0.5314880232890644  1.0000
  H   H7        1.0  0.5474204401684801  0.29590945488020987  0.46851690214729313  1.0000
  H   H8        1.0  0.952577935480747  0.7040857465722041  0.9685131485160813  1.0000
  H   H9        1.0  0.6408886753969584  0.5209844222060553  0.03237846365018271  1.0000
  H   H10       1.0  0.859109970815176  0.47901714089655195  0.5323831844288165  1.0000
  H   H11       1.0  0.3591160461499285  0.020979112026985502  0.46761799821651107  1.0000
  H   H12       1.0  0.1408885911535194  0.9790194627344277  0.9676185647539413  1.0000
  H   H13       1.0  0.4530613841792715  0.2891013645293654  0.09394207006019432  1.0000
  H   H14       1.0  0.04693169138369771  0.710905597443272  0.5939396065382497  1.0000
  H   H15       1.0  0.5469369624807713  0.7890866704359851  0.40606114577985153  1.0000
  H   H16       1.0  0.9530608641962743  0.21090239478228057  0.9060594933511015  1.0000
  H   H17       1.0  0.4105220140200458  0.41192696065901646  0.1894305815985078  1.0000
  H   H18       1.0  0.0894821787695506  0.5880843893214872  0.6894276499084812  1.0000
  H   H19       1.0  0.5894826963540964  0.9119081753926038  0.3105695444881817  1.0000
  H   H20       1.0  0.9105218971521507  0.08808335291440979  0.8105704350414485  1.0000
  H   H21       1.0  0.6202062630189218  0.3216300983934132  0.17226197328559323  1.0000
  H   H22       1.0  0.8797960342919423  0.678373974415841  0.6722633173899554  1.0000
  H   H23       1.0  0.3797936873701317  0.8216233558726171  0.3277411489701692  1.0000
  H   H24       1.0  0.12020454740451922  0.17837544952988074  0.8277399807123305  1.0000
  C   C1        1.0  0.27029634868362956  0.732340296777096  0.14160770689020552  1.0000
  C   C2        1.0  0.22971535560542114  0.26765789855369343  0.6416004553766542  1.0000
  C   C3        1.0  0.729713981470617  0.23236485575068141  0.3583977244766318  1.0000
  C   C4        1.0  0.7702941060257729  0.767630235813726  0.8583950607251866  1.0000
  C   C5        1.0  0.40087463607789425  0.6733813839006259  0.06643221015831811  1.0000
  C   C6        1.0  0.09912568207585082  0.32662041211896314  0.5664320517511285  1.0000
  C   C7        1.0  0.5991270266043642  0.17338361856273105  0.4335686020893306  1.0000
  C   C8        1.0  0.9008773144504119  0.8266160934847446  0.9335660311554863  1.0000
  C   C9        1.0  0.5644040052212916  0.5575312002068243  0.09479458817192923  1.0000
  C   C10       1.0  0.9355993175473287  0.44247238898806523  0.5947977989027606  1.0000
  C   C11       1.0  0.43559959679646454  0.057527137904685284  0.40520382089346907  1.0000
  C   C12       1.0  0.06440311532251292  0.9424707809605333  0.9052047395109072  1.0000
  C   C13       1.0  0.7069875861138614  0.65129290246238  0.15735530785782006  1.0000
  C   C14       1.0  0.7930149084930208  0.3487099707257925  0.65736061688105  1.0000
  C   C15       1.0  0.29300841896390745  0.15128445087317027  0.3426407791897007  1.0000
  C   C16       1.0  0.20698411582159076  0.8487182945942421  0.84263945479929  1.0000
  N   N1        1.0  0.5080244525820133  0.38161049079176473  0.14000769658481726  1.0000
  N   N2        1.0  0.9919741446225173  0.6183925809534968  0.6400074828109156  1.0000
  N   N3        1.0  0.49197729393487327  0.8816027915190571  0.359993884915312  1.0000
  N   N4        1.0  0.008020513895011998  0.11839564475828719  0.8599925672925725  1.0000
  N   N5        1.0  0.0020090780682125  0.29939972121202635  0.07290437906976172  1.0000
  N   N6        1.0  0.4979842759664593  0.7005992603318842  0.5728998047514937  1.0000
  N   N7        1.0  0.9979838380832788  0.7994016348946998  0.42709607069547684  1.0000
  N   N8        1.0  0.5020068317277477  0.2006008915799598  0.9270945360167886  1.0000
  O   O1        1.0  0.14867879290537897  0.8476151094400491  0.11889258190885242  1.0000
  O   O2        1.0  0.3513263336131515  0.15238745643179646  0.6188873216503055  1.0000
  O   O3        1.0  0.8513117098316629  0.3476334057518287  0.38111525434224813  1.0000
  O   O4        1.0  0.6486974527075305  0.6523682768734459  0.8811051054513896  1.0000
  O   O5        1.0  0.2874573304944974  0.6589189891070004  0.22121139312854154  1.0000
  O   O6        1.0  0.21255607140297172  0.3410728143737599  0.7212046699390271  1.0000
  O   O7        1.0  0.712556612092591  0.1589415990213681  0.2787935653256994  1.0000
  O   O8        1.0  0.7874566563291127  0.8410722162599028  0.7787872143925156  1.0000
  O   O9        1.0  0.7023699444029249  0.8240081971466393  0.16441849241416412  1.0000
  O   O10       1.0  0.7976379594543772  0.1759945952055944  0.6644270197784579  1.0000
  O   O11       1.0  0.2976313983881909  0.3240025990203819  0.33557915012494294  1.0000
  O   O12       1.0  0.20236810830253657  0.6759933762684227  0.8355797057082699  1.0000
  O   O13       1.0  0.820623305598268  0.5408931681244694  0.19284206979347124  1.0000
  O   O14       1.0  0.6793773435806898  0.45910244794824695  0.6928405870686306  1.0000
  O   O15       1.0  0.17939806376395503  0.040874738624260894  0.307154334796877  1.0000
  O   O16       1.0  0.3206155761067252  0.9591160812191715  0.807155062411326  1.0000
  O   O17       1.0  0.1152226440631239  0.3003684677142289  0.13953846466768033  1.0000
  O   O18       1.0  0.3847657008938087  0.6996489340336324  0.6395335745436412  1.0000
  O   O19       1.0  0.8847634004033794  0.8003785753863041  0.3604681392913066  1.0000
  O   O20       1.0  0.6152254000595079  0.19963430505075758  0.860464189526738  1.0000
  O   O21       1.0  0.874526592321594  0.1773794130869604  0.0727273299950539  1.0000
  O   O22       1.0  0.6254811496207678  0.8226134670765929  0.5727277120749719  1.0000
  O   O23       1.0  0.1254558386826901  0.6773738678634159  0.427270050249284  1.0000
  O   O24       1.0  0.37452044313955213  0.32261420695152043  0.9272710664617847  1.0000
  O   O25       1.0  0.013236921942791502  0.4101042429531461  0.0082333248166648  1.0000
  O   O26       1.0  0.4867462826463012  0.5899009595020958  0.5082297893125727  1.0000
  O   O27       1.0  0.9867677757170981  0.9101121891928659  0.49177159523777914  1.0000
  O   O28       1.0  0.5132371705832027  0.0898937077411901  0.9917703427811732  1.0000
