data_image0
_chemical_formula_structural       Pr4H64C84N12O56
_chemical_formula_sum              "Pr4 H64 C84 N12 O56"
_cell_length_a       9.637140838870314
_cell_length_b       15.217563536700682
_cell_length_c       23.539785004157608
_cell_angle_alpha    90.00011942385997
_cell_angle_beta     89.9995868841697
_cell_angle_gamma    100.28609569111845

_space_group_name_H-M_alt    "P 1"
_space_group_IT_number       1

loop_
  _space_group_symop_operation_xyz
  'x, y, z'

loop_
  _atom_site_type_symbol
  _atom_site_label
  _atom_site_symmetry_multiplicity
  _atom_site_fract_x
  _atom_site_fract_y
  _atom_site_fract_z
  _atom_site_occupancy
  Pr  Pr1       1.0  0.5140623178603931  0.5978217799496405  0.26289542668096283  1.0000
  Pr  Pr2       1.0  0.9859254391247563  0.4021695048106011  0.7628970468348156  1.0000
  Pr  Pr3       1.0  0.48593139102340643  0.40217826799767653  0.7371014506999245  1.0000
  Pr  Pr4       1.0  0.014073698198416223  0.5978232849694863  0.23710365384766158  1.0000
  H   H1        1.0  0.4195870293400859  0.3479416895422674  0.2667182854411578  1.0000
  H   H2        1.0  0.08040263227650976  0.6520583904370484  0.7667180312976497  1.0000
  H   H3        1.0  0.5804246868033262  0.6520638995512584  0.733278167104423  1.0000
  H   H4        1.0  0.919577205953026  0.3479401602188902  0.2332801205406554  1.0000
  H   H5        1.0  0.4459940106443484  0.19067494082788983  0.2433644861898472  1.0000
  H   H6        1.0  0.05399397585842542  0.8093250852846127  0.7433683453745487  1.0000
  H   H7        1.0  0.5540137378016468  0.8093272721666338  0.7566353648609762  1.0000
  H   H8        1.0  0.9459863691689565  0.1906754686335148  0.2566340545915295  1.0000
  H   H9        1.0  0.1074981561137562  0.17412894640840904  0.122042706490717  1.0000
  H   H10       1.0  0.3924986968674134  0.8258730070872391  0.6220447483506533  1.0000
  H   H11       1.0  0.8925087202924686  0.8258739218945054  0.8779575693745442  1.0000
  H   H12       1.0  0.6075007236527128  0.17412910635232487  0.37796402377932026  1.0000
  H   H13       1.0  0.07848792782202452  0.3293474017637551  0.1468795293548837  1.0000
  H   H14       1.0  0.4215036527467575  0.6706518617574203  0.6468800019281389  1.0000
  H   H15       1.0  0.9215232814717352  0.6706561840712624  0.8531186224409452  1.0000
  H   H16       1.0  0.5784888188072372  0.32935150007228486  0.353127495774693  1.0000
  H   H17       1.0  0.5815120704070651  0.8311148883174655  0.2305285802150223  1.0000
  H   H18       1.0  0.9184840442033249  0.16887844665382806  0.7305292323853649  1.0000
  H   H19       1.0  0.4184915141148552  0.16888727489681093  0.7694712708418621  1.0000
  H   H20       1.0  0.08152913278566135  0.8311165081660905  0.2694625472110062  1.0000
  H   H21       1.0  0.5545849178136422  0.9882602132276831  0.2080535843501963  1.0000
  H   H22       1.0  0.9454155560549042  0.011736469954733804  0.7080522458970365  1.0000
  H   H23       1.0  0.4454190045722726  0.0117432854948021  0.7919492403961071  1.0000
  H   H24       1.0  0.05459050300819969  0.9882590655032003  0.2919399585228533  1.0000
  H   H25       1.0  0.967827157717217  0.03575668894352191  0.1318570773031453  1.0000
  H   H26       1.0  0.5321717169993293  0.9642365360326935  0.6318565369833067  1.0000
  H   H27       1.0  0.03217988760065544  0.9642468471149429  0.8681470218767656  1.0000
  H   H28       1.0  0.4678208092402087  0.0357588376444369  0.3681437388978708  1.0000
  H   H29       1.0  0.9965888815605554  0.8804715646490423  0.1562715934506329  1.0000
  H   H30       1.0  0.5034067827364481  0.11952298879395332  0.6562712688487622  1.0000
  H   H31       1.0  0.003414196122811601  0.11952859530594401  0.8437286824183516  1.0000
  H   H32       1.0  0.4965910900344214  0.8804771089362474  0.3437298566532263  1.0000
  H   H33       1.0  0.23299974754986869  0.8348199381243477  0.1303004794607148  1.0000
  H   H34       1.0  0.2669961988286715  0.16516670462585378  0.6302956223254483  1.0000
  H   H35       1.0  0.7669892905120861  0.16517805678765282  0.8697036197417773  1.0000
  H   H36       1.0  0.7330060887932818  0.8348221284122134  0.36969998059715437  1.0000
  H   H37       1.0  0.3769847912034905  0.9659858043128651  0.081769328137554  1.0000
  H   H38       1.0  0.12300083323623313  0.034009964971552606  0.5817591921430463  1.0000
  H   H39       1.0  0.6230026443829503  0.0340181630452463  0.918239019198488  1.0000
  H   H40       1.0  0.876998304175757  0.9659828248022109  0.4182313130342479  1.0000
  H   H41       1.0  0.7040423691763209  0.8127793793671858  0.049936254946104  1.0000
  H   H42       1.0  0.7959534633011033  0.18723299679825092  0.5499457865823558  1.0000
  H   H43       1.0  0.29594914848166815  0.187236619987516  0.9500627465123515  1.0000
  H   H44       1.0  0.2040475323758173  0.8127671382697699  0.4500595870422472  1.0000
  H   H45       1.0  0.5643963323375516  0.6836599275982069  0.1035609057720066  1.0000
  H   H46       1.0  0.935613417740811  0.31633738079981555  0.6035753013680747  1.0000
  H   H47       1.0  0.4356056771089882  0.3163442139818073  0.8964329979104946  1.0000
  H   H48       1.0  0.06439387841895441  0.683654840792329  0.39643304593097634  1.0000
  H   H49       1.0  0.4688549808324184  0.4991909046731066  0.37154892480234025  1.0000
  H   H50       1.0  0.031139634412539856  0.5008073892428725  0.8715464860599909  1.0000
  H   H51       1.0  0.5311552421806667  0.5008046805632276  0.6284403059224886  1.0000
  H   H52       1.0  0.9688459429015667  0.4991892328215073  0.1284478424541717  1.0000
  H   H53       1.0  0.5212954263473648  0.6003915248558797  0.3822537721983963  1.0000
  H   H54       1.0  0.9786976523010225  0.39960865102982984  0.882254560404597  1.0000
  H   H55       1.0  0.478701094897204  0.3996032308464664  0.6177435299875071  1.0000
  H   H56       1.0  0.021295887600814477  0.6003907291669394  0.1177465651032392  1.0000
  H   H57       1.0  0.6713578009929223  0.4988189638246042  0.18335744486604708  1.0000
  H   H58       1.0  0.8286446509390617  0.5011797044191867  0.6833588093999765  1.0000
  H   H59       1.0  0.32864043699766654  0.5011784753366016  0.8166415565700262  1.0000
  H   H60       1.0  0.17135738574107512  0.4988204430923205  0.31664401534681724  1.0000
  H   H61       1.0  0.5685228871570022  0.5384256175575147  0.1419247882405443  1.0000
  H   H62       1.0  0.931475392349725  0.461578266625871  0.6419219751001464  1.0000
  H   H63       1.0  0.43148052843847035  0.4615758779022557  0.8580729387525565  1.0000
  H   H64       1.0  0.06850931289870497  0.53841901074874  0.35807575191746105  1.0000
  C   C1        1.0  0.22336621388465266  0.4383244923807723  0.2259119736807378  1.0000
  C   C2        1.0  0.2766300939756404  0.5616702820539456  0.7259135721870963  1.0000
  C   C3        1.0  0.7766460363901261  0.5616791058993088  0.7740861781135778  1.0000
  C   C4        1.0  0.7233598161223825  0.4383270575499268  0.2740905270136764  1.0000
  C   C5        1.0  0.24719739614177166  0.3476628754794008  0.20843763124142362  1.0000
  C   C6        1.0  0.25279066476449685  0.6523390981052514  0.7084377228782088  1.0000
  C   C7        1.0  0.7528122380248022  0.6523426887250494  0.7915605205580505  1.0000
  C   C8        1.0  0.7472019757677515  0.34766493147527205  0.29156595151038533  1.0000
  C   C9        1.0  0.3518621315993613  0.30924578335373104  0.23527584513975336  1.0000
  C   C10       1.0  0.1481252927598007  0.6907555557814575  0.7352771445146615  1.0000
  C   C11       1.0  0.6481513285976848  0.690758495124861  0.764722731465973  1.0000
  C   C12       1.0  0.8518602571726819  0.3092450603619739  0.2647252554438495  1.0000
  C   C13       1.0  0.36679785223815037  0.22224254607807134  0.2226142214432727  1.0000
  C   C14       1.0  0.13319519386465117  0.7777555132511863  0.7226173814548674  1.0000
  C   C15       1.0  0.6332078142680116  0.7777596420247478  0.777383080734289  1.0000
  C   C16       1.0  0.8667941821057071  0.22224381716586816  0.2773845936844594  1.0000
  C   C17       1.0  0.2766168940157669  0.17517219817446517  0.18229874512021377  1.0000
  C   C18       1.0  0.22337181853670532  0.8248264166553839  0.6823008554244864  1.0000
  C   C19       1.0  0.7233866904987494  0.8248299650403367  0.8177019555621  1.0000
  C   C20       1.0  0.7766175574151504  0.17517291376298524  0.31770324377842474  1.0000
  C   C21       1.0  0.1752012486343446  0.21281660304851607  0.1533980602116713  1.0000
  C   C22       1.0  0.32478796743900773  0.7871819759193954  0.6534006725771562  1.0000
  C   C23       1.0  0.8248054588306319  0.7871855975009512  0.8466017908406727  1.0000
  C   C24       1.0  0.675206951293042  0.21281875223170493  0.34660512586945197  1.0000
  C   C25       1.0  0.16010708313881136  0.29936591393364853  0.1672113511056921  1.0000
  C   C26       1.0  0.3398898549415605  0.7006354403013688  0.6672112533399002  1.0000
  C   C27       1.0  0.8399034230638236  0.7006389949626809  0.8327868006920625  1.0000
  C   C28       1.0  0.6601083283745838  0.29936998701162304  0.3327936954796797  1.0000
  C   C29       1.0  0.8072907296633858  0.7520200779695047  0.20666986476513927  1.0000
  C   C30       1.0  0.6927071794848415  0.2479745753484437  0.7066721339546262  1.0000
  C   C31       1.0  0.19270975923048897  0.24797805383527569  0.7933295614808314  1.0000
  C   C32       1.0  0.3073023403631084  0.7520223329544679  0.2933255930264451  1.0000
  C   C33       1.0  0.7906219518145434  0.8463163257674539  0.1945224333192428  1.0000
  C   C34       1.0  0.7093756894479029  0.1536723151435524  0.6945249509854249  1.0000
  C   C35       1.0  0.2093837419955378  0.15368186826184174  0.8054757184810057  1.0000
  C   C36       1.0  0.2906247994348732  0.8463258166620166  0.3054757496986937  1.0000
  C   C37       1.0  0.6657500611863939  0.8762906986907667  0.20910305825244543  1.0000
  C   C38       1.0  0.8342505906200941  0.12370265947546241  0.7091055949361403  1.0000
  C   C39       1.0  0.3342583903470242  0.12371019124271498  0.7908972176091709  1.0000
  C   C40       1.0  0.1657531902025013  0.8762961774147869  0.2908891583656086  1.0000
  C   C41       1.0  0.650237168051156  0.9635140329522403  0.1970040489811069  1.0000
  C   C42       1.0  0.8497636672565109  0.036483304273474515  0.6970047230341335  1.0000
  C   C43       1.0  0.34976987728151704  0.0364895031051731  0.8029983509479379  1.0000
  C   C44       1.0  0.15023977566877988  0.963514197110932  0.30299087989264  1.0000
  C   C45       1.0  0.7603430564420323  0.019515507179598005  0.1694596673043947  1.0000
  C   C46       1.0  0.7396589618673418  0.9804804728044446  0.6694585420807257  1.0000
  C   C47       1.0  0.23966657769493346  0.9804900570269625  0.8305418829968048  1.0000
  C   C48       1.0  0.2603380935307912  0.0195122920828865  0.3305379104776165  1.0000
  C   C49       1.0  0.8846097962092045  0.9909713939855961  0.1538202377819644  1.0000
  C   C50       1.0  0.6153935355505951  0.0090245790375931  0.6538202857653203  1.0000
  C   C51       1.0  0.1153979522108841  0.009030819010767702  0.8461825869578732  1.0000
  C   C52       1.0  0.3846057434025099  0.9909728725699909  0.346180839732817  1.0000
  C   C53       1.0  0.8999338273918056  0.9042404427709487  0.1672718513501223  1.0000
  C   C54       1.0  0.6000599011752357  0.09575543493861721  0.6672720615111132  1.0000
  C   C55       1.0  0.10007046021012658  0.0957603973828114  0.8327292741429844  1.0000
  C   C56       1.0  0.3999379715956337  0.9042446627915836  0.3327290639908753  1.0000
  C   C57       1.0  0.31039012373692293  0.6764837572300736  0.1545383734906167  1.0000
  C   C58       1.0  0.18961927090853686  0.3235044128949268  0.6545437276097913  1.0000
  C   C59       1.0  0.6896101962268021  0.3235137068204637  0.8454593535042818  1.0000
  C   C60       1.0  0.810383016646803  0.6764844201478865  0.3454595219416987  1.0000
  C   C61       1.0  0.3897691277171519  0.7512106278418857  0.1195694244279508  1.0000
  C   C62       1.0  0.11023252104752859  0.2487813934024103  0.6195715111353763  1.0000
  C   C63       1.0  0.6102207824252802  0.24878671175882525  0.8804295770202302  1.0000
  C   C64       1.0  0.889771652232085  0.7512107908500738  0.380429614352046  1.0000
  C   C65       1.0  0.3360762332099938  0.8302989497634172  0.1127423912949581  1.0000
  C   C66       1.0  0.1639264065636682  0.1696924076992232  0.6127412402619825  1.0000
  C   C67       1.0  0.6639205985835518  0.169701135521457  0.8872583093958326  1.0000
  C   C68       1.0  0.8360781319356649  0.8302971179842658  0.3872577611595247  1.0000
  C   C69       1.0  0.4159990631602285  0.9035124581917273  0.0856664606752346  1.0000
  C   C70       1.0  0.08399254295019891  0.09648671692413302  0.5856633203142891  1.0000
  C   C71       1.0  0.5839902581800943  0.09649486037393731  0.9143363640950072  1.0000
  C   C72       1.0  0.9160060602601091  0.9035080636680775  0.4143335570558691  1.0000
  C   C73       1.0  0.5474606147173944  0.8950055438096384  0.063883565841131  1.0000
  C   C74       1.0  0.952527039515978  0.10500009745408792  0.5638827575557812  1.0000
  C   C75       1.0  0.45252609050731973  0.1050037406809281  0.9361201085596988  1.0000
  C   C76       1.0  0.04747015750099595  0.8949973292615285  0.436115394256376  1.0000
  C   C77       1.0  0.6009966615925393  0.815945302692036  0.0678584066477441  1.0000
  C   C78       1.0  0.8990018399722859  0.1840624712185459  0.5678646589041492  1.0000
  C   C79       1.0  0.3990012981967297  0.18406744501296401  0.9321418692372418  1.0000
  C   C80       1.0  0.10100039296412432  0.8159343499720961  0.43213816584010795  1.0000
  C   C81       1.0  0.5222440389222385  0.7446251511743756  0.0969632423681759  1.0000
  C   C82       1.0  0.9777578088923491  0.2553773790525895  0.5969710600139777  1.0000
  C   C83       1.0  0.47775237306966284  0.25538558082469365  0.9030349094541279  1.0000
  C   C84       1.0  0.02224599915274438  0.7446174637699414  0.40303388879021906  1.0000
  N   N1        1.0  0.2841398091528191  0.08114805883865732  0.1712229533838041  1.0000
  N   N2        1.0  0.21585252988545983  0.9188559091634333  0.6712256377123822  1.0000
  N   N3        1.0  0.7158649852950704  0.918854784573867  0.8287768976717729  1.0000
  N   N4        1.0  0.7841376908096508  0.08114676001954281  0.3287763374279677  1.0000
  N   N5        1.0  0.7469594249414585  0.1129642729807827  0.1581130024503423  1.0000
  N   N6        1.0  0.753046448161861  0.8870297394429515  0.6581100123918731  1.0000
  N   N7        1.0  0.2530500675470718  0.8870366293995957  0.8418902470987746  1.0000
  N   N8        1.0  0.24694920103553394  0.1129656715683112  0.34188856423389774  1.0000
  N   N9        1.0  0.6358055171228044  0.9731376525742094  0.0375977778833914  1.0000
  N   N10       1.0  0.8641832981820843  0.026866633009774404  0.5375954230380486  1.0000
  N   N11       1.0  0.3641860551097055  0.02687035863582571  0.9624067461348885  1.0000
  N   N12       1.0  0.13580728775124845  0.9731333776028921  0.4624023039728087  1.0000
  O   O1        1.0  0.3034132930107206  0.4795557030812462  0.264876556437514  1.0000
  O   O2        1.0  0.19658076085625  0.5204410980733484  0.7648783332963873  1.0000
  O   O3        1.0  0.6965901225847518  0.5204457923785241  0.7351211705555799  1.0000
  O   O4        1.0  0.8034079393380082  0.4795555613306988  0.23512321702940403  1.0000
  O   O5        1.0  0.12168390296136522  0.4688523524570272  0.2037488140227168  1.0000
  O   O6        1.0  0.37830876876254393  0.5311470065218771  0.7037487993842008  1.0000
  O   O7        1.0  0.878321425651194  0.5311485001396791  0.7962489129671441  1.0000
  O   O8        1.0  0.6216865152040328  0.4688510630591765  0.2962531757456333  1.0000
  O   O9        1.0  0.34995853891753376  0.04231715887285499  0.2055260328572928  1.0000
  O   O10       1.0  0.15004223337923153  0.9576856281966569  0.7055323607250371  1.0000
  O   O11       1.0  0.6500495474146675  0.9576863896283003  0.794474243006654  1.0000
  O   O12       1.0  0.8499488593371467  0.04231638567924991  0.2944713136644523  1.0000
  O   O13       1.0  0.22138396356118767  0.04504799469650322  0.128788903359343  1.0000
  O   O14       1.0  0.2786068912017328  0.9549512339320999  0.6287906033469497  1.0000
  O   O15       1.0  0.7786211687802975  0.9549561842221267  0.8712105228839206  1.0000
  O   O16       1.0  0.7213852698254827  0.04504679831349991  0.3712109469747134  1.0000
  O   O17       1.0  0.6966458922691033  0.694126613308093  0.2156093213968688  1.0000
  O   O18       1.0  0.8033591207069578  0.30587213229064514  0.7156092212143932  1.0000
  O   O19       1.0  0.3033637692013827  0.3058749568228408  0.7843896800252921  1.0000
  O   O20       1.0  0.1966441532807863  0.6941247013400512  0.2843855320867448  1.0000
  O   O21       1.0  0.9309806097369916  0.7337578132337654  0.20686551018174268  1.0000
  O   O22       1.0  0.569019546895106  0.2662375329712958  0.7068694402974388  1.0000
  O   O23       1.0  0.0690242120185118  0.2662410361049723  0.7931347656838098  1.0000
  O   O24       1.0  0.43098805992465844  0.7337600181954685  0.2931295611250064  1.0000
  O   O25       1.0  0.6394640195439794  0.1387918235792966  0.1753189417503762  1.0000
  O   O26       1.0  0.8605404855125512  0.861206191822646  0.675313903087023  1.0000
  O   O27       1.0  0.3605499474657138  0.8612144581604327  0.824682183732257  1.0000
  O   O28       1.0  0.1394508308713327  0.13878850165123421  0.3246783013538632  1.0000
  O   O29       1.0  0.8454560663351601  0.16141286247777495  0.1330404446827274  1.0000
  O   O30       1.0  0.654548668464635  0.8385830972037879  0.6330381019865996  1.0000
  O   O31       1.0  0.15456175400892397  0.8385881394625729  0.8669619552288524  1.0000
  O   O32       1.0  0.3454346578758702  0.16141283222203384  0.3669638731592713  1.0000
  O   O33       1.0  0.3819285570109373  0.6252693522500011  0.1794551992636642  1.0000
  O   O34       1.0  0.11807314392692804  0.3747147676068324  0.6794646552402241  1.0000
  O   O35       1.0  0.6180670649047499  0.37473005283320043  0.820539978863124  1.0000
  O   O36       1.0  0.8819297050858952  0.6252680805474428  0.3205385943063916  1.0000
  O   O37       1.0  0.1770522896943163  0.6694233522009158  0.1587781946207301  1.0000
  O   O38       1.0  0.3229568348664672  0.33056814950318625  0.6587789201651617  1.0000
  O   O39       1.0  0.8229414464896935  0.3305727016731481  0.8412199571955555  1.0000
  O   O40       1.0  0.6770553010748941  0.6694267928764148  0.34122050606161025  1.0000
  O   O41       1.0  0.6028657329008668  0.047397697722665603  0.0462102776350903  1.0000
  O   O42       1.0  0.8971225671775473  0.9526092571141405  0.5462048307927816  1.0000
  O   O43       1.0  0.3971332678287141  0.9526150624302899  0.9537946711882553  1.0000
  O   O44       1.0  0.1028621380782866  0.047388020259944603  0.4537920465993963  1.0000
  O   O45       1.0  0.7389721353408165  0.9610064035929755  0.009130069079844799  1.0000
  O   O46       1.0  0.7610155734970833  0.03900381911022071  0.5091288820326199  1.0000
  O   O47       1.0  0.2610131910092833  0.039001532946421905  0.9908740301348048  1.0000
  O   O48       1.0  0.23898260987087375  0.9610016081990765  0.4908701194089388  1.0000
  O   O49       1.0  0.4395123608613575  0.5572262606781636  0.36858593828041103  1.0000
  O   O50       1.0  0.060481433927506635  0.44277268487229554  0.8685884329489042  1.0000
  O   O51       1.0  0.5604891963840686  0.44276788949341755  0.6314066909578457  1.0000
  O   O52       1.0  0.9395100240233915  0.5572266704335648  0.1314114181238182  1.0000
  O   O53       1.0  0.5721855067110726  0.5055495779451534  0.1771064753397198  1.0000
  O   O54       1.0  0.9278163783629979  0.494446411528223  0.6771062662572973  1.0000
  O   O55       1.0  0.4278134070667221  0.49445053222826363  0.8228916764717411  1.0000
  O   O56       1.0  0.07218323850590738  0.505552375583889  0.322891885552238  1.0000
