data_image0
_chemical_formula_structural       Cd4H32C48S8N16O16
_chemical_formula_sum              "Cd4 H32 C48 S8 N16 O16"
_cell_length_a       6.759250576000523
_cell_length_b       13.746467384732687
_cell_length_c       15.437962410764133
_cell_angle_alpha    90.61662448048298
_cell_angle_beta     89.9999547851164
_cell_angle_gamma    90.0000001221203

_space_group_name_H-M_alt    "P 1"
_space_group_IT_number       1

loop_
  _space_group_symop_operation_xyz
  'x, y, z'

loop_
  _atom_site_type_symbol
  _atom_site_label
  _atom_site_symmetry_multiplicity
  _atom_site_fract_x
  _atom_site_fract_y
  _atom_site_fract_z
  _atom_site_occupancy
  Cd  Cd1       1.0  0.319433337633413  0.39191412192791836  0.0077584442581937006  1.0000
  Cd  Cd2       1.0  0.8194331425246872  0.10808553576463  0.9922422470334455  1.0000
  Cd  Cd3       1.0  0.6805671594633651  0.6080875995549918  0.9922412938114464  1.0000
  Cd  Cd4       1.0  0.18056735457150808  0.8919125478822209  0.007758102470788201  1.0000
  H   H1        1.0  0.1684652647795772  0.5008972224380557  0.17769072385483045  1.0000
  H   H2        1.0  0.6684639030903129  0.9991036519120939  0.822309979360142  1.0000
  H   H3        1.0  0.8315337528638338  0.49910231686747153  0.8223083446747523  1.0000
  H   H4        1.0  0.33153511455192586  0.0008973417414849999  0.17769039919721763  1.0000
  H   H5        1.0  0.5364004003415558  0.2648754801453351  0.8667766263215243  1.0000
  H   H6        1.0  0.0364003663212955  0.23512345192997236  0.1332235074330015  1.0000
  H   H7        1.0  0.46359861730127255  0.7351240588325397  0.1332230899587259  1.0000
  H   H8        1.0  0.9635986513209434  0.7648768142219284  0.8667768638611335  1.0000
  H   H9        1.0  0.1725597947725319  0.5050816356398969  0.8396651278552625  1.0000
  H   H10       1.0  0.6725581507403362  0.9949177836843718  0.16033555942316724  1.0000
  H   H11       1.0  0.8274392228697139  0.4949186305120038  0.16033524343887962  1.0000
  H   H12       1.0  0.32744234635644176  0.005082482795181399  0.8396641641200517  1.0000
  H   H13       1.0  0.20352343298748105  0.4999124094518379  0.6777398039044016  1.0000
  H   H14       1.0  0.7035229685423873  8.724920591869997e-05  0.3222602795560974  1.0000
  H   H15       1.0  0.7964741052008009  0.5000885842017481  0.3222605746532069  1.0000
  H   H16       1.0  0.29647752855439785  0.9999122897719557  0.6777394367239042  1.0000
  H   H17       1.0  0.6092684513380604  0.2581559519292895  0.3078773030377917  1.0000
  H   H18       1.0  0.10927184501493767  0.24184443507622433  0.6921221723960828  1.0000
  H   H19       1.0  0.3907305663041782  0.7418457692259749  0.6921230827827785  1.0000
  H   H20       1.0  0.8907330904437101  0.7581543763999506  0.30787753661993383  1.0000
  H   H21       1.0  0.59024083374576  0.2515298413108553  0.7062497846909181  1.0000
  H   H22       1.0  0.09024198905930089  0.24846909079595758  0.29374968277004143  1.0000
  H   H23       1.0  0.4097567044431046  0.748471880172062  0.2937499533792405  1.0000
  H   H24       1.0  0.909758508037484  0.7515297206802316  0.7062500262467354  1.0000
  H   H25       1.0  0.5697997243366828  0.2753911925173398  0.1469717620604385  1.0000
  H   H26       1.0  0.06980282677417192  0.22460846753124028  0.8530270719526671  1.0000
  H   H27       1.0  0.4301992933061455  0.7246083464605348  0.8530279542198117  1.0000
  H   H28       1.0  0.9302006292305193  0.7753917989482986  0.1469726515900405  1.0000
  H   H29       1.0  0.1904941878165758  0.493631262574212  0.3394912407746986  1.0000
  H   H30       1.0  0.6904931117428106  0.006369123329228902  0.6605095021870752  1.0000
  H   H31       1.0  0.809503350372296  0.5063690039053412  0.660508482769025  1.0000
  H   H32       1.0  0.309507385352795  0.9936318699966905  0.33949152412069594  1.0000
  C   C1        1.0  0.2611042037336588  0.4469939578865621  0.20974688023552804  1.0000
  C   C2        1.0  0.7611058525912995  0.0530071561131393  0.7902519024188239  1.0000
  C   C3        1.0  0.7388933344557955  0.5530055814189653  0.7902521882943108  1.0000
  C   C4        1.0  0.23889612395943524  0.9469945653697636  0.2097478356505675  1.0000
  C   C5        1.0  0.4017335839453651  0.37382334260974653  0.3369211824611896  1.0000
  C   C6        1.0  0.901733984379902  0.1261770424594602  0.6630788399986187  1.0000
  C   C7        1.0  0.5982654336974632  0.6261769238698068  0.6630785410822782  1.0000
  C   C8        1.0  0.09826651271629318  0.8738239511941118  0.3369215385584853  1.0000
  C   C9        1.0  0.46819465459197557  0.31612886013008534  0.8223892759815217  1.0000
  C   C10       1.0  0.9681959338069034  0.1838700692425448  0.1776113568131237  1.0000
  C   C11       1.0  0.5318028835968961  0.683871406349468  0.177610447562202  1.0000
  C   C12       1.0  0.03180308383475959  0.8161287415783394  0.8223896477052577  1.0000
  C   C13       1.0  0.2616939660375266  0.4497605854208615  0.8067594331912745  1.0000
  C   C14       1.0  0.7616937356347435  0.0502390729169306  0.193240630235195  1.0000
  C   C15       1.0  0.7383035721513451  0.5502396810586916  0.19324029035244916  1.0000
  C   C16       1.0  0.23830676146203442  0.9497619210643008  0.8067591005712345  1.0000
  C   C17       1.0  0.3999475737779433  0.3742330813190194  0.6789160359559931  1.0000
  C   C18       1.0  0.8999456337905656  0.1257665759306903  0.3210846276067798  1.0000
  C   C19       1.0  0.6000529233182519  0.6257679123345596  0.321084342601111  1.0000
  C   C20       1.0  0.1000548633056297  0.8742329627195248  0.678915736423889  1.0000
  C   C21       1.0  0.279110179144844  0.44585200184344137  0.7169909406395121  1.0000
  C   C22       1.0  0.7791083069987078  0.0541462013952057  0.2830091022626462  1.0000
  C   C23       1.0  0.7208873590440276  0.5541475371344403  0.2830087756409939  1.0000
  C   C24       1.0  0.22088923119017068  0.9458526100809904  0.7169906067546422  1.0000
  C   C25       1.0  0.5099275809611328  0.31235687520756983  0.2813585292539074  1.0000
  C   C26       1.0  0.0099279670008841  0.1876435120166988  0.7186416281442476  1.0000
  C   C27       1.0  0.49007439558784677  0.6876433902890116  0.7186431375410649  1.0000
  C   C28       1.0  0.9900754890032175  0.812356026633509  0.2813587358859095  1.0000
  C   C29       1.0  0.43024257713570085  0.3655858338739435  0.4303376833916347  1.0000
  C   C30       1.0  0.9302446260834926  0.1344123685334111  0.5696623074597158  1.0000
  C   C31       1.0  0.5697549610531709  0.6344144326056169  0.5696620401520889  1.0000
  C   C32       1.0  0.06975735046724202  0.8655871704444564  0.430337408820023  1.0000
  C   C33       1.0  0.49604693513147413  0.3082382253529162  0.7334399474402105  1.0000
  C   C34       1.0  0.9960465741422126  0.1917614320235117  0.2665593875242322  1.0000
  C   C35       1.0  0.5039520825107572  0.6917634958023414  0.2665604383803597  1.0000
  C   C36       1.0  0.003952443501788101  0.8082373801079896  0.7334390259914585  1.0000
  C   C37       1.0  0.4890170593003448  0.32178525862411067  0.1923586432535416  1.0000
  C   C38       1.0  0.9890186784894154  0.1782151262926632  0.807640701394874  1.0000
  C   C39       1.0  0.5109819583424837  0.6782157353571279  0.8076410875531437  1.0000
  C   C40       1.0  0.0109832980613191  0.8217844126852042  0.1923590148848646  1.0000
  C   C41       1.0  0.43054276604569713  0.3662501619531681  0.5854373377821318  1.0000
  C   C42       1.0  0.9305406571180939  0.13374949578356174  0.4145620197423128  1.0000
  C   C43       1.0  0.5694592105056273  0.6337515598573943  0.4145617525365921  1.0000
  C   C44       1.0  0.0694598399792739  0.86624931602028  0.5854370415237967  1.0000
  C   C45       1.0  0.2743467148090488  0.4422400943286321  0.2995960040653785  1.0000
  C   C46       1.0  0.7743455673152866  0.05776029111359549  0.7004047100175158  1.0000
  C   C47       1.0  0.7256523028343693  0.5577594449768951  0.7004030644642043  1.0000
  C   C48       1.0  0.2256534503269521  0.9422399750382979  0.29959566127661924  1.0000
  S   S1        1.0  0.33353992764281765  0.131870798032466  0.0095371568008247  1.0000
  S   S2        1.0  0.8335382599902416  0.368128859582498  0.9904635296327485  1.0000
  S   S3        1.0  0.6664620489067516  0.8681301952934531  0.9904638695066907  1.0000
  S   S4        1.0  0.16646371655991032  0.6318699515660315  0.009536827134446903  1.0000
  S   S5        1.0  0.2765405561882375  0.41678245317037016  0.5082301793165129  1.0000
  S   S6        1.0  0.7765397863677277  0.0832172047581068  0.49177052674753713  1.0000
  S   S7        1.0  0.7234599409079578  0.5832192679848873  0.4917702065038015  1.0000
  S   S8        1.0  0.2234607107284745  0.9167816063904227  0.5082298300199142  1.0000
  N   N1        1.0  0.36660411227272494  0.38775061330032656  0.1573247101383757  1.0000
  N   N2        1.0  0.8666027082580499  0.11224977196211233  0.8426753244203625  1.0000
  N   N3        1.0  0.6333963848240529  0.6122489256775481  0.8426750061416186  1.0000
  N   N4        1.0  0.1333963093841817  0.8877512216914667  0.1573250541369973  1.0000
  N   N5        1.0  0.354066585735346  0.38583852767413873  0.8581391139145327  1.0000
  N   N6        1.0  0.8540664491598234  0.11416040265389428  0.14186091043549007  1.0000
  N   N7        1.0  0.6459294729989862  0.6141617384777688  0.14186125738011413  1.0000
  N   N8        1.0  0.14593256848300482  0.8858391363239735  0.8581388058447601  1.0000
  N   N9        1.0  0.5798700022653022  0.3168349910779399  0.551111125746047  1.0000
  N   N10       1.0  0.0798679171775518  0.18316466858760802  0.448888352550405  1.0000
  N   N11       1.0  0.42013049483147574  0.6831652754016061  0.4488885977971649  1.0000
  N   N12       1.0  0.9201311004652766  0.8168348703902667  0.551111363729845  1.0000
  N   N13       1.0  0.5798360535926932  0.31659969317416176  0.463999474169242  1.0000
  N   N14       1.0  0.0798367698755413  0.18339923866223276  0.5360006446258794  1.0000
  N   N15       1.0  0.4201644435035021  0.6833998454760534  0.5360008898614268  1.0000
  N   N16       1.0  0.9201622477672871  0.8166003003156418  0.4639990716543708  1.0000
  O   O1        1.0  0.1644048993164873  0.060411256616021106  0.9968091547716683  1.0000
  O   O2        1.0  0.6644035386915377  0.43958840225690216  0.0031909421614387014  1.0000
  O   O3        1.0  0.8355941183257511  0.939588282034201  0.003191209259256301  1.0000
  O   O4        1.0  0.3355954789512907  0.5604111367209726  0.9968087741188115  1.0000
  O   O5        1.0  0.24809761898461602  0.22874895228873987  0.9877215252259006  1.0000
  O   O6        1.0  0.7480962395316553  0.27124924980986265  0.012281119359613502  1.0000
  O   O7        1.0  0.7519058370177377  0.7712505853785033  0.012280782056272704  1.0000
  O   O8        1.0  0.2519072164712881  0.7287488331816689  0.9877205256454573  1.0000
  O   O9        1.0  0.40724032508750707  0.1290021634452643  0.0988668084053117  1.0000
  O   O10       1.0  0.9072343806657199  0.37099385658358847  0.9011331685797614  1.0000
  O   O11       1.0  0.5927646103699757  0.8709937373688776  0.9011341670591834  1.0000
  O   O12       1.0  0.09276463697769091  0.6290049552202605  0.09886589268659662  1.0000
  O   O13       1.0  0.49098109148313535  0.10461564085012752  0.9456166631038201  1.0000
  O   O14       1.0  0.9909796376490474  0.39538619840389794  0.0543839908964898  1.0000
  O   O15       1.0  0.509020885066427  0.8953853524757848  0.054384363203702414  1.0000
  O   O16       1.0  0.009022338901104399  0.6046140677479881  0.9456163803971408  1.0000
