data_image0
_chemical_formula_structural       Zn8H33C76Cl5O26
_chemical_formula_sum              "Zn8 H33 C76 Cl5 O26"
_cell_length_a       18.25619003113133
_cell_length_b       18.27105779915335
_cell_length_c       18.43294998529979
_cell_angle_alpha    89.79136878741217
_cell_angle_beta     119.74424282554483
_cell_angle_gamma    119.98055955813243

_space_group_name_H-M_alt    "P 1"
_space_group_IT_number       1

loop_
  _space_group_symop_operation_xyz
  'x, y, z'

loop_
  _atom_site_type_symbol
  _atom_site_label
  _atom_site_symmetry_multiplicity
  _atom_site_fract_x
  _atom_site_fract_y
  _atom_site_fract_z
  _atom_site_occupancy
  Zn  Zn1       1.0  0.4129169547174882  0.5442835937625361  0.9568507000696017  1.0000
  Zn  Zn2       1.0  0.5818093159617278  0.5460607485143  0.13090231982177158  1.0000
  Zn  Zn3       1.0  0.5916552017796307  0.5458278072013273  0.9592460197006076  1.0000
  Zn  Zn4       1.0  0.4161416401680285  0.37020261549589145  0.9575780893230431  1.0000
  Zn  Zn5       1.0  0.58484301364971  0.9564025229131873  0.540425565279854  1.0000
  Zn  Zn6       1.0  0.4069718472382887  0.9538413450465483  0.538353221148725  1.0000
  Zn  Zn7       1.0  0.411299491707787  0.9627178122336985  0.3676972646117633  1.0000
  Zn  Zn8       1.0  0.5862616311099133  0.1311905265738105  0.5454775003951369  1.0000
  H   H1        1.0  0.13533670352710908  0.5118111855961089  0.619528894805491  1.0000
  H   H2        1.0  0.3677832209275778  0.1822818430623272  0.5963177828015134  1.0000
  H   H3        1.0  0.6472005411498005  0.20286929459481942  0.10591460203087177  1.0000
  H   H4        1.0  0.4663222704903235  0.2622209312980033  0.35622329351870263  1.0000
  H   H5        1.0  0.8952612702683851  0.7911387218337965  0.15816305123669125  1.0000
  H   H6        1.0  0.9243538066110304  0.45998298491600315  0.3088878817070366  1.0000
  H   H7        1.0  0.11403989538695929  0.5550519201467807  0.37741560498106713  1.0000
  H   H8        1.0  0.08679911805999273  0.8907364145309699  0.24524381100280107  1.0000
  H   H9        1.0  0.3612496801745451  0.5979680364714001  0.17356279516020837  1.0000
  H   H10       1.0  0.7837597714537168  0.9672633991210304  0.22945373658380672  1.0000
  H   H11       1.0  0.7846446401630018  0.059634536432227506  0.3301571628767875  1.0000
  H   H12       1.0  0.13054981961891343  0.6099960622853474  0.5246229664366169  1.0000
  H   H13       1.0  0.906712238063399  0.0823250222204521  0.48244888117268675  1.0000
  H   H14       1.0  0.8094096770398381  0.08657322744681299  0.5365121747011372  1.0000
  H   H15       1.0  0.900697388162719  0.32251006551837963  0.9186739572729152  1.0000
  H   H16       1.0  0.19033700731721842  0.4073778502124128  0.9634550168223657  1.0000
  H   H17       1.0  0.6560530721428963  0.7671534903766714  0.8572391691742  1.0000
  H   H18       1.0  0.0934078369373097  0.4145772516418731  0.01621272270516269  1.0000
  H   H19       1.0  0.30082494255946557  0.5472113569334311  0.7449671128699221  1.0000
  H   H20       1.0  0.4635976474625708  0.3566224535150014  0.2575466088888093  1.0000
  H   H21       1.0  0.5629956421889658  0.2791522957904816  0.08967471489168584  1.0000
  H   H22       1.0  0.6976348420340059  0.145592457897763  0.23352589103875224  1.0000
  H   H23       1.0  0.291534774582324  0.7400609695250537  0.5538713842752331  1.0000
  H   H24       1.0  0.19823541806012912  0.7104145654367288  0.3761471476048186  1.0000
  H   H25       1.0  0.6542686898319802  0.9874051970793403  0.3634653472336283  1.0000
  H   H26       1.0  0.36077692852855153  0.6938278119934509  0.26883156628024824  1.0000
  H   H27       1.0  0.8063110548327826  0.2218866182491226  0.7703191349296787  1.0000
  H   H28       1.0  0.6504694378518606  0.8592257284973712  0.7564726388935412  1.0000
  H   H29       1.0  0.379497987283287  0.2855676539408735  0.6953988917627711  1.0000
  H   H30       1.0  0.7866342935153271  0.31065666671204895  0.046759951239508435  1.0000
  H   H31       1.0  0.7689164514819922  0.20319876789992009  0.9449893697361844  1.0000
  H   H32       1.0  0.6373508191507541  0.14914706105600573  0.7843571757123726  1.0000
  H   H33       1.0  0.19366327156939178  0.282235658671766  0.7248653306199344  1.0000
  C   C1        1.0  0.5025935335271327  0.36068008648481964  0.13727514346791037  1.0000
  C   C2        1.0  0.9429561085930799  0.3176424478754639  0.8952145898929089  1.0000
  C   C3        1.0  0.05231912902412719  0.3701985138982025  0.9503163690823939  1.0000
  C   C4        1.0  0.5040366149627147  0.6396451281299776  0.8619955693855347  1.0000
  C   C5        1.0  0.10648956372499901  0.36595485158530755  0.9209680273142168  1.0000
  C   C6        1.0  0.29995513755594766  0.5897773729944903  0.7036801006023908  1.0000
  C   C7        1.0  0.20702636625176737  0.5701704202947153  0.6333810860831903  1.0000
  C   C8        1.0  0.20426765500995708  0.6252216809909044  0.5795634784100515  1.0000
  C   C9        1.0  0.294566664140561  0.6981364596776418  0.5958156796017917  1.0000
  C   C10       1.0  0.39191918499354034  0.7198498310336634  0.6669476182803252  1.0000
  C   C11       1.0  0.394875600551309  0.664967473492368  0.72337186846827  1.0000
  C   C12       1.0  0.8932445002488406  0.1307024327285617  0.5780105333838533  1.0000
  C   C13       1.0  0.4931553323658662  0.686367477737349  0.7944489197445321  1.0000
  C   C14       1.0  0.582627832715602  0.7538292486816758  0.8041144849474977  1.0000
  C   C15       1.0  0.579501298387903  0.8058043819379818  0.7477869481213588  1.0000
  C   C16       1.0  0.4909978014534176  0.6394191899595328  0.13277870262085403  1.0000
  C   C17       1.0  0.48693950766174515  0.7916172312231639  0.6823307220511268  1.0000
  C   C18       1.0  0.6631875649357541  0.31313642037002865  0.9433733100959146  1.0000
  C   C19       1.0  0.7280762843437358  0.2854532021156402  0.9759072959265112  1.0000
  C   C20       1.0  0.7182792014584863  0.225589798955717  0.9183021302381746  1.0000
  C   C21       1.0  0.6447966704088656  0.1954165484787396  0.8288845639378196  1.0000
  C   C22       1.0  0.5771591404179051  0.22278757716622977  0.7934218688663038  1.0000
  C   C23       1.0  0.9448510839250375  0.18908315022775207  0.6635229099986405  1.0000
  C   C24       1.0  0.5841967482315199  0.28279382831430405  0.8512869591753258  1.0000
  C   C25       1.0  0.5116453171119915  0.3054459666406473  0.8129413511194983  1.0000
  C   C26       1.0  0.43547567645641294  0.26887178755969643  0.7230944564797144  1.0000
  C   C27       1.0  0.42834023839141366  0.21013794932537883  0.6668919958312003  1.0000
  C   C28       1.0  0.5070128501880546  0.3649122693120219  0.8645136681868665  1.0000
  C   C29       1.0  0.4988419651729997  0.18876058221693634  0.7009974944051153  1.0000
  C   C30       1.0  0.578953764863435  0.24931943053005767  0.14181478947710247  1.0000
  C   C31       1.0  0.6265855685092633  0.2071697108875412  0.15129855345073645  1.0000
  C   C32       1.0  0.6533585408460993  0.1731603371744868  0.22193785362699706  1.0000
  C   C33       1.0  0.6260715699456866  0.1771521842775243  0.2788065495607128  1.0000
  C   C34       1.0  0.05609213839262849  0.2447607271636514  0.7184540630786458  1.0000
  C   C35       1.0  0.5674833322549091  0.2119336761149668  0.2665357289504371  1.0000
  C   C36       1.0  0.550794842465649  0.2548484054748315  0.1998034101843018  1.0000
  C   C37       1.0  0.512363742583048  0.30687672508033603  0.1984639824846184  1.0000
  C   C38       1.0  0.4885504478307965  0.31350143044124223  0.2574687154682637  1.0000
  C   C39       1.0  0.49303796430481844  0.26258398129644434  0.3147664684402898  1.0000
  C   C40       1.0  0.7740314278297262  0.6305089387984993  0.14552668603055005  1.0000
  C   C41       1.0  0.5294092320333306  0.21101527137716397  0.31826978249009125  1.0000
  C   C42       1.0  0.9026776314612376  0.5593151513065138  0.26236983425587823  1.0000
  C   C43       1.0  0.9616947079822821  0.5273487670383261  0.30545805549696337  1.0000
  C   C44       1.0  0.06850480605172755  0.5814808209986283  0.34481090739677717  1.0000
  C   C45       1.0  0.8914610793446939  0.19554367893370989  0.6951274059367165  1.0000
  C   C46       1.0  0.11531750757198724  0.6679776907748974  0.34389484616406213  1.0000
  C   C47       1.0  0.05699391535249983  0.703026318043193  0.30065524687713463  1.0000
  C   C48       1.0  0.9462026195659304  0.6467641715940359  0.25436561435542876  1.0000
  C   C49       1.0  0.889669484328387  0.6815269418764488  0.2031937672970587  1.0000
  C   C50       1.0  0.940365940485492  0.766965994442856  0.19932870765444496  1.0000
  C   C51       1.0  0.04821170720910582  0.8229479370826241  0.24749515085437684  1.0000
  C   C52       1.0  0.22360256383657168  0.3605271722584432  0.8600003751370907  1.0000
  C   C53       1.0  0.1058878311256279  0.7924556710249248  0.2986659963647469  1.0000
  C   C54       1.0  0.6536687255035717  0.8445835021300853  0.207442653908565  1.0000
  C   C55       1.0  0.7271085579913573  0.9358161684643704  0.24520854696593367  1.0000
  C   C56       1.0  0.9434164059536911  0.25438759779380854  0.7791558483885908  1.0000
  C   C57       1.0  0.7274539450323088  0.9874432844454617  0.3020337966290256  1.0000
  C   C58       1.0  0.6548248660129942  0.9471836795886901  0.32067102169362727  1.0000
  C   C59       1.0  0.5785161100460383  0.8537247628287543  0.2831235801784047  1.0000
  C   C60       1.0  0.5764754586316129  0.7990355429799364  0.2247157121673452  1.0000
  C   C61       1.0  0.49704966049962723  0.705523066299776  0.18751595656426195  1.0000
  C   C62       1.0  0.42148716082608206  0.6695563454186696  0.20342450670676016  1.0000
  C   C63       1.0  0.4216123753660099  0.7233000736813224  0.2578533271749279  1.0000
  C   C64       1.0  0.10985867771000102  0.24080775897303403  0.6845332330434176  1.0000
  C   C65       1.0  0.4998591579981165  0.8132335411739362  0.29868947341093127  1.0000
  C   C66       1.0  0.49511814053950326  0.1316503937635645  0.6394499130903101  1.0000
  C   C67       1.0  0.05470465175345395  0.30881655560936844  0.8347706762521128  1.0000
  C   C68       1.0  0.49942241228284007  0.8677797573502276  0.35886131565965235  1.0000
  C   C69       1.0  0.4914676243426966  0.854438664118561  0.6298212307145548  1.0000
  C   C70       1.0  0.5147977046289185  0.14849125819490888  0.370371860297965  1.0000
  C   C71       1.0  0.2205441655241387  0.85689623346547  0.35543642007544923  1.0000
  C   C72       1.0  0.7761054454096763  0.13843334371191668  0.6376295858752598  1.0000
  C   C73       1.0  0.05622782612185522  0.18426162961237944  0.6015340902601878  1.0000
  C   C74       1.0  0.9468082562573698  0.12774755917846653  0.5473505466659815  1.0000
  C   C75       1.0  0.10825177941045187  0.30279328885813334  0.8029270880033651  1.0000
  C   C76       1.0  0.8901569401083336  0.2612336540521909  0.8122604999402299  1.0000
  Cl  Cl1       1.0  0.6827638647317046  0.38636969807036087  0.020998662452697707  1.0000
  Cl  Cl2       1.0  0.6769667113306141  0.1488799972947135  0.37319682551047606  1.0000
  Cl  Cl3       1.0  0.7733032909053036  0.48838027344777385  0.2208729396233337  1.0000
  Cl  Cl4       1.0  0.12190194059329679  0.180212350842389  0.560295030839896  1.0000
  Cl  Cl5       1.0  0.6577378269975469  0.7889280266757764  0.13480127779082807  1.0000
  O   O1        1.0  0.5014300165954495  0.5013255963014771  0.0011914879633678572  1.0000
  O   O2        1.0  0.45889871579760216  0.06554855184837288  0.32724158931902997  1.0000
  O   O3        1.0  0.26523226059157423  0.8635523056022765  0.437130749941062  1.0000
  O   O4        1.0  0.4484985655784328  0.3201793177672769  0.05478698080009541  1.0000
  O   O5        1.0  0.7327178386162316  0.1788166117856704  0.6079097644213364  1.0000
  O   O6        1.0  0.26400820032021943  0.9014943467346654  0.31888912113856793  1.0000
  O   O7        1.0  0.731598505383758  0.05457822014856359  0.6234000938078879  1.0000
  O   O8        1.0  0.5493071710155348  0.8724039726931709  0.6031097483437833  1.0000
  O   O9        1.0  0.552412868252553  0.18279671316088297  0.45075307388069774  1.0000
  O   O10       1.0  0.41619291566077987  0.051014558762936695  0.5972584032989872  1.0000
  O   O11       1.0  0.4225511082665107  0.8727819807408039  0.323492459622841  1.0000
  O   O12       1.0  0.42472690670203417  0.6111814186918211  0.04957410078839789  1.0000
  O   O13       1.0  0.4427367358441642  0.6179786539241547  0.8852787658043227  1.0000
  O   O14       1.0  0.5479060236537309  0.613160836828719  0.17576364772293832  1.0000
  O   O15       1.0  0.5599057139903039  0.4482669283784517  0.8771333409090616  1.0000
  O   O16       1.0  0.7293580498412809  0.629666590193324  0.18119186926951877  1.0000
  O   O17       1.0  0.2683650634679679  0.32087461168195824  0.8868533233890971  1.0000
  O   O18       1.0  0.7330003333999003  0.5987775462442074  0.06368721375888957  1.0000
  O   O19       1.0  0.26674047118876837  0.4444210787738215  0.8765552907931848  1.0000
  O   O20       1.0  0.442911936505169  0.32362528022495946  0.8846651343796026  1.0000
  O   O21       1.0  0.549578401878648  0.44354899376602935  0.17461099891126963  1.0000
  O   O22       1.0  0.5755086362354902  0.6271940596556932  0.8927985647716953  1.0000
  O   O23       1.0  0.4974513780446443  0.0005017879523165989  0.4974996090125857  1.0000
  O   O24       1.0  0.5722524787732012  0.17000276636548506  0.6343841074495558  1.0000
  O   O25       1.0  0.5747857161251916  0.9030061961117896  0.4401734321348485  1.0000
  O   O26       1.0  0.43971273829282603  0.8865153071722318  0.6177793042533182  1.0000
