data_image0
_chemical_formula_structural       Nd2H24C8N6O26
_chemical_formula_sum              "Nd2 H24 C8 N6 O26"
_cell_length_a       7.621022594907862
_cell_length_b       8.947853292844167
_cell_length_c       12.572422829972648
_cell_angle_alpha    69.15107301339825
_cell_angle_beta     86.52928441757953
_cell_angle_gamma    80.13937383878111

_space_group_name_H-M_alt    "P 1"
_space_group_IT_number       1

loop_
  _space_group_symop_operation_xyz
  'x, y, z'

loop_
  _atom_site_type_symbol
  _atom_site_label
  _atom_site_symmetry_multiplicity
  _atom_site_fract_x
  _atom_site_fract_y
  _atom_site_fract_z
  _atom_site_occupancy
  Nd  Nd1       1.0  0.2500585629688672  0.1334979023438053  0.7327979419906825  1.0000
  Nd  Nd2       1.0  0.7499398969096307  0.8665017949878261  0.26720913100762517  1.0000
  H   H1        1.0  0.8754326743949506  0.3620113054024543  0.45152856375573674  1.0000
  H   H2        1.0  0.6238822186932892  0.1870324882218598  0.4514551159944417  1.0000
  H   H3        1.0  0.12457860096490962  0.6379747381330247  0.5484708459274541  1.0000
  H   H4        1.0  0.37613719857770894  0.8129954617113101  0.5485389497402335  1.0000
  H   H5        1.0  0.8382255872761634  0.2843638267541592  0.60315065204189  1.0000
  H   H6        1.0  0.6614272552948322  0.11284418314178181  0.6030437268416121  1.0000
  H   H7        1.0  0.161801481556637  0.7156207893925668  0.39684490877632306  1.0000
  H   H8        1.0  0.3385825199545921  0.8871688831389335  0.396959366283674  1.0000
  H   H9        1.0  0.1564111347891527  0.4478917042728554  0.3844091733249255  1.0000
  H   H10       1.0  0.3428493862519062  0.1672740501300041  0.38452127856045587  1.0000
  H   H11       1.0  0.8435792004930178  0.5520914625615134  0.6155920659374201  1.0000
  H   H12       1.0  0.657165498997216  0.8327502954352398  0.6154677727411907  1.0000
  H   H13       1.0  0.3183023847101297  0.42867561016089434  0.48726788551466166  1.0000
  H   H14       1.0  0.18163408946459467  0.08309162293059566  0.48763937012630976  1.0000
  H   H15       1.0  0.6817085340733088  0.5712972380450054  0.5127440600755903  1.0000
  H   H16       1.0  0.8183857346555213  0.9169335043030032  0.5123503296070522  1.0000
  H   H17       1.0  0.8805863694984596  0.19423165120788624  0.8433261425720316  1.0000
  H   H18       1.0  0.6195772910576596  0.9622925101569137  0.8433211876993095  1.0000
  H   H19       1.0  0.11940122000019932  0.8057642875896533  0.15666989771161588  1.0000
  H   H20       1.0  0.38041391038375844  0.03768964449012202  0.15667751757770526  1.0000
  H   H21       1.0  0.9749885601431387  0.34629398946144374  0.830625310687523  1.0000
  H   H22       1.0  0.5254032948265105  0.8226915875248864  0.8308167161676889  1.0000
  H   H23       1.0  0.024995171537035867  0.6536997779505284  0.16937734033502483  1.0000
  H   H24       1.0  0.47458735961954096  0.17729922527149009  0.16918197647780175  1.0000
  C   C1        1.0  0.8986874608310487  0.37358908424466364  0.5337403858927556  1.0000
  C   C2        1.0  0.6009700548862046  0.09303907226214396  0.5336134985522136  1.0000
  C   C3        1.0  0.10131498985265357  0.6264108489741388  0.46625603269766436  1.0000
  C   C4        1.0  0.399036613032074  0.906998121844488  0.4663865373111588  1.0000
  C   C5        1.0  0.17559762932694417  0.4579876224818237  0.46746442535629007  1.0000
  C   C6        1.0  0.324232800697949  0.07405921249634427  0.4676554266670151  1.0000
  C   C7        1.0  0.8244117958541963  0.5420071055862081  0.5325348901705238  1.0000
  C   C8        1.0  0.6757813592675959  0.925967193553447  0.5323398799566376  1.0000
  N   N1        1.0  0.07005162570935416  0.8715309184249376  0.71462069497354  1.0000
  N   N2        1.0  0.4299803507872255  0.4135989066280175  0.7146195294739001  1.0000
  N   N3        1.0  0.9299446274920556  0.12846990892491303  0.2853734266719243  1.0000
  N   N4        1.0  0.5700060397206527  0.5863994412293465  0.2853894826156419  1.0000
  N   N5        1.0  0.2499639445242822  0.005326840552243294  0.988915695174981  1.0000
  N   N6        1.0  0.7500297755985914  0.9946657299899541  0.011084992536190214  1.0000
  O   O1        1.0  0.23691943869140186  0.8467453509836603  0.7359891962862048  1.0000
  O   O2        1.0  0.2631943461394572  0.4170732998905962  0.736191013893652  1.0000
  O   O3        1.0  0.7630782736955412  0.15326122293967606  0.2639995224247684  1.0000
  O   O4        1.0  0.736787786938379  0.582927440144644  0.26381200413439376  1.0000
  O   O5        1.0  0.9901328537276228  0.02005516496708291  0.6910658974814935  1.0000
  O   O6        1.0  0.5096833313661763  0.2885514905539069  0.6910908621154802  1.0000
  O   O7        1.0  0.009855905967661869  0.9799426829456406  0.30893426799600093  1.0000
  O   O8        1.0  0.4903148459534918  0.7114335856210587  0.3089348186091525  1.0000
  O   O9        1.0  0.9893184632321805  0.7633856903589163  0.7149159912727041  1.0000
  O   O10       1.0  0.5109069405232205  0.5214199355577026  0.7147154689443409  1.0000
  O   O11       1.0  0.010685690324486125  0.2366152937284981  0.2850677205394233  1.0000
  O   O12       1.0  0.4890804052880142  0.47858069894471816  0.2852878751831084  1.0000
  O   O13       1.0  0.17732982181404125  0.9373409133901235  0.9341946971367958  1.0000
  O   O14       1.0  0.3227757033009128  0.1278995307134992  0.934215219542409  1.0000
  O   O15       1.0  0.8226696810530569  0.06265060192499311  0.06580488851496108  1.0000
  O   O16       1.0  0.6772205347739869  0.8720965719768755  0.06578810789908107  1.0000
  O   O17       1.0  0.24982802051275854  0.9517169047475349  0.09653090426272815  1.0000
  O   O18       1.0  0.7501636409682179  0.04827394415871571  0.9034689757341212  1.0000
  O   O19       1.0  0.08905618164375546  0.338026144327742  0.5541985063918842  1.0000
  O   O20       1.0  0.4107556885531737  0.10753131124918279  0.554264941589011  1.0000
  O   O21       1.0  0.9109514012476153  0.6619802520684388  0.4458084799842296  1.0000
  O   O22       1.0  0.5892580487073006  0.8924863090937123  0.44574459412812895  1.0000
  O   O23       1.0  0.9715011109355133  0.2606717951092534  0.8005927073329813  1.0000
  O   O24       1.0  0.528676737333058  0.9383905363008013  0.8006641504768761  1.0000
  O   O25       1.0  0.02848895121368863  0.7393191426732743  0.19940819696552115  1.0000
  O   O26       1.0  0.47131377696675264  0.06160611194534484  0.19933016353577665  1.0000
