data_image0
_chemical_formula_structural       Sm2H30C24S4O30
_chemical_formula_sum              "Sm2 H30 C24 S4 O30"
_cell_length_a       6.967990540743509
_cell_length_b       10.792233160432467
_cell_length_c       12.176465028556084
_cell_angle_alpha    96.03454519095253
_cell_angle_beta     103.01915254506213
_cell_angle_gamma    89.64489578166683

_space_group_name_H-M_alt    "P 1"
_space_group_IT_number       1

loop_
  _space_group_symop_operation_xyz
  'x, y, z'

loop_
  _atom_site_type_symbol
  _atom_site_label
  _atom_site_symmetry_multiplicity
  _atom_site_fract_x
  _atom_site_fract_y
  _atom_site_fract_z
  _atom_site_occupancy
  Sm  Sm1       1.0  0.2870659472713939  0.40290575061820977  0.21358044955257321  1.0000
  Sm  Sm2       1.0  0.7129351373700173  0.5970927083451159  0.7864208047792473  1.0000
  H   H1        1.0  0.5347367346986331  0.7784793856331617  0.2646357625300054  1.0000
  H   H2        1.0  0.4652672957246224  0.22151906703775376  0.7353658765768285  1.0000
  H   H3        1.0  0.5175591642209624  0.1572953853592765  0.26973141810682927  1.0000
  H   H4        1.0  0.4824420201253404  0.8427058692022271  0.7302692880566183  1.0000
  H   H5        1.0  0.6588869063692611  0.27387320820790956  0.3271229942234938  1.0000
  H   H6        1.0  0.34111571930775847  0.7261271113055089  0.6728778135122652  1.0000
  H   H7        1.0  0.7191773062948458  0.4139890711953456  0.16640543785396028  1.0000
  H   H8        1.0  0.2808267822245298  0.5860112453867713  0.8335972034971774  1.0000
  H   H9        1.0  0.6288685559028905  0.5514471559045758  0.16807028434386234  1.0000
  H   H10       1.0  0.371134064749846  0.44855316371629056  0.8319313440058308  1.0000
  H   H11       1.0  0.01212953679924309  0.5755722635505973  0.3396801763385681  1.0000
  H   H12       1.0  0.9878716159868546  0.4244280591090258  0.6603204390096876  1.0000
  H   H13       1.0  0.0664602581657689  0.648204263287944  0.24610569288011414  1.0000
  H   H14       1.0  0.933543808841975  0.3517951211773962  0.7538952164279704  1.0000
  H   H15       1.0  0.14448029679059  0.6451177194693613  0.09751417591917996  1.0000
  H   H16       1.0  0.8555208825314226  0.3548835351995833  0.9024873508581946  1.0000
  H   H17       1.0  0.23223128572350762  0.5579464056657386  0.01059368456551367  1.0000
  H   H18       1.0  0.7677684156832997  0.44205485225685937  0.9894084704382917  1.0000
  H   H19       1.0  0.6297882645575327  0.5559709942478648  0.3915583683240341  1.0000
  H   H20       1.0  0.3702128832042816  0.4440293285192069  0.6084430676381628  1.0000
  H   H21       1.0  0.4313926430609455  0.5620486731558572  0.434283828108377  1.0000
  H   H22       1.0  0.5686041591970649  0.43795352263867915  0.565715571093797  1.0000
  H   H23       1.0  0.4040156256759175  0.7469610763308763  0.983318680152784  1.0000
  H   H24       1.0  0.5959781109982316  0.25303833058767816  0.016684164898492764  1.0000
  H   H25       1.0  0.9943243441672321  0.020468332736122398  0.8477485674315658  1.0000
  H   H26       1.0  0.005672499699549897  0.9795347947454046  0.15224928135793184  1.0000
  H   H27       1.0  0.183397042051773  0.7878222001202317  0.4216549598433231  1.0000
  H   H28       1.0  0.8166026529162523  0.2121781253632519  0.5783430012756341  1.0000
  H   H29       1.0  0.327157466054544  0.1602331461697304  0.37019211169327804  1.0000
  H   H30       1.0  0.6728436501470656  0.8397662446954614  0.6298092334537272  1.0000
  C   C1        1.0  0.3728067391323791  0.8435132211191956  0.9692610431469857  1.0000
  C   C2        1.0  0.6271929658842127  0.15648710414939157  0.030735276744103108  1.0000
  C   C3        1.0  0.18761925759165618  0.8734674356284341  0.9108205192484816  1.0000
  C   C4        1.0  0.812378937949532  0.126531960991926  0.08917633805386052  1.0000
  C   C5        1.0  0.141842156909469  0.9984658536929272  0.8925000831084089  1.0000
  C   C6        1.0  0.8581575846916037  0.0015354033700916007  0.10749550698393755  1.0000
  C   C7        1.0  0.28366493257554737  0.09049305165021337  0.9311520585464022  1.0000
  C   C8        1.0  0.7163318115863433  0.9095072802331283  0.06884633841147539  1.0000
  C   C9        1.0  0.47840197043411337  0.0637326973832302  0.9902618226910676  1.0000
  C   C10       1.0  0.5215963412993075  0.936270427059533  0.009737039099860567  1.0000
  C   C11       1.0  0.0316459326139125  0.7756428904277756  0.8662194583525319  1.0000
  C   C12       1.0  0.9683508014994118  0.2243574416704561  0.13378057983321406  1.0000
  C   C13       1.0  0.16006429647834608  0.8875431098590242  0.4336653808528651  1.0000
  C   C14       1.0  0.8399338574540707  0.1124553550743599  0.5663330268621536  1.0000
  C   C15       1.0  0.2706903894890971  0.9682210933139996  0.3904888702840451  1.0000
  C   C16       1.0  0.7293107683212838  0.03177922923818239  0.6095109244502834  1.0000
  C   C17       1.0  0.24053007019533365  0.0977474714949906  0.4046897768633427  1.0000
  C   C18       1.0  0.7594680471526017  0.9022500616439685  0.5953093606504254  1.0000
  C   C19       1.0  0.0991713190682759  0.14539962794748357  0.458798174987038  1.0000
  C   C20       1.0  0.9008253669975018  0.8545988400246497  0.5411992197265433  1.0000
  C   C21       1.0  0.982892305736236  0.06625015655320958  0.5066143513257656  1.0000
  C   C22       1.0  0.01710438535382509  0.9337483113114826  0.49338222277388866  1.0000
  C   C23       1.0  0.4190004904022827  0.9244416619292222  0.3246224103377385  1.0000
  C   C24       1.0  0.5809975071436283  0.07555307604133787  0.6753805578001391  1.0000
  S   S1        1.0  0.21707634036368256  0.24529265121564947  0.9039410010971307  1.0000
  S   S2        1.0  0.7829218666405707  0.7547076777363841  0.09605922947611834  1.0000
  S   S3        1.0  0.0672550616471383  0.31036025891516766  0.4625698651426261  1.0000
  S   S4        1.0  0.932747515982328  0.6896381964721598  0.5374282991209751  1.0000
  O   O1        1.0  0.0734139024559965  0.6589696168029348  0.8663016113352027  1.0000
  O   O2        1.0  0.9265858355352921  0.34103257291409506  0.13369981386984617  1.0000
  O   O3        1.0  0.8563377158219652  0.8092022291433235  0.8288711824354493  1.0000
  O   O4        1.0  0.14366049118228827  0.19079809980870255  0.17112904813780008  1.0000
  O   O5        1.0  0.2678782979429855  0.32604126379444404  0.011447927717831867  1.0000
  O   O6        1.0  0.7321213769278998  0.6739590621188254  0.9885533158568476  1.0000
  O   O7        1.0  0.3312551922147052  0.2835657483154463  0.8243521301889415  1.0000
  O   O8        1.0  0.6687459871073075  0.7164355063535053  0.1756493965884259  1.0000
  O   O9        1.0  0.003116848529785397  0.23996618611037226  0.8542886575061883  1.0000
  O   O10       1.0  0.9968813634987512  0.7600341427342057  0.14571075245312662  1.0000
  O   O11       1.0  0.43880536784807583  0.8012943570071516  0.3136809692822879  1.0000
  O   O12       1.0  0.5611957799137386  0.19870596575992036  0.686320466679902  1.0000
  O   O13       1.0  0.5145350583590654  0.9958383209470366  0.2831942249351157  1.0000
  O   O14       1.0  0.4854779672107341  0.004164772356041599  0.7168090225726685  1.0000
  O   O15       1.0  0.18281456923679676  0.3520547553466145  0.3859707560157587  1.0000
  O   O16       1.0  0.817188029904301  0.6479446321574824  0.6140291402908884  1.0000
  O   O17       1.0  0.1499371462900427  0.3632462041740395  0.5808179399890249  1.0000
  O   O18       1.0  0.8500624439488079  0.6367513258187074  0.4191813899122464  1.0000
  O   O19       1.0  0.855990117129771  0.33214649957633197  0.4280606922672091  1.0000
  O   O20       1.0  0.14401259176478476  0.6678556833110532  0.571937014643197  1.0000
  O   O21       1.0  0.5333913029058266  0.24890119794831378  0.27260313991023816  1.0000
  O   O22       1.0  0.46660836191649213  0.7510991281798595  0.7273997448923167  1.0000
  O   O23       1.0  0.5975397598470946  0.46220199102096154  0.16694369186728142  1.0000
  O   O24       1.0  0.4024628608056418  0.537798328599912  0.8330579364824189  1.0000
  O   O25       1.0  0.09913007209458868  0.5730571979336573  0.2855223817457925  1.0000
  O   O26       1.0  0.900875494339992  0.42694311539480617  0.7144796313789142  1.0000
  O   O27       1.0  0.2302607966225239  0.5727083263292272  0.09065938323671216  1.0000
  O   O28       1.0  0.7697403511392905  0.4272919964378443  0.9093420527254776  1.0000
  O   O29       1.0  0.4985242654607092  0.5153457445829231  0.38155265897084684  1.0000
  O   O30       1.0  0.5014768041078526  0.48465271470274  0.618451057202769  1.0000
