data_image0
_chemical_formula_structural       Hg2H60C60S8N8
_chemical_formula_sum              "Hg2 H60 C60 S8 N8"
_cell_length_a       8.161510533765451
_cell_length_b       12.40723017728952
_cell_length_c       16.095
_cell_angle_alpha    81.95357261425582
_cell_angle_beta     89.02005981871557
_cell_angle_gamma    86.56425666630673

_space_group_name_H-M_alt    "P 1"
_space_group_IT_number       1

loop_
  _space_group_symop_operation_xyz
  'x, y, z'

loop_
  _atom_site_type_symbol
  _atom_site_label
  _atom_site_symmetry_multiplicity
  _atom_site_fract_x
  _atom_site_fract_y
  _atom_site_fract_z
  _atom_site_occupancy
  Hg  Hg1       1.0  0.7333093462464362  0.4902164544571264  0.56657664553925  1.0000
  Hg  Hg2       1.0  0.22907695474113157  0.5103382435334396  0.43269628451878367  1.0000
  H   H1        1.0  0.6924098415121949  0.8411801483336205  0.37812789368497596  1.0000
  H   H2        1.0  0.8002637871468536  0.8824258206095479  0.284172252144586  1.0000
  H   H3        1.0  0.948825953956586  0.8553032340209086  0.46024417244925786  1.0000
  H   H4        1.0  0.05238060907489479  0.9038888992162271  0.36627881825565123  1.0000
  H   H5        1.0  0.6749482630146773  0.9673950854548892  0.4940507774109976  1.0000
  H   H6        1.0  0.5675122986189153  0.1557094454386956  0.5051621140899344  1.0000
  H   H7        1.0  0.6984941464690307  0.3138935496765853  0.42314147559304166  1.0000
  H   H8        1.0  0.9363705780938147  0.2811505930375731  0.32877502169655054  1.0000
  H   H9        1.0  0.03951497701270059  0.0917776341940453  0.3155659216196157  1.0000
  H   H10       1.0  0.07754518578120441  0.7749302300161176  0.27082812274076673  1.0000
  H   H11       1.0  0.049578083595747585  0.6331995491419846  0.2873890723157686  1.0000
  H   H12       1.0  0.110809800048294  0.7749025073145789  0.11834567714359424  1.0000
  H   H13       1.0  0.7073639347180247  0.7434429486821372  0.9733036420073519  1.0000
  H   H14       1.0  0.5357593392494665  0.6873721540711202  0.1017032281277181  1.0000
  H   H15       1.0  0.6621185721283069  0.6725233859023519  0.2423102878595885  1.0000
  H   H16       1.0  0.07919766249727901  0.116774541873454  0.8041846679094746  1.0000
  H   H17       1.0  0.008907394478761401  0.1478280444656974  0.6999342994422689  1.0000
  H   H18       1.0  0.7955002918605986  0.0810350873474448  0.8563050008875308  1.0000
  H   H19       1.0  0.7163260909973987  0.1295066002423084  0.7550797974028499  1.0000
  H   H20       1.0  0.831061443180353  0.0303033589035238  0.6312284266458407  1.0000
  H   H21       1.0  0.8679838665352619  0.8448362834425538  0.5893769500950725  1.0000
  H   H22       1.0  0.9085107619503958  0.6828484614787129  0.6974303059023583  1.0000
  H   H23       1.0  0.916502786456654  0.7059626715741558  0.8491800313848615  1.0000
  H   H24       1.0  0.8762937284776625  0.8900055333599043  0.8913703830540527  1.0000
  H   H25       1.0  0.9327946589293532  0.2369891448585406  0.9088778282027337  1.0000
  H   H26       1.0  0.9416108428210778  0.37605518489056783  0.865483129475443  1.0000
  H   H27       1.0  0.15847200251273824  0.2240026899343803  0.005002985758729003  1.0000
  H   H28       1.0  0.6351274134425893  0.266947600739968  0.9193065080284769  1.0000
  H   H29       1.0  0.5387384428611028  0.3410340744838649  0.7747981201601917  1.0000
  H   H30       1.0  0.23791665477686053  0.3519046349816932  0.7454902616091843  1.0000
  H   H31       1.0  0.5041644770011544  0.2116628262549582  0.3054458958978615  1.0000
  H   H32       1.0  0.5858251509437836  0.2136979986973913  0.202826276215248  1.0000
  H   H33       1.0  0.31008177421711036  0.1991639647284629  0.1448877803676538  1.0000
  H   H34       1.0  0.21745319374757346  0.2146250784518173  0.24375002019357342  1.0000
  H   H35       1.0  0.3464996498135307  0.0197393788697795  0.1129763091134635  1.0000
  H   H36       1.0  0.38047135277372485  0.8196339016223179  0.1573792279645758  1.0000
  H   H37       1.0  0.4011765881361313  0.7454259372157921  0.30971830892085717  1.0000
  H   H38       1.0  0.3860313216474864  0.8720444842565344  0.415885724133517  1.0000
  H   H39       1.0  0.3527118044562414  0.0719510103517678  0.37200684922871835  1.0000
  H   H40       1.0  0.4494047021248448  0.4912275176897509  0.1333366189798539  1.0000
  H   H41       1.0  0.45224878953425923  0.3638547500924147  0.0932062880636551  1.0000
  H   H42       1.0  0.6862970400790758  0.3684518263065399  0.0042288125807701015  1.0000
  H   H43       1.0  0.15278270125070748  0.3946383640314366  0.0927333230106484  1.0000
  H   H44       1.0  0.040849831813496  0.4444560586981225  0.2295854455940471  1.0000
  H   H45       1.0  0.7378720424078224  0.446862226117041  0.2545093432403505  1.0000
  H   H46       1.0  0.5743527733669681  0.6794940145924216  0.7236904985676205  1.0000
  H   H47       1.0  0.5317513214241459  0.5448799142782264  0.7109201809653953  1.0000
  H   H48       1.0  0.1493909719589865  0.5832318257375562  0.7647638695949013  1.0000
  H   H49       1.0  0.17266375043813298  0.5725683701276978  0.02182201628470889  1.0000
  H   H50       1.0  0.4760952333290049  0.5968877023665371  0.01511441462783841  1.0000
  H   H51       1.0  0.615629541002896  0.6249928141126873  0.874396383524406  1.0000
  H   H52       1.0  0.28714415039468827  0.7953740916544305  0.7168286787433829  1.0000
  H   H53       1.0  0.18693745879186713  0.7920522597111272  0.6210552088664798  1.0000
  H   H54       1.0  0.5470365389229386  0.8463936469702205  0.6390602966771226  1.0000
  H   H55       1.0  0.45095485686218245  0.8360946633482486  0.5431297284579132  1.0000
  H   H56       1.0  0.5307653445554763  0.0128111496056036  0.69483914361183  1.0000
  H   H57       1.0  0.4337105090872626  0.2079324921507251  0.6833652830601409  1.0000
  H   H58       1.0  0.2078726429741948  0.2809320729195548  0.5851772569198559  1.0000
  H   H59       1.0  0.0815625828094184  0.1574233606926967  0.4981756448106225  1.0000
  H   H60       1.0  0.18365730142841133  0.9642575279394663  0.507204794493731  1.0000
  C   C1        1.0  0.8327070705600333  0.6447819307705203  0.402207640693355  1.0000
  C   C2        1.0  0.8147754387872155  0.8416114809546329  0.3489940626040919  1.0000
  C   C3        1.0  0.9314624315872991  0.9020453395638484  0.39736167659231814  1.0000
  C   C4        1.0  0.8653782739920075  0.016652374515985  0.4040086562968029  1.0000
  C   C5        1.0  0.731934032228871  0.036061527088016  0.45711572371926223  1.0000
  C   C6        1.0  0.6715154644818143  0.1421669057365875  0.4637475487681968  1.0000
  C   C7        1.0  0.7449880162428214  0.2308567202032634  0.41768767411457475  1.0000
  C   C8        1.0  0.8772566600661237  0.2125866445150848  0.3643001374283231  1.0000
  C   C9        1.0  0.9356839942279791  0.1061298398558179  0.3569661230497232  1.0000
  C   C10       1.0  0.9845495289899234  0.7137600890689555  0.2740678928504039  1.0000
  C   C11       1.0  0.8974843779516064  0.7230732860391171  0.1914725736309891  1.0000
  C   C12       1.0  0.9824846453642523  0.7542808942369773  0.11630556989418755  1.0000
  C   C13       1.0  0.7590341013133893  0.7367829773240331  0.03614205468295491  1.0000
  C   C14       1.0  0.6636772792365805  0.7056772908230116  0.10714494347910636  1.0000
  C   C15       1.0  0.7340116731941534  0.6981685155736486  0.1860472861322791  1.0000
  C   C16       1.0  0.8822935529480986  0.3421005831195671  0.7169791714245122  1.0000
  C   C17       1.0  0.973939344299417  0.1515306558683847  0.7656590288966428  1.0000
  C   C18       1.0  0.8222221359392279  0.0857430543677253  0.7887320760222779  1.0000
  C   C19       1.0  0.8470334878743415  0.9728996724576504  0.7643303867272095  1.0000
  C   C20       1.0  0.8482216856328151  0.9591508432411544  0.679175484699222  1.0000
  C   C21       1.0  0.8690504326082333  0.8552241427841595  0.6555559155638236  1.0000
  C   C22       1.0  0.8907110681271035  0.7637653196578214  0.7165564658358151  1.0000
  C   C23       1.0  0.8932922327464824  0.7766188686893045  0.8014049813393811  1.0000
  C   C24       1.0  0.8718522232476006  0.8808790569383476  0.8249211736321558  1.0000
  C   C25       1.0  0.9917761180967871  0.2930746161939055  0.8599417127753384  1.0000
  C   C26       1.0  0.174682582672304  0.286410567967927  0.873169686595439  1.0000
  C   C27       1.0  0.2409715609048746  0.2490566737640236  0.9524489736426178  1.0000
  C   C28       1.0  0.5041787660592263  0.2743324392059776  0.9051289768142966  1.0000
  C   C29       1.0  0.4510407867617232  0.3141846380427467  0.8242184716730065  1.0000
  C   C30       1.0  0.28332847482649737  0.3204393687342275  0.8081145146293593  1.0000
  C   C31       1.0  0.383785549478347  0.413524046768508  0.2816527063686253  1.0000
  C   C32       1.0  0.47679398196569883  0.2367510557747323  0.23880777674003184  1.0000
  C   C33       1.0  0.3267864824696859  0.1807234759631697  0.21312786017380603  1.0000
  C   C34       1.0  0.34635509103784307  0.0593771344564047  0.2392317282143708  1.0000
  C   C35       1.0  0.3543743043105252  0.98717930987128  0.17953239362175571  1.0000
  C   C36       1.0  0.37346672780976325  0.8747352170530291  0.2045922020085627  1.0000
  C   C37       1.0  0.38544124960112214  0.8330997962084012  0.2896171881991875  1.0000
  C   C38       1.0  0.3779334025766162  0.9046537196292946  0.3494773734467245  1.0000
  C   C39       1.0  0.359059034171139  0.0168700792604284  0.32459358678714517  1.0000
  C   C40       1.0  0.5039107859787677  0.4073051925143147  0.14095889669469844  1.0000
  C   C41       1.0  0.6879192177921353  0.4065248800033316  0.1309117450363786  1.0000
  C   C42       1.0  0.7627458948718698  0.3839333243692664  0.0558965572755028  1.0000
  C   C43       1.0  0.0205919382389226  0.3998746931281191  0.1048300825172745  1.0000
  C   C44       1.0  0.9587251275262858  0.4261590756819729  0.18129271897889515  1.0000
  C   C45       1.0  0.7895911162141616  0.428354061345054  0.1947798792940176  1.0000
  C   C46       1.0  0.3281550206747069  0.6045758598023383  0.5949868941741911  1.0000
  C   C47       1.0  0.4747551095109159  0.6233400518767809  0.7237262225687785  1.0000
  C   C48       1.0  0.3919021991566964  0.6093139956448823  0.8083086305306679  1.0000
  C   C49       1.0  0.22547441270372562  0.589093546366037  0.8190546493493684  1.0000
  C   C50       1.0  0.23861263071661654  0.5807848896399008  0.9618763868453044  1.0000
  C   C51       1.0  0.4068147888419134  0.5962859566684173  0.9581138113529023  1.0000
  C   C52       1.0  0.48456621296016783  0.6116842866265202  0.8801265467145214  1.0000
  C   C53       1.0  0.3067726073376775  0.7799888076735186  0.6517041050325005  1.0000
  C   C54       1.0  0.4287382471841426  0.8579931514438216  0.6064636667699334  1.0000
  C   C55       1.0  0.3654888663959213  0.9753881926076177  0.6013557142797411  1.0000
  C   C56       1.0  0.4322933073649296  0.044834131378152606  0.6516773080600943  1.0000
  C   C57       1.0  0.37733473008040613  0.1544757852201784  0.6453061142617287  1.0000
  C   C58       1.0  0.2516974094176589  0.1955151679817035  0.5898493362871022  1.0000
  C   C59       1.0  0.18120718714828138  0.1263829040776514  0.5407938315648194  1.0000
  C   C60       1.0  0.2383884452352731  0.0173886568539388  0.5463284549834172  1.0000
  S   S1        1.0  0.7095813650249667  0.6751545964278947  0.4858614187409387  1.0000
  S   S2        1.0  0.8957433600825836  0.5125805208638496  0.39373150387250183  1.0000
  S   S3        1.0  0.8543913734243062  0.47582103399589226  0.7306853682135497  1.0000
  S   S4        1.0  0.825324333189201  0.2993065164252968  0.6235484549686986  1.0000
  S   S5        1.0  0.3184914289951735  0.34085958453888315  0.375557693725014  1.0000
  S   S6        1.0  0.35889513516080745  0.5523471054752775  0.2639726263611876  1.0000
  S   S7        1.0  0.20811909707131088  0.6672283499082852  0.5118055119726108  1.0000
  S   S8        1.0  0.3952351119467963  0.4702332788885144  0.6001425778519689  1.0000
  N   N1        1.0  0.8743178167176993  0.7285028586730106  0.34463094763246005  1.0000
  N   N2        1.0  0.9167058709309117  0.7610819252235004  0.0399495625746198  1.0000
  N   N3        1.0  0.9478756097914101  0.2663531934040151  0.7775313359862964  1.0000
  N   N4        1.0  0.40203001931210036  0.2430506320128245  0.9692517099007532  1.0000
  N   N5        1.0  0.4533967873435572  0.3557197679376856  0.2239865210494116  1.0000
  N   N6        1.0  0.9253414034378481  0.3791699119459011  0.04248850587952551  1.0000
  N   N7        1.0  0.3646548419359377  0.6651956235865768  0.6545269059620936  1.0000
  N   N8        1.0  0.14876201687251717  0.5758959096860323  0.8937920233242593  1.0000
