data_image0
_chemical_formula_structural       Zn8H39C67NO27
_chemical_formula_sum              "Zn8 H39 C67 N1 O27"
_cell_length_a       18.488990905378415
_cell_length_b       18.493436977634378
_cell_length_c       18.492990667201433
_cell_angle_alpha    120.07310487459559
_cell_angle_beta     90.13538109658518
_cell_angle_gamma    119.8579581880595

_space_group_name_H-M_alt    "P 1"
_space_group_IT_number       1

loop_
  _space_group_symop_operation_xyz
  'x, y, z'

loop_
  _atom_site_type_symbol
  _atom_site_label
  _atom_site_symmetry_multiplicity
  _atom_site_fract_x
  _atom_site_fract_y
  _atom_site_fract_z
  _atom_site_occupancy
  Zn  Zn1       1.0  0.4566120795276873  0.41184760680566534  0.5422116099610649  1.0000
  Zn  Zn2       1.0  0.4549539606763701  0.5834920855072312  0.5416556807658636  1.0000
  Zn  Zn3       1.0  0.4570627757943271  0.41179578831980024  0.36866403281717913  1.0000
  Zn  Zn4       1.0  0.62972665489675  0.5861811784637467  0.5422023359313215  1.0000
  Zn  Zn5       1.0  0.04272665776053234  0.5847861741696222  0.9548839277672485  1.0000
  Zn  Zn6       1.0  0.04270590764962629  0.5855091418900642  0.12837430172631767  1.0000
  Zn  Zn7       1.0  0.0407953531066738  0.41018267885296916  0.9541082082765583  1.0000
  Zn  Zn8       1.0  0.8686236228911143  0.4123448790288222  0.9548034986445728  1.0000
  H   H1        1.0  0.6057850352274344  0.6342436090616629  0.9315741977619397  1.0000
  H   H2        1.0  0.9703373940858455  0.7131341104345097  0.3736652829001699  1.0000
  H   H3        1.0  0.8702882106371136  0.6124968088950453  0.46579463454260417  1.0000
  H   H4        1.0  0.7085697473513264  0.4303049410071154  0.5298118731596304  1.0000
  H   H5        1.0  0.8736319330051149  0.7124360400741312  0.46991140818401794  1.0000
  H   H6        1.0  0.5834846910181  0.9028665390910148  0.6982978971477537  1.0000
  H   H7        1.0  0.6784665303712529  0.0929905747224851  0.7944447254469011  1.0000
  H   H8        1.0  0.9645686068925342  0.09421637559004381  0.7498541272691384  1.0000
  H   H9        1.0  0.9643087218123795  0.09435284959189259  0.8462756848767369  1.0000
  H   H10       1.0  0.8684117360047665  0.9011646400677549  0.6530160912789925  1.0000
  H   H11       1.0  0.8679010373765905  0.9012277725373397  0.7493798439142695  1.0000
  H   H12       1.0  0.20105155869625688  0.9028952989247045  0.08506861209359327  1.0000
  H   H13       1.0  0.3010180987273614  0.3864351339321389  0.17942392537835877  1.0000
  H   H14       1.0  0.20619240905086397  0.3875762656891125  0.08486875139210068  1.0000
  H   H15       1.0  0.24263552371699867  0.7128563414341187  0.3727099485550269  1.0000
  H   H16       1.0  0.7986189886852841  0.3661794596954166  0.47081089029781953  1.0000
  H   H17       1.0  0.14787697561514793  0.6117244146154093  0.36919561160885916  1.0000
  H   H18       1.0  0.3063789409119835  0.39187850298685595  0.7102962536564519  1.0000
  H   H19       1.0  0.2104724154905497  0.39067390608657604  0.8044178250595166  1.0000
  H   H20       1.0  0.14210856203555985  0.6058730591581921  0.739137592670204  1.0000
  H   H21       1.0  0.23821744000554895  0.7076117994817394  0.8355547735331327  1.0000
  H   H22       1.0  0.2385177177359452  0.606647107708838  0.6429568858681377  1.0000
  H   H23       1.0  0.15417949085194507  0.9025620936192597  0.37027640274505563  1.0000
  H   H24       1.0  0.33464276847405466  0.7081453433920686  0.7391327209834131  1.0000
  H   H25       1.0  0.8942909931956676  0.3659974604986331  0.5666522494256157  1.0000
  H   H26       1.0  0.8993972897165605  0.4301078739371819  0.7208219744479294  1.0000
  H   H27       1.0  0.7926348084414628  0.5716509573689451  0.9690502378763739  1.0000
  H   H28       1.0  0.7016153046310836  0.6344237754495269  0.027516315451940488  1.0000
  H   H29       1.0  0.6015786215249436  0.5713209331643156  0.7777268413288425  1.0000
  H   H30       1.0  0.2957102383860287  0.0930860118213559  0.18018708302940917  1.0000
  H   H31       1.0  0.35795544712683386  0.7980627371161263  0.5453072753653389  1.0000
  H   H32       1.0  0.17032242517964155  0.5496055761501781  0.4475858205063902  1.0000
  H   H33       1.0  0.2666841542781953  0.5868767387248894  0.5007964505422748  1.0000
  H   H34       1.0  0.25062571755343305  0.9026583157627499  0.37005941111286944  1.0000
  H   H35       1.0  0.2505206503942646  0.09564277587378457  0.46712231245187036  1.0000
  H   H36       1.0  0.346898627449292  0.09571498161832892  0.46674066273568826  1.0000
  H   H37       1.0  0.5875406876402065  0.38901985691281726  0.18129011083367885  1.0000
  H   H38       1.0  0.6824942891448912  0.3904943181235084  0.08627437802249459  1.0000
  H   H39       1.0  0.9663816226674699  0.6125488211620008  0.3689006766439108  1.0000
  C   C1        1.0  0.6350277989558178  0.7742317958135488  0.6355423224379066  1.0000
  C   C2        1.0  0.7005641213082328  0.6066533811368161  0.9594769388264623  1.0000
  C   C3        1.0  0.6461061330487183  0.6065299852482582  0.904966028764086  1.0000
  C   C4        1.0  0.36054110709513043  0.2221825963217228  0.3602714195513386  1.0000
  C   C5        1.0  0.6439961236835714  0.5717249860620087  0.8191612215385716  1.0000
  C   C6        1.0  0.27636209943005946  0.05228323359588672  0.3397364454097982  1.0000
  C   C7        1.0  0.30397365031222984  0.10849642704604891  0.3039115790377451  1.0000
  C   C8        1.0  0.2753040283902024  0.05152310485460282  0.2103751439207358  1.0000
  C   C9        1.0  0.2223241196865615  0.9449736700942708  0.15706446092475096  1.0000
  C   C10       1.0  0.19463216752594564  0.8886275860095482  0.19393122184852982  1.0000
  C   C11       1.0  0.22316299995257086  0.9454140609557272  0.28623022873582477  1.0000
  C   C12       1.0  0.8571602000981926  0.42996758020598236  0.6794863724842698  1.0000
  C   C13       1.0  0.22023265858857854  0.9386073999986095  0.3646061789102929  1.0000
  C   C14       1.0  0.28055290436129343  0.0595806337145603  0.4252093785869562  1.0000
  C   C15       1.0  0.7881503960191835  0.5615075849581502  0.34065585651580227  1.0000
  C   C16       1.0  0.36178853929889243  0.4987903886565306  0.6379747302188363  1.0000
  C   C17       1.0  0.6960538702687201  0.49977809271595675  0.30489417194626617  1.0000
  C   C18       1.0  0.6593572130091586  0.4380396732440701  0.21144707478652694  1.0000
  C   C19       1.0  0.7125450685362722  0.4388634957478176  0.15820956440207823  1.0000
  C   C20       1.0  0.805836027478371  0.5012777557044857  0.1949993907031597  1.0000
  C   C21       1.0  0.8414860885944435  0.5620718748000331  0.2872467418893266  1.0000
  C   C22       1.0  0.9267398043952539  0.6402306194100122  0.3656572277657021  1.0000
  C   C23       1.0  0.8053905789579615  0.46720277169027463  0.7162627552172012  1.0000
  C   C24       1.0  0.8663543460477143  0.6398215476322591  0.4261247757775095  1.0000
  C   C25       1.0  0.7841638834205683  0.9442925226232719  0.7218613383751065  1.0000
  C   C26       1.0  0.6920071495014427  0.8878697782292377  0.6926787922970163  1.0000
  C   C27       1.0  0.6553131381105574  0.9445986961352094  0.7204373836204072  1.0000
  C   C28       1.0  0.6386677969695143  0.49806384794727887  0.36105687436594286  1.0000
  C   C29       1.0  0.7085811645705674  0.05118567938789909  0.7742141693492215  1.0000
  C   C30       1.0  0.8019321929539415  0.10778290601388113  0.8034845803059483  1.0000
  C   C31       1.0  0.8375294169639956  0.0511278032361631  0.7756348881206776  1.0000
  C   C32       1.0  0.9228442291030063  0.0581916132470965  0.7798254096532063  1.0000
  C   C33       1.0  0.8624827823872111  0.9372257767701626  0.719101441080177  1.0000
  C   C34       1.0  0.7500753746938499  0.46719107825379064  0.6608950836873858  1.0000
  C   C35       1.0  0.2754224650202985  0.5612147147382416  0.3388167852360411  1.0000
  C   C36       1.0  0.30522679224417004  0.49889689671234555  0.30322730462437164  1.0000
  C   C37       1.0  0.279039287147107  0.4363346864301363  0.2098605400706433  1.0000
  C   C38       1.0  0.22599353629050972  0.4371079559386787  0.1568757319688103  1.0000
  C   C39       1.0  0.19603536710378225  0.5005049087701964  0.19383664757275912  1.0000
  C   C40       1.0  0.3604725300690674  0.49701938748119556  0.35989481850524646  1.0000
  C   C41       1.0  0.22250984043898117  0.5621743765735872  0.28617855588084506  1.0000
  C   C42       1.0  0.21445787907866518  0.6397014767490246  0.364058962328201  1.0000
  C   C43       1.0  0.2755287312081266  0.6393853011340485  0.4254108744530429  1.0000
  C   C44       1.0  0.2720631185482604  0.5583528713816578  0.7186510261195663  1.0000
  C   C45       1.0  0.804661279823506  0.5011244626352608  0.8034069819176396  1.0000
  C   C46       1.0  0.30496917648206084  0.4991313002367335  0.6947397173067174  1.0000
  C   C47       1.0  0.2814041909651053  0.4387193773863274  0.7274249933247887  1.0000
  C   C48       1.0  0.22770610009195738  0.4380911948736851  0.7801859467654565  1.0000
  C   C49       1.0  0.19435773909377477  0.49803535239158964  0.8038259383596369  1.0000
  C   C50       1.0  0.21847651968899845  0.5579663065611555  0.7718439813116902  1.0000
  C   C51       1.0  0.20963886202108048  0.6345716336919554  0.7706296020797083  1.0000
  C   C52       1.0  0.6390366588229169  0.5004032862937181  0.6377998125609848  1.0000
  C   C53       1.0  0.2701318566851611  0.6349068643532049  0.7103189700448809  1.0000
  C   C54       1.0  0.86190564845851  0.5009355987848139  0.13747498878102954  1.0000
  C   C55       1.0  0.13652685478399465  0.4964809652952057  0.8595900566404922  1.0000
  C   C56       1.0  0.7515721521400495  0.5352034127243926  0.8380613696503687  1.0000
  C   C57       1.0  0.138058214343147  0.7749598747869019  0.13659427465159996  1.0000
  C   C58       1.0  0.8585335396269753  0.2214816693347075  0.8603607206132935  1.0000
  C   C59       1.0  0.13822607483422195  0.4993916486702902  0.13660916270015383  1.0000
  C   C60       1.0  0.8616174950888861  0.500417031647686  0.8605770220516932  1.0000
  C   C61       1.0  0.7497160168246778  0.4301075151460978  0.5719072318312115  1.0000
  C   C62       1.0  0.8003076112265787  0.3947541811631439  0.5391123822393027  1.0000
  C   C63       1.0  0.8546228378810667  0.3946328915281683  0.5935206203046022  1.0000
  C   C64       1.0  0.3631970038008063  0.7442173281043978  0.4838519510862723  1.0000
  C   C65       1.0  0.6962293077986601  0.5351320475692419  0.7826573078877886  1.0000
  C   C66       1.0  0.6968694538028329  0.5010697544387811  0.6954934000767992  1.0000
  C   C67       1.0  0.7516343460828666  0.5719475632299051  0.9269199135874755  1.0000
  N   N1        1.0  0.2351538539646327  0.6102464980620966  0.4820453301503775  1.0000
  O   O1        1.0  0.4996780363897528  0.498299769942868  0.4988049224547311  1.0000
  O   O2        1.0  0.9422147366723054  0.26485830787326853  0.8815375224903192  1.0000
  O   O3        1.0  0.11698321648710676  0.5618426421522571  0.1769848139361017  1.0000
  O   O4        1.0  0.6754542884224933  0.7310024851861102  0.612611995986761  1.0000
  O   O5        1.0  0.821613351189157  0.4375289019777641  0.8808751245813086  1.0000
  O   O6        1.0  0.1146253975997951  0.4365383679107211  0.05288444392180483  1.0000
  O   O7        1.0  0.9450774362086206  0.5627005434050574  0.8837339482907112  1.0000
  O   O8        1.0  0.11736511568280156  0.7304828242425998  0.05281583290378931  1.0000
  O   O9        1.0  0.819568567254862  0.2663507614788542  0.8832605337459967  1.0000
  O   O10       1.0  0.9455815277390087  0.5595872487270342  0.17729480253985497  1.0000
  O   O11       1.0  0.11568451723106683  0.4363088218749099  0.8829882647363831  1.0000
  O   O12       1.0  0.3879585134882504  0.4412261460326548  0.6193608190888752  1.0000
  O   O13       1.0  0.3825929911069537  0.26617908682535335  0.44412421030012444  1.0000
  O   O14       1.0  0.3796441653113902  0.5567143542851555  0.6124407277041968  1.0000
  O   O15       1.0  0.5550779725047618  0.43658474882740717  0.32128999298091543  1.0000
  O   O16       1.0  0.3742337972376788  0.5506806540344372  0.44324800263621716  1.0000
  O   O17       1.0  0.6782273150935582  0.5641977322074042  0.6183039312417833  1.0000
  O   O18       1.0  0.38873549831797755  0.4419392693557996  0.32116138923490206  1.0000
  O   O19       1.0  0.5557956577796189  0.43598840688410695  0.6133164970185803  1.0000
  O   O20       1.0  0.4320355795603064  0.7698702140260991  0.4675513903664026  1.0000
  O   O21       1.0  0.6784679025388058  0.5586657077681209  0.4449643586556035  1.0000
  O   O22       1.0  0.5512604845131364  0.7293842781059467  0.6144290784998105  1.0000
  O   O23       1.0  0.3822721868470609  0.26623959885458254  0.320739779426944  1.0000
  O   O24       1.0  0.9986920014872209  0.49822017757207254  0.998160397868368  1.0000
  O   O25       1.0  0.8223000799863628  0.44265953660506346  0.05377972307830705  1.0000
  O   O26       1.0  0.11226186047134953  0.5559350047127226  0.8790332923888399  1.0000
  O   O27       1.0  0.11490431443611025  0.7313732260037612  0.1765978742127318  1.0000
