data_image0
_chemical_formula_structural       Zn2H22C21N2O11
_chemical_formula_sum              "Zn2 H22 C21 N2 O11"
_cell_length_a       7.32455678762504
_cell_length_b       8.913032402512167
_cell_length_c       16.20491842861527
_cell_angle_alpha    85.93605914521372
_cell_angle_beta     74.5590647322017
_cell_angle_gamma    86.7683291985085

_space_group_name_H-M_alt    "P 1"
_space_group_IT_number       1

loop_
  _space_group_symop_operation_xyz
  'x, y, z'

loop_
  _atom_site_type_symbol
  _atom_site_label
  _atom_site_symmetry_multiplicity
  _atom_site_fract_x
  _atom_site_fract_y
  _atom_site_fract_z
  _atom_site_occupancy
  Zn  Zn1       1.0  0.6993989112688582  0.5163087627105938  0.46405502260756754  1.0000
  Zn  Zn2       1.0  0.30756536812469176  0.485697406907093  0.5369874798303017  1.0000
  H   H1        1.0  0.7414791337488537  0.6610066374250892  0.8977423130401192  1.0000
  H   H2        1.0  0.3917246193172943  0.7293681483131778  0.9411876360978371  1.0000
  H   H3        1.0  0.22203353488541916  0.593733938945647  0.9417379001617405  1.0000
  H   H4        1.0  0.6415620468218604  0.2983678860367931  0.055952406034101926  1.0000
  H   H5        1.0  0.5714256076847661  0.26052933646799664  0.9249460873998816  1.0000
  H   H6        1.0  0.910272482892516  0.7958832154122463  0.9735658973703707  1.0000
  H   H7        1.0  0.8882275085051107  0.7539872511210747  0.08549662935521239  1.0000
  H   H8        1.0  0.7838376468003858  0.9256292739131528  0.05008823616479674  1.0000
  H   H9        1.0  0.031672216729752685  0.6078618818138964  0.2033697873697164  1.0000
  H   H10       1.0  0.11846428935268696  0.41543404059196837  0.2087014700354217  1.0000
  H   H11       1.0  0.8987703485518639  0.4601536765249818  0.1820438791746994  1.0000
  H   H12       1.0  0.7793462128307524  0.5321257805464726  0.05603941776735874  1.0000
  H   H13       1.0  0.547767752742054  0.066344227542686  0.125814454044523  1.0000
  H   H14       1.0  0.4209566062745154  0.05256683738159751  0.045928660710643505  1.0000
  H   H15       1.0  0.2989244775285088  0.03456540715950501  0.15734014784734998  1.0000
  H   H16       1.0  0.8134516330233125  0.47086876710641684  0.9148955414004264  1.0000
  H   H17       1.0  0.3280082134992242  0.315661476373606  0.9662075767554867  1.0000
  H   H18       1.0  0.28611303605303107  0.9974144575240018  0.5250097851612312  1.0000
  H   H19       1.0  0.7230916395419557  0.004541537545293296  0.47599287411971153  1.0000
  H   H20       1.0  0.9000828189061066  0.4874121905699553  0.5860188576284886  1.0000
  H   H21       1.0  0.10711194941347196  0.5107151459111564  0.4153493902092578  1.0000
  H   H22       1.0  0.2800914638668459  0.6988791942765078  0.09034284164559378  1.0000
  C   C1        1.0  0.4635198809316277  0.788917502839901  0.5024591264904785  1.0000
  C   C2        1.0  0.5764183259734639  0.0475894097058429  0.4936872441608172  1.0000
  C   C3        1.0  0.5056800489272317  0.5114275209991632  0.33315741940618443  1.0000
  C   C4        1.0  0.5455721936351522  0.2130350532394942  0.4986507492037475  1.0000
  C   C5        1.0  0.49859083706686397  0.4927396832692565  0.6680662092578944  1.0000
  C   C6        1.0  0.6611638069922064  0.582055951159262  0.03168424254622691  1.0000
  C   C7        1.0  0.30244715819495127  0.5899439579841257  0.05998724279433533  1.0000
  C   C8        1.0  0.3499504087338608  0.613440326647023  0.9618631577705159  1.0000
  C   C9        1.0  0.5159559637616623  0.49598123077154815  0.754447205457268  1.0000
  C   C10       1.0  0.4762445708898114  0.5048391190412149  0.08436163364214622  1.0000
  C   C11       1.0  0.8153325378605771  0.8060730181759226  0.03863775341901032  1.0000
  C   C12       1.0  0.697841028107888  0.5554050844856848  0.9353032400461175  1.0000
  C   C13       1.0  0.04226746950841688  0.49773474680029756  0.17494978153391832  1.0000
  C   C14       1.0  0.4116665831503568  0.09321514316248879  0.10978010691535194  1.0000
  C   C15       1.0  0.5135204756412435  0.5033744692972704  0.9187702413968424  1.0000
  C   C16       1.0  0.474078870695159  0.3435980200976303  0.9628525655105521  1.0000
  C   C17       1.0  0.4968782587339007  0.3409525024370552  0.0550464026411248  1.0000
  C   C18       1.0  0.5228942840944982  0.4999727114910898  0.8284130479198809  1.0000
  C   C19       1.0  0.47154384007495753  0.5068933534692589  0.1742847916774793  1.0000
  C   C20       1.0  0.4870434366644644  0.5110204479179574  0.24691056991255783  1.0000
  C   C21       1.0  0.43274821922930323  0.9542672846324084  0.5078563604736459  1.0000
  N   N1        1.0  0.025011316454119005  0.49034158968365915  0.5352316454689119  1.0000
  N   N2        1.0  0.9820546689718197  0.5089962109348322  0.46609069742170567  1.0000
  O   O1        1.0  0.633432288298465  0.7351433506309352  0.4798478372295564  1.0000
  O   O2        1.0  0.13146721875538958  0.5100958931952563  0.08486548418096622  1.0000
  O   O3        1.0  0.3635790685756817  0.2498358279626772  0.11448767597443074  1.0000
  O   O4        1.0  0.31393173131103685  0.7129507301396744  0.5219375448800889  1.0000
  O   O5        1.0  0.6707991773901866  0.5294514661415023  0.34192383683955546  1.0000
  O   O6        1.0  0.35654235471859863  0.4925251966244702  0.3947626516458413  1.0000
  O   O7        1.0  0.6935009048536572  0.2897928862089359  0.47007592727933195  1.0000
  O   O8        1.0  0.3776591815706922  0.2657132378672174  0.5298200680894142  1.0000
  O   O9        1.0  0.6502898790375795  0.493010434021251  0.6067390968163124  1.0000
  O   O10       1.0  0.33099102259306795  0.4901629254194758  0.6592676140898137  1.0000
  O   O11       1.0  0.6385012121302509  0.7386299504177246  0.048045131156371206  1.0000
