data_image0
_chemical_formula_structural       Ho2H20C20N4O18
_chemical_formula_sum              "Ho2 H20 C20 N4 O18"
_cell_length_a       6.504026609400215
_cell_length_b       9.804294755133323
_cell_length_c       10.781863806573025
_cell_angle_alpha    100.20063602393715
_cell_angle_beta     102.92051389438787
_cell_angle_gamma    107.4555883141819

_space_group_name_H-M_alt    "P 1"
_space_group_IT_number       1

loop_
  _space_group_symop_operation_xyz
  'x, y, z'

loop_
  _atom_site_type_symbol
  _atom_site_label
  _atom_site_symmetry_multiplicity
  _atom_site_fract_x
  _atom_site_fract_y
  _atom_site_fract_z
  _atom_site_occupancy
  Ho  Ho1       1.0  0.3281076792576555  0.4087522044333268  0.19986300653285827  1.0000
  Ho  Ho2       1.0  0.6718847081138718  0.5912536066772985  0.800131387550209  1.0000
  H   H1        1.0  0.2892637989059493  0.6031406949605581  0.02560013513769375  1.0000
  H   H2        1.0  0.7107368723975825  0.3968596046892472  0.974390005379504  1.0000
  H   H3        1.0  0.5550200008523802  0.6406673871793983  0.07851562135325448  1.0000
  H   H4        1.0  0.4449874194106017  0.35933398417225965  0.9214784993488646  1.0000
  H   H5        1.0  0.9470813641715878  0.16343118692972777  0.24911082688740285  1.0000
  H   H6        1.0  0.0529226499541834  0.8365701440074175  0.7508874088963037  1.0000
  H   H7        1.0  0.9484431116320521  0.1539046745243198  0.09484012770653995  1.0000
  H   H8        1.0  0.051558573957343874  0.8460955236502842  0.9051603580177666  1.0000
  H   H9        1.0  0.31820109115927414  0.06676744931725412  0.11034260533007507  1.0000
  H   H10       1.0  0.6818057783505649  0.9332272510631083  0.8896522295775565  1.0000
  H   H11       1.0  0.5059287844353335  0.17530265624033348  0.0654895690617607  1.0000
  H   H12       1.0  0.4940745787121941  0.8246975576347637  0.9345093184827886  1.0000
  H   H13       1.0  0.34699393401571405  0.8389321202858184  0.7104510927974556  1.0000
  H   H14       1.0  0.6530154576370321  0.16107032073377783  0.28954720901853637  1.0000
  H   H15       1.0  0.4584501103689433  0.11883407613165527  0.7798547183856211  1.0000
  H   H16       1.0  0.5415561302513082  0.8811683695410011  0.2201431049016235  1.0000
  H   H17       1.0  0.015494661239138502  0.6050040455852539  0.47257947958527763  1.0000
  H   H18       1.0  0.9845070446221058  0.3949994430074142  0.5274252426466146  1.0000
  H   H19       1.0  0.20382378342090854  0.0563713746710661  0.2994020433356822  1.0000
  H   H20       1.0  0.7961748003401394  0.9436232652338389  0.7005989450266126  1.0000
  C   C1        1.0  0.364330072754143  0.04929047531427951  0.6807433059764276  1.0000
  C   C2        1.0  0.6356782412977541  0.9507130580533457  0.3192568609805518  1.0000
  C   C3        1.0  0.1724342279663487  0.8439622510534546  0.5188890670137594  1.0000
  C   C4        1.0  0.8275656780230205  0.15603791339361808  0.48111485433444284  1.0000
  C   C5        1.0  0.053700161930230174  0.7029685067873147  0.4351726039028277  1.0000
  C   C6        1.0  0.9463015439310137  0.29703498180536053  0.5648321183290574  1.0000
  C   C7        1.0  0.9973210022304144  0.6895414848416976  0.2996990417594816  1.0000
  C   C8        1.0  0.00267797922094095  0.3104597989939535  0.7003039885635116  1.0000
  C   C9        1.0  0.05530728910876094  0.816436703800541  0.2503071178853061  1.0000
  C   C10       1.0  0.9446928517134836  0.1835602152960334  0.7496879733449828  1.0000
  C   C11       1.0  0.1619047919935213  0.9586346059608886  0.33647737246730697  1.0000
  C   C12       1.0  0.8380849896482729  0.041361164965266504  0.6635215285479175  1.0000
  C   C13       1.0  0.21685134299258368  0.9723170018598706  0.47137139498691005  1.0000
  C   C14       1.0  0.7831429119100335  0.027684288955384807  0.5286309175429621  1.0000
  C   C15       1.0  0.8898365796877953  0.535886124463964  0.20853532799934968  1.0000
  C   C16       1.0  0.11016740187208279  0.4641129159414561  0.7914699629028091  1.0000
  C   C17       1.0  0.0009898756993677257  0.8005511455416536  0.10597773460305851  1.0000
  C   C18       1.0  0.9989987877978804  0.1994391368963946  0.8940145585379965  1.0000
  C   C19       1.0  0.4671282710568077  0.5690322226037663  0.4989748205255038  1.0000
  C   C20       1.0  0.5328721223707261  0.43097560368743604  0.5010405969652892  1.0000
  N   N1        1.0  0.2681257206376414  0.8949514905897402  0.6552178498783758  1.0000
  N   N2        1.0  0.7318761382864379  0.1050520250434701  0.3447841161873127  1.0000
  N   N3        1.0  0.3311826857144879  0.0988967433502452  0.5759988798662616  1.0000
  N   N4        1.0  0.6688201997894865  0.9011056709214174  0.424002139780498  1.0000
  O   O1        1.0  0.6842356506022397  0.4653518043032675  0.19713043712608413  1.0000
  O   O2        1.0  0.3157669085042229  0.5346472654692389  0.802871858345497  1.0000
  O   O3        1.0  0.002105359799770567  0.47861874255379155  0.14741026127721563  1.0000
  O   O4        1.0  0.997900248297306  0.5213803045386103  0.8525943501672512  1.0000
  O   O5        1.0  0.8177049606859299  0.6971374115955058  0.03033411017622  1.0000
  O   O6        1.0  0.18228615184463592  0.3028517401139155  0.9696602319764832  1.0000
  O   O7        1.0  0.1359393254019777  0.8882011006756939  0.06064283386031375  1.0000
  O   O8        1.0  0.8640406890388446  0.11179033982414671  0.9393446157674671  1.0000
  O   O9        1.0  0.3721437057152245  0.5778625666584604  0.38613770827787147  1.0000
  O   O10       1.0  0.6278631410233401  0.4221397054308724  0.6138778099930133  1.0000
  O   O11       1.0  0.5109980165151242  0.6583949822896572  0.6096240964613882  1.0000
  O   O12       1.0  0.4889934217303277  0.3416139479822392  0.3903919898485312  1.0000
  O   O13       1.0  0.413125421537245  0.616756855249818  0.1034850038404258  1.0000
  O   O14       1.0  0.5868740498517013  0.38324122830291424  0.8965046027543191  1.0000
  O   O15       1.0  0.03661496241625167  0.20053621791904416  0.19183853788337754  1.0000
  O   O16       1.0  0.9633810228822383  0.7994706695465011  0.8081593578558637  1.0000
  O   O17       1.0  0.4356228809867701  0.16815176725222608  0.13597539110251225  1.0000
  O   O18       1.0  0.5643761091250424  0.8318373728245304  0.864020147372052  1.0000
