data_image0
_chemical_formula_structural       Ag4H32C32N20O8
_chemical_formula_sum              "Ag4 H32 C32 N20 O8"
_cell_length_a       8.118879733965771
_cell_length_b       9.988433672883838
_cell_length_c       12.561968286369035
_cell_angle_alpha    82.43831593421737
_cell_angle_beta     89.98551957271229
_cell_angle_gamma    74.00580066538438

_space_group_name_H-M_alt    "P 1"
_space_group_IT_number       1

loop_
  _space_group_symop_operation_xyz
  'x, y, z'

loop_
  _atom_site_type_symbol
  _atom_site_label
  _atom_site_symmetry_multiplicity
  _atom_site_fract_x
  _atom_site_fract_y
  _atom_site_fract_z
  _atom_site_occupancy
  Ag  Ag1       1.0  0.4870261184949526  0.0042772850908364  0.7583001053910436  1.0000
  Ag  Ag2       1.0  0.5129738032739868  0.9957205521433747  0.24170165990934586  1.0000
  Ag  Ag3       1.0  0.534146426246039  0.5575862738983305  0.39297944607282187  1.0000
  Ag  Ag4       1.0  0.46585068424000986  0.4424272896703344  0.6070166093874934  1.0000
  H   H1        1.0  0.07758349228512179  0.8678579550148341  0.2324539189867991  1.0000
  H   H2        1.0  0.9224111432201596  0.13214094477581986  0.7675469467461014  1.0000
  H   H3        1.0  0.22404564483787223  0.7020604022566773  0.28290605048450607  1.0000
  H   H4        1.0  0.7759480991432852  0.29793742311758814  0.7170917519388382  1.0000
  H   H5        1.0  0.5671556638596797  0.2517062113955788  0.9025173205302935  1.0000
  H   H6        1.0  0.43284266659745885  0.7482926609845535  0.09748194639007579  1.0000
  H   H7        1.0  0.9524129769865298  0.1264484619508934  0.2619762006248649  1.0000
  H   H8        1.0  0.047583425157853354  0.8735525383354455  0.7380252245728797  1.0000
  H   H9        1.0  0.8134589050933981  0.2949452968287858  0.20962685942041764  1.0000
  H   H10       1.0  0.1865367925749766  0.7050577992092713  0.790373540091359  1.0000
  H   H11       1.0  0.9842263819613919  0.7147672630015193  0.15831749757408892  1.0000
  H   H12       1.0  0.01577494365991332  0.2852336915304008  0.8416807354632851  1.0000
  H   H13       1.0  0.07073234488287745  0.6505804825083885  0.039396400357659914  1.0000
  H   H14       1.0  0.9292654681463542  0.3494236557915542  0.9606038785003223  1.0000
  H   H15       1.0  0.9659365263134915  0.46612356698633306  0.12803624977522082  1.0000
  H   H16       1.0  0.03406692638949245  0.5338784643339664  0.8719658391471229  1.0000
  H   H17       1.0  0.7986681772006179  0.551056790902699  0.03377119466726701  1.0000
  H   H18       1.0  0.20133298247004922  0.44894105560880593  0.9662321585162845  1.0000
  H   H19       1.0  0.7442442331536085  0.7242757941040735  0.8928972439724561  1.0000
  H   H20       1.0  0.2557629168453914  0.27572621671099995  0.10710404144511189  1.0000
  H   H21       1.0  0.9852933455672639  0.45352202604708935  0.30779708151791857  1.0000
  H   H22       1.0  0.014722898916140549  0.5464598761644338  0.6921920714885135  1.0000
  H   H23       1.0  0.14734275404881464  0.2992529610528437  0.29425060626852684  1.0000
  H   H24       1.0  0.8526814653355997  0.7007311432831856  0.7057534080805682  1.0000
  H   H25       1.0  0.48909369134830166  0.7507968889477469  0.5806465344788236  1.0000
  H   H26       1.0  0.5109090361925297  0.24919985336485692  0.4193513640072339  1.0000
  H   H27       1.0  0.9441921732181552  0.3651963075893647  0.49700925979303884  1.0000
  H   H28       1.0  0.0558103809282144  0.6348046285986514  0.5029873798964958  1.0000
  H   H29       1.0  0.9016613525086327  0.25916713908648603  0.4049267878738975  1.0000
  H   H30       1.0  0.09834049716172898  0.7408358928532408  0.5950688261296618  1.0000
  H   H31       1.0  0.1917392748867499  0.2552031628602193  0.6388266608997384  1.0000
  H   H32       1.0  0.8082632909804348  0.744797807854283  0.36117395532854607  1.0000
  C   C1        1.0  0.8131302949669816  0.9470184447376228  0.042030575534447216  1.0000
  C   C2        1.0  0.18686206819212003  0.052983655003636394  0.9579747192099717  1.0000
  C   C3        1.0  0.3094149176902262  0.9601613289121219  0.5445104842794137  1.0000
  C   C4        1.0  0.6905790090620555  0.0398323302079362  0.455491758171462  1.0000
  C   C5        1.0  0.1852405021020971  0.041769249084815385  0.46561104532288783  1.0000
  C   C6        1.0  0.8147573043059849  0.9582275458875174  0.5343908406312963  1.0000
  C   C7        1.0  0.2197520000087606  0.862911627407513  0.3687748798767601  1.0000
  C   C8        1.0  0.7802450972349817  0.1370872495059317  0.6312243897759444  1.0000
  C   C9        1.0  0.6990316437491016  0.032482660183624994  0.9596181967398395  1.0000
  C   C10       1.0  0.3009614191976837  0.9675173299953386  0.04038653307504348  1.0000
  C   C11       1.0  0.8201283946384876  0.13439663129825163  0.12159763873618351  1.0000
  C   C12       1.0  0.17986730771821163  0.8656064785503971  0.8784043513910974  1.0000
  C   C13       1.0  0.6519777017784278  0.17700197092334238  0.9640599917970151  1.0000
  C   C14       1.0  0.3480185250386612  0.8229958937213978  0.03594337231589861  1.0000
  C   C15       1.0  0.9516267495231359  0.6835403074093805  0.08253858423606888  1.0000
  C   C16       1.0  0.04836824132506482  0.31646487747508434  0.917459994281984  1.0000
  C   C17       1.0  0.8658553847506241  0.5654600452377777  0.10564620527764389  1.0000
  C   C18       1.0  0.1341450704440276  0.4345398970254379  0.8943561222199394  1.0000
  C   C19       1.0  0.7374068693923236  0.5846460466457868  0.19599715172599733  1.0000
  C   C20       1.0  0.26259481901572473  0.4153538910841163  0.8040051730392435  1.0000
  C   C21       1.0  0.747416047758854  0.8168563588389972  0.9283510970425868  1.0000
  C   C22       1.0  0.2525849385173374  0.18314568154791283  0.0716509973444417  1.0000
  C   C23       1.0  0.22080368089541477  0.43583586617364034  0.3913438889959622  1.0000
  C   C24       1.0  0.7792025682028054  0.5641650426038538  0.6086511518810411  1.0000
  C   C25       1.0  0.08762224761061792  0.36975251053216596  0.3523834391677028  1.0000
  C   C26       1.0  0.9123868100150004  0.6302399876173013  0.6476125232221719  1.0000
  C   C27       1.0  0.3903871497910743  0.8239873366088658  0.5260462350696855  1.0000
  C   C28       1.0  0.6096099497968338  0.17601154720987466  0.47395382989077467  1.0000
  C   C29       1.0  0.003564178408879583  0.29427141115996147  0.4399577523586089  1.0000
  C   C30       1.0  0.9964473639854958  0.7057284557769847  0.5600405740091432  1.0000
  C   C31       1.0  0.21026474563587527  0.1666575165469411  0.5943586565946292  1.0000
  C   C32       1.0  0.7897364070022947  0.833340309248669  0.4056423106656696  1.0000
  N   N1        1.0  0.8781388454419102  0.9920231957946513  0.12329912197405696  1.0000
  N   N2        1.0  0.12185192640538386  0.007979939092528802  0.8767036743903348  1.0000
  N   N3        1.0  0.13594426179900407  0.9988826329011147  0.37817221425461167  1.0000
  N   N4        1.0  0.8640535399207464  0.0011141482606192004  0.6218280810840682  1.0000
  N   N5        1.0  0.17430962119312463  0.8075679513335101  0.2851220027872188  1.0000
  N   N6        1.0  0.8256881781824674  0.19242882292292762  0.7148774972437125  1.0000
  N   N7        1.0  0.34689712313267057  0.7771001878554314  0.43823575741095777  1.0000
  N   N8        1.0  0.6531031403255412  0.22289657042909278  0.5617629418475403  1.0000
  N   N9        1.0  0.7119809196641426  0.22697630134926064  0.044352304974161406  1.0000
  N   N10       1.0  0.28801477800423214  0.7730267946887962  0.9556480945376152  1.0000
  N   N11       1.0  0.8411324735950316  0.8105596248256005  0.020388351795041615  1.0000
  N   N12       1.0  0.15886411559745986  0.18944454562884522  0.9796151110262843  1.0000
  N   N13       1.0  0.32141870947853585  0.0420981633397943  0.6240811525607484  1.0000
  N   N14       1.0  0.6785799814211796  0.9578996853330324  0.3759214107797321  1.0000
  N   N15       1.0  0.1250800019830152  0.17159900671136097  0.4992235221127217  1.0000
  N   N16       1.0  0.8749174580474701  0.8283988534000671  0.5007798392678495  1.0000
  N   N17       1.0  0.6605650203937118  0.9474661691582608  0.8895800600670327  1.0000
  N   N18       1.0  0.33943032620873465  0.05253797820829221  0.110420224255634  1.0000
  N   N19       1.0  0.8748394591201674  0.191626395094417  0.20110758820901248  1.0000
  N   N20       1.0  0.12515747879409392  0.8083767171262223  0.7988951944936745  1.0000
  O   O1        1.0  0.2437547486307281  0.4279686925536195  0.49226875218931815  1.0000
  O   O2        1.0  0.7562638193591197  0.572017484235566  0.5077294755566655  1.0000
  O   O3        1.0  0.6759880380467749  0.7067013975465101  0.22112161960694726  1.0000
  O   O4        1.0  0.32401364801710725  0.29329853327809735  0.778879909850538  1.0000
  O   O5        1.0  0.7038191532163721  0.4735316169207946  0.24111849533966992  1.0000
  O   O6        1.0  0.2961821864699132  0.5264693790429149  0.7588845095442096  1.0000
  O   O7        1.0  0.2979945891464554  0.4934076527015988  0.318470877350947  1.0000
  O   O8        1.0  0.7019912443362558  0.5066101317316551  0.6815223532884078  1.0000
