data_image0
_chemical_formula_structural       Er2CuH18C22N2O18
_chemical_formula_sum              "Er2 Cu1 H18 C22 N2 O18"
_cell_length_a       6.603764564413933
_cell_length_b       7.967154727922981
_cell_length_c       13.067091636962852
_cell_angle_alpha    100.96917853544413
_cell_angle_beta     92.29832625084815
_cell_angle_gamma    102.40594879668262

_space_group_name_H-M_alt    "P 1"
_space_group_IT_number       1

loop_
  _space_group_symop_operation_xyz
  'x, y, z'

loop_
  _atom_site_type_symbol
  _atom_site_label
  _atom_site_symmetry_multiplicity
  _atom_site_fract_x
  _atom_site_fract_y
  _atom_site_fract_z
  _atom_site_occupancy
  Er  Er1       1.0  0.43959964521953043  0.5709399155089656  0.14742012099386403  1.0000
  Er  Er2       1.0  0.5603958390696634  0.42906133517394823  0.8525790986769264  1.0000
  Cu  Cu1       1.0  1.051123256062334e-06  0.9999964838618782  0.4999986043131983  1.0000
  H   H1        1.0  0.843884721157245  0.7031637848383739  0.0754164748442534  1.0000
  H   H2        1.0  0.15611162065671644  0.2968347849578664  0.9245847142332619  1.0000
  H   H3        1.0  0.9029574598337505  0.7727319066321245  0.20003688845859813  1.0000
  H   H4        1.0  0.0970403806555069  0.22726671336236856  0.7999627989704265  1.0000
  H   H5        1.0  0.3277795712184144  0.2530683290011027  0.33014408454181415  1.0000
  H   H6        1.0  0.6722320734008705  0.746941967295449  0.6698641823457336  1.0000
  H   H7        1.0  0.6264174590183346  0.47088805184399274  0.4359830379877322  1.0000
  H   H8        1.0  0.37360003374911344  0.5291157631678872  0.5640229653644084  1.0000
  H   H9        1.0  0.9166227909750403  0.35952480016646865  0.513855506701084  1.0000
  H   H10       1.0  0.08339272178007215  0.640466024653499  0.4861442269457398  1.0000
  H   H11       1.0  0.7870016227628795  0.12274583656245852  0.9847985817994951  1.0000
  H   H12       1.0  0.21299386152630728  0.8772554141204554  0.01520063787129542  1.0000
  H   H13       1.0  0.6242769515181976  0.010599893396452802  0.06784881221722829  1.0000
  H   H14       1.0  0.3757154883626442  0.9894013629303802  0.9321495963828068  1.0000
  H   H15       1.0  0.8592469742734751  0.1708846712803833  0.2254756915553955  1.0000
  H   H16       1.0  0.1407434346883463  0.8291205706732896  0.7745208951955717  1.0000
  H   H17       1.0  0.987750171247754  0.047849793270401605  0.133399129703669  1.0000
  H   H18       1.0  0.012241448754537018  0.9521540591107681  0.8666003609838384  1.0000
  C   C1        1.0  0.6280697089686242  0.9803419195274969  0.3858688802146303  1.0000
  C   C2        1.0  0.3719353749084746  0.0196554268551523  0.6141307560511392  1.0000
  C   C3        1.0  0.4586898994870836  0.0297891019964567  0.3414845083141599  1.0000
  C   C4        1.0  0.5413165796296867  0.9702134520590209  0.6585173403237619  1.0000
  C   C5        1.0  0.4571375683521807  0.20907119488303752  0.3625151138271079  1.0000
  C   C6        1.0  0.5428738261870265  0.7909326526247682  0.6374885045099744  1.0000
  C   C7        1.0  0.6219591553775103  0.33112596035375214  0.4226554825983512  1.0000
  C   C8        1.0  0.3780576303585476  0.6688752720298011  0.5773486516941659  1.0000
  C   C9        1.0  0.7845299582865195  0.2723659314641156  0.464271562058343  1.0000
  C   C10       1.0  0.21548271308255815  0.7276314538289413  0.5357281947004324  1.0000
  C   C11       1.0  0.6540716714165667  0.7956729891561168  0.38082878146977345  1.0000
  C   C12       1.0  0.3459300239480426  0.2043230503482008  0.6191698720689727  1.0000
  C   C13       1.0  0.2781453881100333  0.9055981552461676  0.2714387326968364  1.0000
  C   C14       1.0  0.7218579243396662  0.0944096043439799  0.7285644931438783  1.0000
  C   C15       1.0  0.6222435277326923  0.28050044088401904  0.08585772906727128  1.0000
  C   C16       1.0  0.3777527858466101  0.7194981925364701  0.9141411713895947  1.0000
  C   C17       1.0  0.7353099722448349  0.1334513626477758  0.06396469042023509  1.0000
  C   C18       1.0  0.2646817794277326  0.8665472686345554  0.9360333748672787  1.0000
  C   C19       1.0  0.9151486155080519  0.16133897094387353  0.14725221965009888  1.0000
  C   C20       1.0  0.08484233510905169  0.8386622139766189  0.8527484534719887  1.0000
  C   C21       1.0  0.08310659311374019  0.3226081211813963  0.14722242718344344  1.0000
  C   C22       1.0  0.9168870201613613  0.6773918304052698  0.8527758338589351  1.0000
  N   N1        1.0  0.7842994967726753  0.10128391212354873  0.4461907722401292  1.0000
  N   N2        1.0  0.2157098049070215  0.8987121238750151  0.553809527538732  1.0000
  O   O1        1.0  0.7865517527378287  0.7146135013709627  0.1448819568335509  1.0000
  O   O2        1.0  0.2134477651547542  0.2853798416825201  0.8551186179147264  1.0000
  O   O3        1.0  0.8002179844677855  0.7772943464679544  0.44228016723502606  1.0000
  O   O4        1.0  0.19977963417604624  0.22269776111353684  0.5577171602641826  1.0000
  O   O5        1.0  0.5338425868607858  0.6673233692605651  0.32127362583781854  1.0000
  O   O6        1.0  0.4661552536284645  0.33267525073392085  0.6787260615912061  1.0000
  O   O7        1.0  0.0974232235911856  0.9076209340662444  0.29734363430806343  1.0000
  O   O8        1.0  0.9025773603196541  0.0923882073143361  0.7026566634974996  1.0000
  O   O9        1.0  0.3202266054241605  0.8153911619451578  0.1860743400102152  1.0000
  O   O10       1.0  0.6797699488236688  0.18461394147216487  0.8139284461235616  1.0000
  O   O11       1.0  0.5741503171608926  0.3570460683383062  0.012838051792300605  1.0000
  O   O12       1.0  0.42584820212509544  0.642955197908769  0.987161216075698  1.0000
  O   O13       1.0  0.5751798654760591  0.3319323759426426  0.1776369677494358  1.0000
  O   O14       1.0  0.4248025875953587  0.6680596326099393  0.8223608816373158  1.0000
  O   O15       1.0  0.1714430443054837  0.4194722137024698  0.23298314034203566  1.0000
  O   O16       1.0  0.8285517611869795  0.5805263907278546  0.767016498889781  1.0000
  O   O17       1.0  0.14384350664646922  0.36025264237908067  0.059936548178996  1.0000
  O   O18       1.0  0.8561546591238169  0.6397473325538316  0.9400617851591873  1.0000
