data_image0
_chemical_formula_structural       Zn3Si2H30C32O10
_chemical_formula_sum              "Zn3 Si2 H30 C32 O10"
_cell_length_a       6.242712171615559
_cell_length_b       12.229232985875582
_cell_length_c       14.28829543509557
_cell_angle_alpha    112.80562029885753
_cell_angle_beta     97.17571295058735
_cell_angle_gamma    103.6567379694737

_space_group_name_H-M_alt    "P 1"
_space_group_IT_number       1

loop_
  _space_group_symop_operation_xyz
  'x, y, z'

loop_
  _atom_site_type_symbol
  _atom_site_label
  _atom_site_symmetry_multiplicity
  _atom_site_fract_x
  _atom_site_fract_y
  _atom_site_fract_z
  _atom_site_occupancy
  Zn  Zn1       1.0  0.5000075453532062  0.5000038623671726  5.92127093942746e-07  1.0000
  Zn  Zn2       1.0  0.9467401554421926  0.44423296335730816  0.8827171688218556  1.0000
  Zn  Zn3       1.0  0.05327238128059261  0.5557725697305642  0.11727330997734241  1.0000
  Si  Si1       1.0  0.2695402629130755  0.7611254799267755  0.5155069500267331  1.0000
  Si  Si2       1.0  0.730446901759059  0.23887948520516744  0.4844999342275641  1.0000
  H   H1        1.0  0.7299592202927556  0.34957403756229155  0.992861808401507  1.0000
  H   H2        1.0  0.27005327294641285  0.6504342114697294  0.007123945008203189  1.0000
  H   H3        1.0  0.15815905333382577  0.7394456258528875  0.7025248786208138  1.0000
  H   H4        1.0  0.8418491364053935  0.2605552666517923  0.29747432494932713  1.0000
  H   H5        1.0  0.293176631302515  0.6480762268842496  0.8162143554491263  1.0000
  H   H6        1.0  0.7068169730893461  0.35191411133059347  0.1837763109090034  1.0000
  H   H7        1.0  0.8002060636812445  0.5663483244319563  0.6457427018228188  1.0000
  H   H8        1.0  0.19980186176898934  0.433651609351024  0.354251974977572  1.0000
  H   H9        1.0  0.6583825180293204  0.651836417342487  0.5279178252103591  1.0000
  H   H10       1.0  0.3416245369628257  0.3481717701589843  0.4720794633601884  1.0000
  H   H11       1.0  0.8986288186723856  0.882268934380953  0.520762229412142  1.0000
  H   H12       1.0  0.10134794240044441  0.11771930179884997  0.4792539888890062  1.0000
  H   H13       1.0  0.8579936927361941  0.08052211490204539  0.6441655085320048  1.0000
  H   H14       1.0  0.14197036440953084  0.9194639867311171  0.35585691331424124  1.0000
  H   H15       1.0  0.5118820094124602  0.1654581524085614  0.8399530770288164  1.0000
  H   H16       1.0  0.4881110317301561  0.8345369691990213  0.1600657003923303  1.0000
  H   H17       1.0  0.5564505694746983  0.9689424611829337  0.7161675696227406  1.0000
  H   H18       1.0  0.44354702183694167  0.031059981656653697  0.2838321616584452  1.0000
  H   H19       1.0  0.540436697856002  0.7216165673766639  0.40109970327304006  1.0000
  H   H20       1.0  0.4595551039523968  0.27839028709898617  0.5988975856202643  1.0000
  H   H21       1.0  0.5843974463025032  0.8852751145921756  0.4681202523308413  1.0000
  H   H22       1.0  0.4155976981932312  0.11473552763101222  0.5318805729603824  1.0000
  H   H23       1.0  0.3480189949389683  0.7888584075000864  0.36049598736094157  1.0000
  H   H24       1.0  0.6519675409742406  0.21115107050573553  0.639503214821623  1.0000
  H   H25       1.0  0.028722884945075567  0.5762221513852593  0.357819016326502  1.0000
  H   H26       1.0  0.971293307771319  0.4237908308802433  0.6421727017585467  1.0000
  H   H27       1.0  0.882500918360364  0.6865666942705175  0.39802091413076807  1.0000
  H   H28       1.0  0.11749432134642748  0.3134338120861456  0.6019738418303574  1.0000
  H   H29       1.0  0.9004487591891747  0.5897719266799158  0.4638756734377907  1.0000
  H   H30       1.0  0.09955006761426693  0.4102185039489116  0.5361083542415912  1.0000
  C   C1        1.0  0.39605790366751137  0.7008010144412608  0.6049347905904554  1.0000
  C   C2        1.0  0.6039278955123422  0.2992001599231031  0.3950609815592897  1.0000
  C   C3        1.0  0.2977524450323444  0.7004319492348685  0.688433394908202  1.0000
  C   C4        1.0  0.702244696988501  0.2995695613545378  0.3115660065878884  1.0000
  C   C5        1.0  0.37434785722432906  0.6506558667215998  0.7536050060446584  1.0000
  C   C6        1.0  0.6256410307440988  0.34933159695634686  0.2463865319200664  1.0000
  C   C7        1.0  0.5557382406770442  0.6015860942169836  0.7384425639626285  1.0000
  C   C8        1.0  0.44426065773350126  0.3984117386865405  0.26154946044657373  1.0000
  C   C9        1.0  0.6591401191218863  0.6042033262170818  0.6575006483031913  1.0000
  C   C10       1.0  0.3408474672813071  0.3957941660494839  0.34248704726222456  1.0000
  C   C11       1.0  0.5785913143182101  0.6526760024563955  0.591573409342864  1.0000
  C   C12       1.0  0.4213989727996577  0.34733078886052476  0.40842096279545353  1.0000
  C   C13       1.0  0.6306070956499921  0.544728768767328  0.8071070495416137  1.0000
  C   C14       1.0  0.3694149559169801  0.4552733759567716  0.19288643896100408  1.0000
  C   C15       1.0  0.23022488481468179  0.9102982941845214  0.608269815231381  1.0000
  C   C16       1.0  0.7697791197892202  0.0896915185958704  0.3917353426470669  1.0000
  C   C17       1.0  0.03452673643309368  0.9438920179970083  0.5904109848330066  1.0000
  C   C18       1.0  0.96546594294972  0.056098452575369606  0.4096006664483767  1.0000
  C   C19       1.0  0.010000329772147197  0.0550396190182099  0.6596135340421441  1.0000
  C   C20       1.0  0.9899632422792306  0.9449418492274189  0.34040455965409677  1.0000
  C   C21       1.0  0.18134183456151473  0.13519111719669746  0.7504650041021748  1.0000
  C   C22       1.0  0.8186352398175812  0.8648007804131906  0.24954891708690488  1.0000
  C   C23       1.0  0.378094250119453  0.10275623806900575  0.7696312104878089  1.0000
  C   C24       1.0  0.6218962136430263  0.8972295668405433  0.23037809237067822  1.0000
  C   C25       1.0  0.40218284007110566  0.9924313248271087  0.6994052324328094  1.0000
  C   C26       1.0  0.5978082453340008  0.0075580973933497995  0.3005947783391889  1.0000
  C   C27       1.0  0.15775038175699754  0.25412693455906776  0.8261936628457106  1.0000
  C   C28       1.0  0.8422627138136388  0.745878798456978  0.1738214171291759  1.0000
  C   C29       1.0  0.4555435348365648  0.793113901685537  0.42963877177466975  1.0000
  C   C30       1.0  0.5444473425265315  0.2068947982509286  0.5703632549082442  1.0000
  C   C31       1.0  0.9934193545946285  0.6430252681426083  0.4270217427530979  1.0000
  C   C32       1.0  0.006585194624491896  0.3569810049355269  0.572974067984596  1.0000
  O   O1        1.0  0.7866440105814971  0.43228805197541936  0.9955702414154501  1.0000
  O   O2        1.0  0.21337166620691767  0.5677203013144663  0.004417848017034526  1.0000
  O   O3        1.0  0.49976418971586156  0.5198676986076906  0.861730587417213  1.0000
  O   O4        1.0  0.5002834409296425  0.48013797406385084  0.1382733663909264  1.0000
  O   O5        1.0  0.8234671724361036  0.5233554861096295  0.8040709644867545  1.0000
  O   O6        1.0  0.17654884126252304  0.4766389904691266  0.1959007617737498  1.0000
  O   O7        1.0  0.9914398396860163  0.2880448954570127  0.7956241085227587  1.0000
  O   O8        1.0  0.008567887548686355  0.711956063226431  0.20438558750900873  1.0000
  O   O9        1.0  0.297653116353395  0.3134415391558534  0.9146892611203085  1.0000
  O   O10       1.0  0.7024002652816536  0.6865661433730423  0.08531710754856896  1.0000
