data_image0
_chemical_formula_structural       Er2H34C36N8O24
_chemical_formula_sum              "Er2 H34 C36 N8 O24"
_cell_length_a       7.466655098518916
_cell_length_b       12.089998520928866
_cell_length_c       13.845
_cell_angle_alpha    71.49462190008758
_cell_angle_beta     82.66935258543432
_cell_angle_gamma    78.77578353145954

_space_group_name_H-M_alt    "P 1"
_space_group_IT_number       1

loop_
  _space_group_symop_operation_xyz
  'x, y, z'

loop_
  _atom_site_type_symbol
  _atom_site_label
  _atom_site_symmetry_multiplicity
  _atom_site_fract_x
  _atom_site_fract_y
  _atom_site_fract_z
  _atom_site_occupancy
  Er  Er1       1.0  0.9944848541620102  0.067815286194751  0.16941267441886507  1.0000
  Er  Er2       1.0  0.005512239176809392  0.9321856454718828  0.8305859672660885  1.0000
  H   H1        1.0  0.8055724614165385  0.3245863932914048  0.21547866156226547  1.0000
  H   H2        1.0  0.1944203608483406  0.6754207276761619  0.7845293928315513  1.0000
  H   H3        1.0  0.26996659382776766  0.6018370130069428  0.46188861296905503  1.0000
  H   H4        1.0  0.7300444514526063  0.3981621502879875  0.5381095587710049  1.0000
  H   H5        1.0  0.34426925357420396  0.109476354996076  0.3715196223120287  1.0000
  H   H6        1.0  0.6557267180330726  0.8905289975997945  0.6284692038655635  1.0000
  H   H7        1.0  0.8047288228840587  0.118916807298632  0.9841819755375099  1.0000
  H   H8        1.0  0.195275466524798  0.8810770508812098  0.01581379776552435  1.0000
  H   H9        1.0  0.7889552649633699  0.9890361429615666  0.043880657745262425  1.0000
  H   H10       1.0  0.21104654814200788  0.0109568310324306  0.9561191424319659  1.0000
  H   H11       1.0  0.9028207868764966  0.5390226819703159  0.058808862598809145  1.0000
  H   H12       1.0  0.09718980546421109  0.4609729445812221  0.9411997102265701  1.0000
  H   H13       1.0  0.8061462817344702  0.6857435974553425  0.36662122201077807  1.0000
  H   H14       1.0  0.1938546424797707  0.31426352351222425  0.6333826634556201  1.0000
  H   H15       1.0  0.7067695908416524  0.2733619703546069  0.40123982434227656  1.0000
  H   H16       1.0  0.2932290856624604  0.7266486873563522  0.5987632355486169  1.0000
  H   H17       1.0  0.1463214887800106  0.3866155672947258  0.49620170004601494  1.0000
  H   H18       1.0  0.8536877617298941  0.6133906694869964  0.5037960792694134  1.0000
  H   H19       1.0  0.3900169537520882  0.4485633961999937  0.12980064658482593  1.0000
  H   H20       1.0  0.6099736123085719  0.5514366512807882  0.8701907442134028  1.0000
  H   H21       1.0  0.3940961359868211  0.7581734495924906  0.29948432113880585  1.0000
  H   H22       1.0  0.605917152756632  0.24181687184395886  0.7005132577084224  1.0000
  H   H23       1.0  0.0808275323436689  0.0354337478715792  0.381324330195163  1.0000
  H   H24       1.0  0.9191650570808036  0.9645636470516552  0.6186734348141839  1.0000
  H   H25       1.0  0.9745728350745821  0.9287320155483272  0.3978290026477039  1.0000
  H   H26       1.0  0.0254226793459864  0.0712644951890624  0.6021673615820475  1.0000
  H   H27       1.0  0.7218674409551653  0.1098645125834921  0.3067691229012652  1.0000
  H   H28       1.0  0.27811322413861456  0.8901373032689863  0.693230404190707  1.0000
  H   H29       1.0  0.604342802103062  0.1815357332627769  0.20728798129252368  1.0000
  H   H30       1.0  0.39563854027669276  0.8184687351472422  0.7927085971619403  1.0000
  H   H31       1.0  0.3792600460713659  0.0620274056316177  0.1711743199305644  1.0000
  H   H32       1.0  0.6207406495495178  0.937975294406705  0.8288250283141705  1.0000
  H   H33       1.0  0.3710895932133056  0.939019517893577  0.1540498618953449  1.0000
  H   H34       1.0  0.6289099679349022  0.0609716877287241  0.8459592507566498  1.0000
  C   C1        1.0  0.9272987287657272  0.8400136917133524  0.20113967904335786  1.0000
  C   C2        1.0  0.07269611686296429  0.1599907766966666  0.7988617484781528  1.0000
  C   C3        1.0  0.8851480758809558  0.7221782437072265  0.20707654974059145  1.0000
  C   C4        1.0  0.11485824538581112  0.2778235721452518  0.7929226564509263  1.0000
  C   C5        1.0  0.9106120668657667  0.6822767047440621  0.11938163917065478  1.0000
  C   C6        1.0  0.08940235210331342  0.3177198059933275  0.880619924731647  1.0000
  C   C7        1.0  0.94451148320514  0.765719975807933  0.016077036410187845  1.0000
  C   C8        1.0  0.0555058650070848  0.2342809558586936  0.9839252674632633  1.0000
  C   C9        1.0  0.8868195528060953  0.5684041777101214  0.12654589613467235  1.0000
  C   C10       1.0  0.1131917125735384  0.43158879628386876  0.8734611987145156  1.0000
  C   C11       1.0  0.8338220444491924  0.49677186120815975  0.22258165657864026  1.0000
  C   C12       1.0  0.16618787485259653  0.503226417900926  0.7774233382460379  1.0000
  C   C13       1.0  0.8032907815536063  0.5358891273238555  0.3109098005993046  1.0000
  C   C14       1.0  0.196716441345437  0.4641144569003188  0.6890910202728547  1.0000
  C   C15       1.0  0.8285790466206606  0.6503752793365365  0.30220349438808813  1.0000
  C   C16       1.0  0.17143492790285106  0.3496283048876379  0.6977975841703596  1.0000
  C   C17       1.0  0.7432646156675062  0.3585656554424972  0.3569638906366706  1.0000
  C   C18       1.0  0.2567284266966254  0.6414352762241294  0.6430393635004278  1.0000
  C   C19       1.0  0.2696817617954892  0.2381731419630171  0.21557115064293697  1.0000
  C   C20       1.0  0.7303049818838332  0.761831326447009  0.7844221670049761  1.0000
  C   C21       1.0  0.2803593100963723  0.3293556917572644  0.26689968862187635  1.0000
  C   C22       1.0  0.7196233783612273  0.670643471537666  0.7331062126812211  1.0000
  C   C23       1.0  0.21242896549827606  0.3122069072290259  0.3710313385247515  1.0000
  C   C24       1.0  0.7875624979476112  0.6877896035083637  0.6289718050043901  1.0000
  C   C25       1.0  0.1592625259535865  0.2018852705619523  0.4401615767549244  1.0000
  C   C26       1.0  0.8407343387918825  0.7981112401754376  0.5598368614028428  1.0000
  C   C27       1.0  0.20240864990834237  0.4004734120955078  0.4177971280988046  1.0000
  C   C28       1.0  0.7975902424479813  0.5995257511994296  0.5822026021967018  1.0000
  C   C29       1.0  0.26923245188053363  0.502300675317727  0.361047812489133  1.0000
  C   C30       1.0  0.7307641970127179  0.4977073298356843  0.638951788416783  1.0000
  C   C31       1.0  0.3373022349243087  0.522422976853882  0.2569860009128817  1.0000
  C   C32       1.0  0.662694185375578  0.47758060737028535  0.7430148410306712  1.0000
  C   C33       1.0  0.3419361944477117  0.4345499346899119  0.20983392024468367  1.0000
  C   C34       1.0  0.6580572966090371  0.5654492286050257  0.7901654594453119  1.0000
  C   C35       1.0  0.3627802229504836  0.6737390061926476  0.30023580637335096  1.0000
  C   C36       1.0  0.6372348733045712  0.3262601571022827  0.699761364326619  1.0000
  N   N1        1.0  0.747129939295462  0.4462989962424402  0.3943751790300922  1.0000
  N   N2        1.0  0.2528689573079106  0.5537054721675858  0.6056266920161517  1.0000
  N   N3        1.0  0.7930331970500575  0.3840001455553832  0.2553803251234044  1.0000
  N   N4        1.0  0.20696907324202843  0.616001670297095  0.74462710493232  1.0000
  N   N5        1.0  0.28739607567088404  0.6003542333393099  0.38626670107962  1.0000
  N   N6        1.0  0.712611151475201  0.39965465599996014  0.613727593154337  1.0000
  N   N7        1.0  0.3930718862707892  0.6316331919096143  0.2208008506286133  1.0000
  N   N8        1.0  0.6069337577100099  0.368365971385316  0.7791998596355825  1.0000
  O   O1        1.0  0.8250857072593121  0.9036052221106561  0.25083055556337536  1.0000
  O   O2        1.0  0.17489293447064816  0.096399246299363  0.7491712647064331  1.0000
  O   O3        1.0  0.06891170923493209  0.8769806178459305  0.145801308510876  1.0000
  O   O4        1.0  0.9310878604073664  0.1230211980065476  0.8541933062998766  1.0000
  O   O5        1.0  0.8470728786543232  0.870221901221342  0.9920601744842442  1.0000
  O   O6        1.0  0.15294266629334885  0.1297754937018922  0.007948289699278585  1.0000
  O   O7        1.0  0.06365519517090949  0.7348274064533484  0.951449620728205  1.0000
  O   O8        1.0  0.9363594396503956  0.2651576098680124  0.04855800325007918  1.0000
  O   O9        1.0  0.11727557765701849  0.2030771530854949  0.22428781336220274  1.0000
  O   O10       1.0  0.8827091256703099  0.7969087474217106  0.775725236627423  1.0000
  O   O11       1.0  0.4142563779722437  0.19776142776537142  0.16900155066883826  1.0000
  O   O12       1.0  0.5857278851565582  0.8022368513437144  0.8309958199497629  1.0000
  O   O13       1.0  0.2514226005826927  0.09584044084322581  0.4288436226954601  1.0000
  O   O14       1.0  0.7485700015829195  0.9041728694252812  0.5711475634826896  1.0000
  O   O15       1.0  0.04293467482678181  0.1975907798966432  0.5121208250402063  1.0000
  O   O16       1.0  0.9570943776168763  0.8024119201416795  0.48787007135907595  1.0000
  O   O17       1.0  0.31634324169133515  0.9908655234817445  0.19491148954971033  1.0000
  O   O18       1.0  0.6836439506806045  0.0091371765565782  0.805086621040047  1.0000
  O   O19       1.0  0.9908922796788744  0.0090169272812091  0.3517087360960218  1.0000
  O   O20       1.0  0.009124154159934506  0.9909663206684556  0.6482819194324989  1.0000
  O   O21       1.0  0.7281407516508767  0.16487236676526612  0.23798489225302424  1.0000
  O   O22       1.0  0.27184621637476175  0.8351312174589083  0.7620158778426994  1.0000
  O   O23       1.0  0.7783515006411149  0.0679390722135125  0.05392529185269978  1.0000
  O   O24       1.0  0.2216417660693324  0.9320609752672695  0.946070246801554  1.0000
