data_image0
_chemical_formula_structural       Cu2H24C32N4O12
_chemical_formula_sum              "Cu2 H24 C32 N4 O12"
_cell_length_a       8.677621633458289
_cell_length_b       8.609207609682699
_cell_length_c       11.942126106706791
_cell_angle_alpha    89.5664413019398
_cell_angle_beta     72.22485021406514
_cell_angle_gamma    69.12117094495304

_space_group_name_H-M_alt    "P 1"
_space_group_IT_number       1

loop_
  _space_group_symop_operation_xyz
  'x, y, z'

loop_
  _atom_site_type_symbol
  _atom_site_label
  _atom_site_symmetry_multiplicity
  _atom_site_fract_x
  _atom_site_fract_y
  _atom_site_fract_z
  _atom_site_occupancy
  Cu  Cu1       1.0  0.11138544134025348  0.015255928715781398  0.2968278321923279  1.0000
  Cu  Cu2       1.0  0.8886110799919393  0.9847469242453425  0.7031779052560053  1.0000
  H   H1        1.0  0.12237127907187079  0.5407503562432293  0.5247652678669255  1.0000
  H   H2        1.0  0.8776401157996786  0.4592389416872678  0.47522373078529523  1.0000
  H   H3        1.0  0.3404672499014225  0.22689707342264848  0.548630981419258  1.0000
  H   H4        1.0  0.6595387223813634  0.7730933254219322  0.4513550963513565  1.0000
  H   H5        1.0  0.010675029953020472  0.7435683824495667  0.22701282077479584  1.0000
  H   H6        1.0  0.9893042878851189  0.25644663915613103  0.7729943104283733  1.0000
  H   H7        1.0  0.043764260212192534  0.5999533639771926  0.033733801260943594  1.0000
  H   H8        1.0  0.9562126415631338  0.40005272971396966  0.9662723418819255  1.0000
  H   H9        1.0  0.19474186827144985  0.6932062335341838  0.8426252470328492  1.0000
  H   H10       1.0  0.8052449123374216  0.30679633052920247  0.15737693278435932  1.0000
  H   H11       1.0  0.29689490427195137  0.9238275803830689  0.8547989274472626  1.0000
  H   H12       1.0  0.703094341317815  0.07617506049132318  0.14520518162436252  1.0000
  H   H13       1.0  0.3661932650961078  0.13807810291026354  0.881900107939188  1.0000
  H   H14       1.0  0.6337971533839806  0.8619245671964817  0.11810288606637438  1.0000
  H   H15       1.0  0.4359295863818246  0.3718708037006521  0.9341631404025392  1.0000
  H   H16       1.0  0.5640602428731116  0.6281419647072038  0.06583818628151047  1.0000
  H   H17       1.0  0.36912184613405696  0.46483915070924525  0.15167048625841764  1.0000
  H   H18       1.0  0.6308685026719232  0.5351698578812857  0.8483366295057876  1.0000
  H   H19       1.0  0.22999504956930392  0.309422191229828  0.3045927219645391  1.0000
  H   H20       1.0  0.7700118921414825  0.6905670264638814  0.6954090557250295  1.0000
  H   H21       1.0  0.9916356335817941  0.1759352939993377  0.49832755116526056  1.0000
  H   H22       1.0  0.00837126353292207  0.8240514074053705  0.501678457599766  1.0000
  H   H23       1.0  0.1890762909526487  0.06787349146466679  0.479351442064619  1.0000
  H   H24       1.0  0.810935153445058  0.9321221632959219  0.5206458377327933  1.0000
  C   C1        1.0  0.32218401981769057  0.6955290181082461  0.3327594245147126  1.0000
  C   C2        1.0  0.6778228491349694  0.3044690470197222  0.6672405801034245  1.0000
  C   C3        1.0  0.35968827786447116  0.5379633517224177  0.3876859116904328  1.0000
  C   C4        1.0  0.6403192933455344  0.46202965135170604  0.6123081299756096  1.0000
  C   C5        1.0  0.2594386930942322  0.47589083976996677  0.4754789362710524  1.0000
  C   C6        1.0  0.7405745341749679  0.5240972585416016  0.5245138328290366  1.0000
  C   C7        1.0  0.37114347847145274  0.31544745460019635  0.4892457560096019  1.0000
  C   C8        1.0  0.6288696057574297  0.6845406216957953  0.510742021826637  1.0000
  C   C9        1.0  0.5337431868816083  0.28862518211901994  0.4097078441184365  1.0000
  C   C10       1.0  0.466269967629465  0.7113717636268148  0.5902831519102135  1.0000
  C   C11       1.0  0.7048835721522906  0.1510280505635038  0.39143559066551586  1.0000
  C   C12       1.0  0.2951341565658439  0.8489753432569881  0.6085534031029097  1.0000
  C   C13       1.0  0.07251847026625302  0.7787953048020738  0.14194825599091837  1.0000
  C   C14       1.0  0.927464578957249  0.22121348803246824  0.8580563995192704  1.0000
  C   C15       1.0  0.09232564928171864  0.7001935268428667  0.034224668930335204  1.0000
  C   C16       1.0  0.9076567196784354  0.2998139822232132  0.965780164018689  1.0000
  C   C17       1.0  0.17567988912608712  0.7508027527598596  0.9292550838972744  1.0000
  C   C18       1.0  0.8243063065796434  0.24919854221211316  0.07075060086800271  1.0000
  C   C19       1.0  0.2331955615969718  0.8812775604983044  0.9356952580038254  1.0000
  C   C20       1.0  0.7667953049140054  0.11872133878332386  0.06431102944996782  1.0000
  C   C21       1.0  0.2080470789114345  0.9567271202627337  0.04638718394937764  1.0000
  C   C22       1.0  0.7919471412361933  0.0432781905226918  0.9536165525556299  1.0000
  C   C23       1.0  0.2584839753981996  0.09817240996731869  0.06530976658741137  1.0000
  C   C24       1.0  0.7415185992599475  0.9018242690180924  0.9346904331585079  1.0000
  C   C25       1.0  0.335151370810074  0.17803645236060817  0.9750575753939259  1.0000
  C   C26       1.0  0.6648418164035165  0.8219713601585139  0.02494637261092691  1.0000
  C   C27       1.0  0.3753215054295823  0.3114325420718558  0.005440260009315477  1.0000
  C   C28       1.0  0.6246682553892242  0.6885777063777353  0.9945644658728836  1.0000
  C   C29       1.0  0.33841005215427344  0.3619195579804213  0.1245211643744  1.0000
  C   C30       1.0  0.6615813980218803  0.6380894688346712  0.8754823406918177  1.0000
  C   C31       1.0  0.26164889002562564  0.2771073912420404  0.21003703203535198  1.0000
  C   C32       1.0  0.7383560780932609  0.7228893535465916  0.7899626013330591  1.0000
  N   N1        1.0  0.1306031500072109  0.9023890321352463  0.14705286484525706  1.0000
  N   N2        1.0  0.8693886766796765  0.09761621284695109  0.8529514380372587  1.0000
  N   N3        1.0  0.22320764137391794  0.14879950577213205  0.1805551173900071  1.0000
  N   N4        1.0  0.7768019975502228  0.8511948433261621  0.8194451186669197  1.0000
  O   O1        1.0  0.15932829165785012  0.7994721677608111  0.3739127709429012  1.0000
  O   O2        1.0  0.840678508858687  0.20052337740889925  0.6260906328733782  1.0000
  O   O3        1.0  0.4382046974473114  0.7215146625783074  0.25245976009820476  1.0000
  O   O4        1.0  0.561805975648845  0.27846832634423885  0.7475395418983837  1.0000
  O   O5        1.0  0.5280933001085798  0.42385534783654316  0.3468872525924027  1.0000
  O   O6        1.0  0.4719164756878058  0.5761440411782812  0.6531061850682249  1.0000
  O   O7        1.0  0.6989692820292247  0.02511367419412379  0.4456850597187127  1.0000
  O   O8        1.0  0.301057433782681  0.9748823642562953  0.5542985560971728  1.0000
  O   O9        1.0  0.8401747649049512  0.17309954698762903  0.3253296453031067  1.0000
  O   O10       1.0  0.1598443261859472  0.8269127638613651  0.6746656109782236  1.0000
  O   O11       1.0  0.10894516035691741  0.13940628274667685  0.43517921558708383  1.0000
  O   O12       1.0  0.8910568532381332  0.8605891308165708  0.5648253209842123  1.0000
