data_image0
_chemical_formula_structural       Mn4H48C56N8O20
_chemical_formula_sum              "Mn4 H48 C56 N8 O20"
_cell_length_a       11.841256869727504
_cell_length_b       11.841199588668845
_cell_length_c       16.227449594847762
_cell_angle_alpha    72.87488809402026
_cell_angle_beta     72.87488010245382
_cell_angle_gamma    78.72421656013164

_space_group_name_H-M_alt    "P 1"
_space_group_IT_number       1

loop_
  _space_group_symop_operation_xyz
  'x, y, z'

loop_
  _atom_site_type_symbol
  _atom_site_label
  _atom_site_symmetry_multiplicity
  _atom_site_fract_x
  _atom_site_fract_y
  _atom_site_fract_z
  _atom_site_occupancy
  Mn  Mn1       1.0  0.8225759510285541  0.6013378494852972  0.05561694985081541  1.0000
  Mn  Mn2       1.0  0.3986635378212782  0.17742665271558164  0.44438239514227  1.0000
  Mn  Mn3       1.0  0.1774216095696346  0.39866211227602116  0.9443819358398143  1.0000
  Mn  Mn4       1.0  0.6013402601832283  0.8225716903132679  0.5556142804393218  1.0000
  H   H1        1.0  0.6735700696838689  0.8039550526922667  0.27929915723375137  1.0000
  H   H2        1.0  0.19604396133239277  0.32643082451743766  0.22070186681173  1.0000
  H   H3        1.0  0.32642482814454604  0.19604435077485496  0.7206991777358525  1.0000
  H   H4        1.0  0.8039571302798975  0.6735695677256783  0.7793011103857949  1.0000
  H   H5        1.0  0.41341748892799757  0.1605742861540946  0.04240081557933451  1.0000
  H   H6        1.0  0.8394264286656463  0.5865834210501504  0.4575996286615407  1.0000
  H   H7        1.0  0.5865800753496727  0.8394239118715772  0.957597826398775  1.0000
  H   H8        1.0  0.16057556740387474  0.413419530707145  0.5424001503349983  1.0000
  H   H9        1.0  0.563162774528017  0.9786759318373437  0.03829949858524639  1.0000
  H   H10       1.0  0.021324262074514898  0.43683705449839033  0.46170042973275843  1.0000
  H   H11       1.0  0.4368356724588977  0.021323920252058294  0.9616998389540186  1.0000
  H   H12       1.0  0.9786768476568709  0.5631642395670795  0.5382992714900681  1.0000
  H   H13       1.0  0.3561969526503432  0.26166463193568024  0.1909674117043636  1.0000
  H   H14       1.0  0.7383382031692632  0.6438050671645072  0.3090336707634691  1.0000
  H   H15       1.0  0.6438005934829292  0.7383335479495088  0.8090343192109726  1.0000
  H   H16       1.0  0.2616637929255461  0.35619700091091017  0.6909662952705419  1.0000
  H   H17       1.0  0.3338515048806698  0.3291353874599848  0.0838819524150054  1.0000
  H   H18       1.0  0.6708679360978493  0.6661532190906883  0.41611727252545455  1.0000
  H   H19       1.0  0.6661451548891718  0.6708620184152562  0.9161195136891536  1.0000
  H   H20       1.0  0.3291340672294254  0.3338497399227974  0.5838812708961997  1.0000
  H   H21       1.0  0.4713857623182491  0.14910819134227885  0.25511348811306783  1.0000
  H   H22       1.0  0.8508928573120754  0.5286153361937308  0.2448855738382676  1.0000
  H   H23       1.0  0.5286126846686656  0.8508916607471161  0.7448858494261971  1.0000
  H   H24       1.0  0.14911180881026098  0.4713872974320807  0.75511370734187  1.0000
  H   H25       1.0  0.6328894801819444  0.26138279647611984  0.017388693523969333  1.0000
  H   H26       1.0  0.7386190349479449  0.36711119799029757  0.4826102639065226  1.0000
  H   H27       1.0  0.3671098424335639  0.7386125166476988  0.9826138844136025  1.0000
  H   H28       1.0  0.2613856312502918  0.6328887845898947  0.517389578386009  1.0000
  H   H29       1.0  0.38741885272372656  0.4733757581943078  0.18367597450607326  1.0000
  H   H30       1.0  0.5266232966936853  0.6125864013654976  0.31632594172162243  1.0000
  H   H31       1.0  0.6125760451046957  0.5266236452728136  0.8163223604635305  1.0000
  H   H32       1.0  0.4733786994517359  0.3874138993461713  0.6836743983873177  1.0000
  H   H33       1.0  0.7861063316737996  0.3943434998293682  0.9928239797025853  1.0000
  H   H34       1.0  0.6056572496594513  0.2138936284238112  0.5071751378800968  1.0000
  H   H35       1.0  0.2138920973205174  0.6056510320283052  0.007179568998694212  1.0000
  H   H36       1.0  0.39434742016766927  0.7861063577844759  0.4928240866249921  1.0000
  H   H37       1.0  0.5512431648445641  0.5962766813089643  0.15484631963775541  1.0000
  H   H38       1.0  0.40372480266941574  0.44876221637403546  0.3451556486668323  1.0000
  H   H39       1.0  0.44875438489228253  0.40372238588619763  0.8451546064526738  1.0000
  H   H40       1.0  0.5962798635541232  0.5512368825242787  0.6548443806631711  1.0000
  H   H41       1.0  0.036800595831572004  0.645121638696402  0.9646947608242654  1.0000
  H   H42       1.0  0.35487660197782833  0.9631991121129669  0.5353048898067457  1.0000
  H   H43       1.0  0.9631996130714668  0.35487709948298357  0.03530752081209709  1.0000
  H   H44       1.0  0.6451263059837729  0.03680022064158091  0.46469176467618223  1.0000
  H   H45       1.0  0.987693315457129  0.770777361204253  0.9852470121848358  1.0000
  H   H46       1.0  0.2292227653346401  0.012308862833336303  0.5147555640159567  1.0000
  H   H47       1.0  0.012305992516360198  0.22922235581655312  0.01475710171519749  1.0000
  H   H48       1.0  0.7707792598671048  0.9876905832212298  0.4852400208308795  1.0000
  C   C1        1.0  0.570341631475621  0.9756302560368652  0.27623563163636794  1.0000
  C   C2        1.0  0.0243692988856807  0.42965812282856314  0.2237638257215835  1.0000
  C   C3        1.0  0.4296550391302532  0.024368928086410283  0.7237636070305272  1.0000
  C   C4        1.0  0.975634473590169  0.5703446132129811  0.7762362391848042  1.0000
  C   C5        1.0  0.5039725646144291  0.07527486606836219  0.14105882325601024  1.0000
  C   C6        1.0  0.9247254742713196  0.49602834603321344  0.35894036827167514  1.0000
  C   C7        1.0  0.49602588952905075  0.9247285280047205  0.8589385305585112  1.0000
  C   C8        1.0  0.075272071811348  0.5039716012157242  0.6410609885687323  1.0000
  C   C9        1.0  0.623012105051906  0.8802124292393356  0.15496310353211143  1.0000
  C   C10       1.0  0.1197863524908485  0.3769882361846797  0.34503754210487614  1.0000
  C   C11       1.0  0.37698279645599087  0.11978521049213947  0.8450349877249721  1.0000
  C   C12       1.0  0.8802147353913624  0.6230156871578314  0.6549653047302328  1.0000
  C   C13       1.0  0.6255106665866349  0.8781436793958971  0.24113191797889752  1.0000
  C   C14       1.0  0.12185726373245839  0.37449181175075097  0.25886658274068  1.0000
  C   C15       1.0  0.3744868904079723  0.12185539505545505  0.7588677725366394  1.0000
  C   C16       1.0  0.8781465268371917  0.6255127097950177  0.7411300191535516  1.0000
  C   C17       1.0  0.5751835966760693  0.9726250705013582  0.36770405315402854  1.0000
  C   C18       1.0  0.02737571048511  0.4248160579088988  0.13229454511373012  1.0000
  C   C19       1.0  0.42481397475815186  0.02737666950799421  0.6322926050993304  1.0000
  C   C20       1.0  0.9726253883596312  0.5751852252722854  0.8677070094714382  1.0000
  C   C21       1.0  0.6906556682979641  0.7814384585150689  0.11385621260532035  1.0000
  C   C22       1.0  0.21855980852534168  0.30934664999824685  0.3861440295003149  1.0000
  C   C23       1.0  0.3093401123662076  0.21855818060641496  0.8861437531127623  1.0000
  C   C24       1.0  0.7814404038041828  0.6906591612642213  0.6138561380488883  1.0000
  C   C25       1.0  0.49742415659312667  0.356675237856976  0.10246851839813331  1.0000
  C   C26       1.0  0.6433263254043524  0.5025804427001859  0.3975328774380954  1.0000
  C   C27       1.0  0.5025733968231947  0.6433220656025328  0.8975321639797755  1.0000
  C   C28       1.0  0.3566783334602306  0.49742218366943547  0.6024676393169343  1.0000
  C   C29       1.0  0.5619541936680719  0.977224598540701  0.10596427215378416  1.0000
  C   C30       1.0  0.022776713881874897  0.4380454807729777  0.3940354519990663  1.0000
  C   C31       1.0  0.43804336695541213  0.022774479538746603  0.8940348005743034  1.0000
  C   C32       1.0  0.9772270550157031  0.561955484276723  0.6059656047696932  1.0000
  C   C33       1.0  0.401476753006527  0.27914798233653215  0.1193576301552142  1.0000
  C   C34       1.0  0.7208534600765262  0.5985258967851051  0.3806442143024498  1.0000
  C   C35       1.0  0.5985190130662303  0.7208512933181838  0.8806442456002657  1.0000
  C   C36       1.0  0.2791467596372499  0.40147550332418547  0.619355652859184  1.0000
  C   C37       1.0  0.5124958987592335  0.0743810010232053  0.22625774271617877  1.0000
  C   C38       1.0  0.9256178739517154  0.4875034843195394  0.273742076986501  1.0000
  C   C39       1.0  0.4875016690208156  0.92562161903993  0.773739346287158  1.0000
  C   C40       1.0  0.07438234220908407  0.5124952611160437  0.7262589690749693  1.0000
  C   C41       1.0  0.6115037540170505  0.3353642034905775  0.04859446286951651  1.0000
  C   C42       1.0  0.6646351819430194  0.38849804183834624  0.4514060620874858  1.0000
  C   C43       1.0  0.388494682159127  0.6646329866689057  0.9514072891444839  1.0000
  C   C44       1.0  0.3353650269853148  0.6114998126591685  0.5485964065863412  1.0000
  C   C45       1.0  0.4749385665832975  0.45288763802385285  0.1410003581272363  1.0000
  C   C46       1.0  0.5471126171923257  0.5250668307302604  0.3590005964590404  1.0000
  C   C47       1.0  0.5250598876360755  0.5471131050036108  0.8589975567996787  1.0000
  C   C48       1.0  0.45288938263256984  0.47493170624576203  0.6409994999373795  1.0000
  C   C49       1.0  0.6969897949339411  0.40848162796482507  0.0355013360443976  1.0000
  C   C50       1.0  0.591520697686846  0.3030125780287278  0.46449843743656777  1.0000
  C   C51       1.0  0.3030068612323191  0.5915148906004432  0.9645009348846684  1.0000
  C   C52       1.0  0.4084857376346704  0.6969880652613935  0.535502739303233  1.0000
  C   C53       1.0  0.5654512108209815  0.5213851826029838  0.12530806688310742  1.0000
  C   C54       1.0  0.4786168864942723  0.43455367402614087  0.37469383230818215  1.0000
  C   C55       1.0  0.4345427788454329  0.47861430876749  0.874693522962531  1.0000
  C   C56       1.0  0.5213868968935174  0.5654481892178181  0.6253045662733286  1.0000
  N   N1        1.0  0.675563604368456  0.499940925105342  0.07373224209318623  1.0000
  N   N2        1.0  0.5000595479499664  0.3244404301718973  0.4262676355844802  1.0000
  N   N3        1.0  0.3244348318077215  0.500056265054148  0.9262695099208144  1.0000
  N   N4        1.0  0.4999433491502998  0.6755580080164945  0.5737310592982469  1.0000
  N   N5        1.0  0.4448279395552603  0.17038704002361976  0.09180574701230883  1.0000
  N   N6        1.0  0.8296145764312542  0.5551716272600515  0.4081953947349887  1.0000
  N   N7        1.0  0.5551660574195124  0.8296106912392955  0.9081949813333593  1.0000
  N   N8        1.0  0.17038829874393002  0.4448320912510012  0.591805884647627  1.0000
  O   O1        1.0  0.7428920553324687  0.6905775148341604  0.1610723347251692  1.0000
  O   O2        1.0  0.309424951367447  0.2571120296986393  0.33892656378881014  1.0000
  O   O3        1.0  0.2571010589077503  0.3094194460469025  0.838927511021879  1.0000
  O   O4        1.0  0.6905788246107889  0.7428951283803612  0.6610719481428049  1.0000
  O   O5        1.0  0.6985800563119325  0.7869492839387032  0.032596942663708744  1.0000
  O   O6        1.0  0.21305098556987187  0.3014209957298276  0.46740375849963556  1.0000
  O   O7        1.0  0.3014192806925919  0.21305046210686376  0.9674022289367626  1.0000
  O   O8        1.0  0.7869518932847938  0.6985809590455715  0.532597277170467  1.0000
  O   O9        1.0  0.6001477985051693  0.871976413785305  0.4186410643868114  1.0000
  O   O10       1.0  0.12802197881384098  0.39985393888522935  0.08135629510668711  1.0000
  O   O11       1.0  0.3998524322217419  0.12802057879891043  0.5813578845997966  1.0000
  O   O12       1.0  0.8719809254935811  0.6001462739231016  0.9186407901262186  1.0000
  O   O13       1.0  0.5570302500664681  0.07125357467533887  0.39150061378620643  1.0000
  O   O14       1.0  0.9287460539621648  0.44296931191779265  0.10849959785519293  1.0000
  O   O15       1.0  0.4429708743069297  0.9287433154931505  0.6084975514741587  1.0000
  O   O16       1.0  0.07125326852684569  0.5570304196153939  0.8915020448950628  1.0000
  O   O17       1.0  0.9976095698102865  0.6861058837786087  0.013851806610979758  1.0000
  O   O18       1.0  0.313891547665918  0.002390697163100692  0.4861494355666665  1.0000
  O   O19       1.0  0.0023897454715608997  0.31389207313463874  0.9861514457890906  1.0000
  O   O20       1.0  0.6861122503638839  0.9976067621838709  0.5138474270523828  1.0000
