data_image0
_chemical_formula_structural       Cd2H16C20N10O16
_chemical_formula_sum              "Cd2 H16 C20 N10 O16"
_cell_length_a       4.814516197619103
_cell_length_b       10.486096114110994
_cell_length_c       13.502391327784748
_cell_angle_alpha    103.05631431763071
_cell_angle_beta     97.3999058000001
_cell_angle_gamma    92.43503447791522

_space_group_name_H-M_alt    "P 1"
_space_group_IT_number       1

loop_
  _space_group_symop_operation_xyz
  'x, y, z'

loop_
  _atom_site_type_symbol
  _atom_site_label
  _atom_site_symmetry_multiplicity
  _atom_site_fract_x
  _atom_site_fract_y
  _atom_site_fract_z
  _atom_site_occupancy
  Cd  Cd1       1.0  0.2141849014288724  0.143987182903345  0.5781541023723449  1.0000
  Cd  Cd2       1.0  0.7858151660655253  0.8560134574275505  0.4218456406518243  1.0000
  H   H1        1.0  0.5009616347900375  0.21917987255302757  0.8266981522606401  1.0000
  H   H2        1.0  0.49904067868420293  0.7808217514898318  0.1733018721812201  1.0000
  H   H3        1.0  0.5825687997087954  0.36084056716173046  0.004392493467115271  1.0000
  H   H4        1.0  0.41743110332716066  0.6391590900789267  0.9956078090431718  1.0000
  H   H5        1.0  0.275588896612831  0.4351616194323853  0.04819704035974579  1.0000
  H   H6        1.0  0.7244090761031359  0.5648390188330836  0.9518026014929433  1.0000
  H   H7        1.0  0.7443789226489983  0.32140374779629605  0.1377496365058306  1.0000
  H   H8        1.0  0.2556188856085342  0.6785959073789342  0.8622505648329764  1.0000
  H   H9        1.0  0.32883034662929583  0.028355901159450497  0.16354288330210662  1.0000
  H   H10       1.0  0.6711697076080866  0.9716447377277434  0.8364575994543842  1.0000
  H   H11       1.0  0.8106779081116001  0.39889159850572736  0.7069124513239302  1.0000
  H   H12       1.0  0.18932424090420594  0.6011090424468931  0.2930881326040477  1.0000
  H   H13       1.0  0.6717654597342387  0.28331589978265004  0.5075659452586336  1.0000
  H   H14       1.0  0.3282325129817281  0.7166847384828187  0.49243369659405534  1.0000
  H   H15       1.0  0.45864539564756496  0.38804037012909026  0.5529754575442354  1.0000
  H   H16       1.0  0.5413546718468324  0.6119602702018057  0.4470242854799338  1.0000
  C   C1        1.0  0.3359001589376618  0.2841800036420423  0.8168509650799081  1.0000
  C   C2        1.0  0.6641020033351522  0.7158206387542875  0.18314887911574118  1.0000
  C   C3        1.0  0.4272848247861559  0.43170457578980853  0.9936779211737915  1.0000
  C   C4        1.0  0.572715380652653  0.5682970447439217  0.0063227418289101755  1.0000
  C   C5        1.0  0.1535627968926505  0.1082050748370236  0.3005212929442607  1.0000
  C   C6        1.0  0.8464350246218969  0.891794581781909  0.6994781686622175  1.0000
  C   C7        1.0  0.9728315538035445  0.2024239877645257  0.35144303730422166  1.0000
  C   C8        1.0  0.0271661165095765  0.7975746872078773  0.6485562440560529  1.0000
  C   C9        1.0  0.8343172856313287  0.28048774959022893  0.2861178380406528  1.0000
  C   C10       1.0  0.16568038468179214  0.719510925382174  0.7138814433196217  1.0000
  C   C11       1.0  0.8552909604352479  0.2609021668714179  0.18249418219034652  1.0000
  C   C12       1.0  0.1447066966208581  0.7390965066572832  0.8175058389022497  1.0000
  C   C13       1.0  0.03463292715113649  0.1714593441469461  0.1391957032664948  1.0000
  C   C14       1.0  0.965364894363411  0.8285403124719936  0.8608037583399835  1.0000
  C   C15       1.0  0.18694017678431152  0.0974790186604153  0.1985068235321066  1.0000
  C   C16       1.0  0.8130597395086525  0.9025206400239439  0.8014927392458586  1.0000
  C   C17       1.0  0.3083548531923554  0.015746444461043996  0.3532114025132175  1.0000
  C   C18       1.0  0.691645201045034  0.9842541944261495  0.6467890802432733  1.0000
  C   C19       1.0  0.984762029530202  0.37747123593275933  0.7587933711223159  1.0000
  C   C20       1.0  0.0152380247071804  0.6225294029544344  0.241207111634175  1.0000
  N   N1        1.0  0.056408733607696576  0.44586683788945447  0.854949381537736  1.0000
  N   N2        1.0  0.9435932774636908  0.5541328228603319  0.14505028241170945  1.0000
  N   N3        1.0  0.1518414997548589  0.276603632162356  0.7321160854092454  1.0000
  N   N4        1.0  0.8481606625179551  0.7233970102339741  0.26788375878640386  1.0000
  N   N5        1.0  0.28025284882131973  0.385215892178948  0.8901786798513456  1.0000
  N   N6        1.0  0.7197472186730706  0.6147847481519476  0.10982106317283068  1.0000
  N   N7        1.0  0.6693414484562225  0.3877010972217647  0.3254256262066733  1.0000
  N   N8        1.0  0.3306584678367486  0.6122985614626016  0.6745739365712852  1.0000
  N   N9        1.0  0.07092917326983889  0.1594207254862425  0.03314659418717269  1.0000
  N   N10       1.0  0.9290689506475617  0.8405808944257556  0.9668532279117272  1.0000
  O   O1        1.0  0.5242204037923557  0.96986586552044  0.31831029388450094  1.0000
  O   O2        1.0  0.47577951250061545  0.030133793163926687  0.6816892688934645  1.0000
  O   O3        1.0  0.21780547604602415  0.9826298635877392  0.43058893926504976  1.0000
  O   O4        1.0  0.782194440246947  0.0173697950966272  0.5694106235129084  1.0000
  O   O5        1.0  0.9338053052130276  0.21576122367846298  0.44496786533866844  1.0000
  O   O6        1.0  0.06619459782292837  0.7842384335622015  0.5550324371716187  1.0000
  O   O7        1.0  0.7232062364206016  0.4466655947681416  0.4182083747687031  1.0000
  O   O8        1.0  0.2767893391140959  0.5533330781388273  0.5817908054200842  1.0000
  O   O9        1.0  0.4858801596816632  0.4212627071162557  0.2642848671744744  1.0000
  O   O10       1.0  0.5141220025911507  0.578737935280067  0.7357149770211749  1.0000
  O   O11       1.0  0.9045508385317831  0.21295837993849182  0.9787651897992191  1.0000
  O   O12       1.0  0.09544921570559949  0.7870422589487021  0.021235292957278756  1.0000
  O   O13       1.0  0.2682268313822789  0.0972504733640704  0.00040998039313679943  1.0000
  O   O14       1.0  0.7317709901322685  0.9027491832548618  0.9995894812133415  1.0000
  O   O15       1.0  0.534906925572713  0.30366832337060157  0.5576236548137743  1.0000
  O   O16       1.0  0.4650931286646695  0.6963323155165924  0.4423768279427236  1.0000
