data_image0
_chemical_formula_structural       Hg2H4C2N10Cl2
_chemical_formula_sum              "Hg2 H4 C2 N10 Cl2"
_cell_length_a       5.716318384674191
_cell_length_b       6.35284540280145
_cell_length_c       7.4707632352390485
_cell_angle_alpha    90.00072878597706
_cell_angle_beta     90.00059777320156
_cell_angle_gamma    90.35585941690368

_space_group_name_H-M_alt    "P 1"
_space_group_IT_number       1

loop_
  _space_group_symop_operation_xyz
  'x, y, z'

loop_
  _atom_site_type_symbol
  _atom_site_label
  _atom_site_symmetry_multiplicity
  _atom_site_fract_x
  _atom_site_fract_y
  _atom_site_fract_z
  _atom_site_occupancy
  Hg  Hg1       1.0  0.7390454120522847  0.9923564462946577  0.9151787905060684  1.0000
  Hg  Hg2       1.0  0.2609495971651938  0.007639553139362897  0.4151755559036799  1.0000
  H   H1        1.0  0.1079451669034981  0.6319153897321643  0.04355106981937239  1.0000
  H   H2        1.0  0.892055868522654  0.3680875113098594  0.5435472229768051  1.0000
  H   H3        1.0  0.10798604755035512  0.3577695858240163  0.044118418981341286  1.0000
  H   H4        1.0  0.8920182947230658  0.6422285046639191  0.5441109496679744  1.0000
  C   C1        1.0  0.8109929976184488  0.4928717418719162  0.9586256628529382  1.0000
  C   C2        1.0  0.1890081020889198  0.5071310329450185  0.45861672699368217  1.0000
  N   N1        1.0  0.6858541800419502  0.3217366023772997  0.9074714547638718  1.0000
  N   N2        1.0  0.3141459045499744  0.6782575638964093  0.4074681346392026  1.0000
  N   N3        1.0  0.48879018819688713  0.3897476518159382  0.8214918640411637  1.0000
  N   N4        1.0  0.5112109503415425  0.6102562317594861  0.3214880528156455  1.0000
  N   N5        1.0  0.4892523886890814  0.59190322548956  0.8204556207991515  1.0000
  N   N6        1.0  0.510748538834612  0.40809592298848674  0.3204508800334479  1.0000
  N   N7        1.0  0.6868308627912967  0.6625842535741956  0.9055418380659714  1.0000
  N   N8        1.0  0.3131712725844622  0.3374177021551362  0.4055400464808584  1.0000
  N   N9        1.0  0.014048352366891908  0.49430923547104305  0.047805170458858  1.0000
  N   N10       1.0  0.9859420540247471  0.5056893032994482  0.5478049701222147  1.0000
  Cl  Cl1       1.0  0.19540246884591284  0.9946761964950855  0.03328275419820409  1.0000
  Cl  Cl2       1.0  0.8046019251406733  0.005326456992605704  0.5332848384428246  1.0000
