data_image0
_chemical_formula_structural       Zn12H60C72N48O24
_chemical_formula_sum              "Zn12 H60 C72 N48 O24"
_cell_length_a       11.864483373340542
_cell_length_b       11.864457390253229
_cell_length_c       25.8281439430103
_cell_angle_alpha    90.00009685085169
_cell_angle_beta     89.99997879568328
_cell_angle_gamma    120.00016652851924

_space_group_name_H-M_alt    "P 1"
_space_group_IT_number       1

loop_
  _space_group_symop_operation_xyz
  'x, y, z'

loop_
  _atom_site_type_symbol
  _atom_site_label
  _atom_site_symmetry_multiplicity
  _atom_site_fract_x
  _atom_site_fract_y
  _atom_site_fract_z
  _atom_site_occupancy
  Zn  Zn1       1.0  0.58325508045192  0.011331518312530897  0.938423561723596  1.0000
  Zn  Zn2       1.0  0.4280763296835204  0.4167449565748598  0.9384237316066758  1.0000
  Zn  Zn3       1.0  0.9886659576867272  0.5719235482131141  0.9384237438947168  1.0000
  Zn  Zn4       1.0  0.4280771570173982  0.01133239033312348  0.5615765191894653  1.0000
  Zn  Zn5       1.0  0.5832574434106518  0.5719237849150075  0.561576722645519  1.0000
  Zn  Zn6       1.0  0.9886684981119344  0.4167449624233371  0.5615762410126451  1.0000
  Zn  Zn7       1.0  0.41674377263534274  0.9886673756488735  0.0615761998539881  1.0000
  Zn  Zn8       1.0  0.5719228796384215  0.5832552668646044  0.0615764171459361  1.0000
  Zn  Zn9       1.0  0.011333251634951575  0.42807667522549775  0.0615760176833504  1.0000
  Zn  Zn10      1.0  0.5719243550172878  0.9886672160944558  0.4384228552136165  1.0000
  Zn  Zn11      1.0  0.4167418962965925  0.42807462242539884  0.4384234261063825  1.0000
  Zn  Zn12      1.0  0.011332883537718942  0.5832564601041526  0.4384235205656993  1.0000
  H   H1        1.0  0.601422820090086  0.008162591099406279  0.7364829932082062  1.0000
  H   H2        1.0  0.4067375224103032  0.39857858493445525  0.736482386306527  1.0000
  H   H3        1.0  0.9918316423252308  0.593257421210339  0.7364835732997719  1.0000
  H   H4        1.0  0.4067369128443801  0.008157985051965981  0.7635163111740582  1.0000
  H   H5        1.0  0.6014230035165654  0.5932634176164842  0.7635165207437851  1.0000
  H   H6        1.0  0.99183805976876  0.3985764948878908  0.7635167994666148  1.0000
  H   H7        1.0  0.39857554637664816  0.9918367894812907  0.2635156068459565  1.0000
  H   H8        1.0  0.5932621735316275  0.6014211518840042  0.2635181496204098  1.0000
  H   H9        1.0  0.008167210762572081  0.4067414727527634  0.2635169626269089  1.0000
  H   H10       1.0  0.5932627830967405  0.99184175176395  0.23648306322922963  1.0000
  H   H11       1.0  0.3985783781330882  0.40673800491099854  0.23648324083455918  1.0000
  H   H12       1.0  0.008160793318232593  0.6014223990726606  0.23648257493641725  1.0000
  H   H13       1.0  0.7672662000071072  0.15504153173692  0.0329210594387774  1.0000
  H   H14       1.0  0.38777895365849707  0.23273720890036742  0.0329222832701035  1.0000
  H   H15       1.0  0.8449592400492277  0.6122232588850166  0.0329220038696434  1.0000
  H   H16       1.0  0.38777727491529396  0.15504225095190102  0.4670781114705136  1.0000
  H   H17       1.0  0.7672643441137694  0.6122218584123403  0.4670782558801889  1.0000
  H   H18       1.0  0.8449569376908458  0.23273400756865206  0.46707848978245897  1.0000
  H   H19       1.0  0.2327334959342833  0.8449582050798484  0.9670787021390623  1.0000
  H   H20       1.0  0.6122207422831637  0.7672625279172538  0.9670778654822811  1.0000
  H   H21       1.0  0.15504094251241438  0.3877759913115995  0.9670785320570661  1.0000
  H   H22       1.0  0.6122229076460782  0.8449569992438698  0.5329220372816437  1.0000
  H   H23       1.0  0.23273535182788407  0.3877778784052737  0.5329218928722028  1.0000
  H   H24       1.0  0.15504311448550095  0.7672670587270218  0.5329220461449609  1.0000
  H   H25       1.0  0.5992293009865006  0.7225752952908451  0.8396250208338003  1.0000
  H   H26       1.0  0.12334212423658628  0.40076822069179485  0.8396253241171509  1.0000
  H   H27       1.0  0.2774220297251234  0.8766538285208798  0.8396251077553603  1.0000
  H   H28       1.0  0.12333867271320995  0.7225670578378639  0.6603744728746507  1.0000
  H   H29       1.0  0.5992286247502961  0.8766580667797331  0.660374104772565  1.0000
  H   H30       1.0  0.2774273388129274  0.4007745407785563  0.6603743354019116  1.0000
  H   H31       1.0  0.40077110742345207  0.27742710047948543  0.1603743535704538  1.0000
  H   H32       1.0  0.876654069902983  0.5992299608025817  0.16037443746038352  1.0000
  H   H33       1.0  0.7225780224509464  0.12334723777394156  0.1603750409975078  1.0000
  H   H34       1.0  0.8766603107598885  0.2774300200261877  0.3396260630513126  1.0000
  H   H35       1.0  0.40077155781027335  0.123341183413487  0.3396248824559436  1.0000
  H   H36       1.0  0.7225733303684337  0.5992242227962167  0.33962620052456327  1.0000
  H   H37       1.0  0.7461328674868782  0.20521204288343137  0.8498628650055126  1.0000
  H   H38       1.0  0.4590785905422479  0.2538655900709442  0.8498625210519537  1.0000
  H   H39       1.0  0.7947860812511607  0.5409231361780087  0.8498629906117899  1.0000
  H   H40       1.0  0.45907811530493353  0.2052124338968184  0.6501373492765766  1.0000
  H   H41       1.0  0.7461338534550919  0.5409219456463887  0.6501370674286379  1.0000
  H   H42       1.0  0.7947869698997465  0.2538649433941346  0.6501369523489872  1.0000
  H   H43       1.0  0.25386634183506374  0.794788180556033  0.1501372837471067  1.0000
  H   H44       1.0  0.5409211053994056  0.7461341467466768  0.1501376277004383  1.0000
  H   H45       1.0  0.20521397092491614  0.45907793011681264  0.150137158141078  1.0000
  H   H46       1.0  0.5409215806367272  0.7947873029207957  0.3498627994758081  1.0000
  H   H47       1.0  0.2538666853406966  0.45907863402658944  0.3498630813240027  1.0000
  H   H48       1.0  0.20521405551549057  0.7461351496561405  0.3498628092288741  1.0000
  H   H49       1.0  0.8695541588578808  0.3715272207675185  0.8495977042175866  1.0000
  H   H50       1.0  0.5019715890385399  0.1304441984486077  0.8495980294863443  1.0000
  H   H51       1.0  0.6284717908310568  0.4980293481707037  0.849597773614839  1.0000
  H   H52       1.0  0.501971177611658  0.3715263048672455  0.6504026244711127  1.0000
  H   H53       1.0  0.8695539788265234  0.49802779926828566  0.6504022549191433  1.0000
  H   H54       1.0  0.6284734265399905  0.13044389107015059  0.6504013590139408  1.0000
  H   H55       1.0  0.13044505046406848  0.628473002671939  0.1504024445350254  1.0000
  H   H56       1.0  0.4980289497572555  0.8695563812243705  0.1504021192662961  1.0000
  H   H57       1.0  0.371527418490345  0.5019708752670553  0.1504016007886761  1.0000
  H   H58       1.0  0.4980298478041193  0.628473788184735  0.3495979114558452  1.0000
  H   H59       1.0  0.13044571711513683  0.501971937549328  0.34959789383324136  1.0000
  H   H60       1.0  0.3715275988747066  0.8695562019784263  0.3495976282148234  1.0000
  C   C1        1.0  0.591992418751211  0.9481963451369141  0.8371932653003853  1.0000
  C   C2        1.0  0.35620696896940984  0.408008592047544  0.8371919150626895  1.0000
  C   C3        1.0  0.051800579137108144  0.643795988562836  0.8371939679554857  1.0000
  C   C4        1.0  0.3561986870364107  0.9481913594966613  0.6628056092631951  1.0000
  C   C5        1.0  0.5919916585808594  0.6437972572144732  0.6628066330882519  1.0000
  C   C6        1.0  0.051802253790896244  0.40800804951994973  0.6628069750852745  1.0000
  C   C7        1.0  0.40800714680407424  0.05180520777636129  0.16280533475451622  1.0000
  C   C8        1.0  0.6437922403522691  0.5919916313910677  0.16280784651537064  1.0000
  C   C9        1.0  0.9481986301853739  0.3562042348783265  0.16280695514622323  1.0000
  C   C10       1.0  0.6437988365764654  0.051807178229530806  0.3371933779652636  1.0000
  C   C11       1.0  0.4080068382722574  0.35620030727057655  0.33719351566339384  1.0000
  C   C12       1.0  0.9481974421507643  0.5919916872976642  0.33719317366711726  1.0000
  C   C13       1.0  0.5982492321950161  0.872125563471748  0.7924707031358765  1.0000
  C   C14       1.0  0.27387459556470617  0.401748540371706  0.7924701617631627  1.0000
  C   C15       1.0  0.12787170113152516  0.7261241290908986  0.7924706867209537  1.0000
  C   C16       1.0  0.2738715819766712  0.8721192294340129  0.7075288934476803  1.0000
  C   C17       1.0  0.5982483736498593  0.7261265575721864  0.7075288094325601  1.0000
  C   C18       1.0  0.12787503980598555  0.40175055685157457  0.7075298856031509  1.0000
  C   C19       1.0  0.40175214945436716  0.12787585905488907  0.207528671267923  1.0000
  C   C20       1.0  0.7261251003769545  0.5982511964459081  0.207529986989222  1.0000
  C   C21       1.0  0.872127508190424  0.27387609434855875  0.2075294620316583  1.0000
  C   C22       1.0  0.7261281139647195  0.12788050738275555  0.2924708681301524  1.0000
  C   C23       1.0  0.4017534946192426  0.2738743783326001  0.2924705649710049  1.0000
  C   C24       1.0  0.8721251427553867  0.5982486933441892  0.2924702631489993  1.0000
  C   C25       1.0  0.6009182880726772  0.9169563760044855  0.7419816102594937  1.0000
  C   C26       1.0  0.31603429489783247  0.39907971315133045  0.7419810471700643  1.0000
  C   C27       1.0  0.08303982539678141  0.6839597692093663  0.7419819514379711  1.0000
  C   C28       1.0  0.3160348351903863  0.9169522235246533  0.758017629989034  1.0000
  C   C29       1.0  0.6009155004458152  0.6839633051915613  0.758018290060541  1.0000
  C   C30       1.0  0.0830439222845598  0.3990803049128502  0.7580193855346025  1.0000
  C   C31       1.0  0.3990822507225715  0.08304420366679477  0.25801776414405  1.0000
  C   C32       1.0  0.683965044809412  0.6009186941890761  0.2580191015818372  1.0000
  C   C33       1.0  0.9169595143104631  0.31603863813104033  0.2580181973139304  1.0000
  C   C34       1.0  0.6839643741307455  0.0830479999122601  0.24198135723992917  1.0000
  C   C35       1.0  0.3990841954955755  0.3160364316252071  0.24198147151729904  1.0000
  C   C36       1.0  0.9169549308029727  0.6009185890494065  0.2419807632175335  1.0000
  C   C37       1.0  0.8333983870268682  0.2800816070320098  0.9191911357313245  1.0000
  C   C38       1.0  0.4466849831279589  0.16660346023802933  0.9191911247692701  1.0000
  C   C39       1.0  0.7199183021962341  0.5533172273039497  0.9191916381582033  1.0000
  C   C40       1.0  0.44668680225947105  0.2800828741900504  0.5808087428784035  1.0000
  C   C41       1.0  0.8333971800865286  0.5533157140615829  0.5808092027568819  1.0000
  C   C42       1.0  0.7199179572327594  0.16660050379238095  0.580809062952902  1.0000
  C   C43       1.0  0.1666013089147925  0.7199181297856044  0.0808090130210601  1.0000
  C   C44       1.0  0.5533160422870084  0.8333966328114004  0.080808249634039  1.0000
  C   C45       1.0  0.28008188036540815  0.44668202289266645  0.08080889776850601  1.0000
  C   C46       1.0  0.5533142231560291  0.7199172188610775  0.4191914058740025  1.0000
  C   C47       1.0  0.16660202923595344  0.4466845093795798  0.4191917203448341  1.0000
  C   C48       1.0  0.2800835548024666  0.8333991026369035  0.4191910857992768  1.0000
  C   C49       1.0  0.8044359163607879  0.21473552377690916  0.998389602948336  1.0000
  C   C50       1.0  0.41030048766382526  0.19556446320154916  0.9983896290651941  1.0000
  C   C51       1.0  0.7852642344796475  0.5897006570264621  0.9983893623202108  1.0000
  C   C52       1.0  0.41030048703432  0.21473464343177548  0.501611005058777  1.0000
  C   C53       1.0  0.804435947024608  0.5897007258256151  0.5016103420996387  1.0000
  C   C54       1.0  0.7852652098925148  0.19556501712131807  0.5016105785802552  1.0000
  C   C55       1.0  0.19556293672674488  0.7852633701853406  0.0016105458037927003  1.0000
  C   C56       1.0  0.589700537751682  0.8044356298495785  0.0016105196872118002  1.0000
  C   C57       1.0  0.21473448822231223  0.4103000530339926  0.0016103992580838004  1.0000
  C   C58       1.0  0.5896996955273224  0.7852646067648407  0.4983895308679251  1.0000
  C   C59       1.0  0.1955632622970712  0.4102994976129964  0.4983894194784284  1.0000
  C   C60       1.0  0.21473785746593407  0.8044380911185911  0.49838995734769753  1.0000
  C   C61       1.0  0.5996586496949518  0.755796037490299  0.8002737739313234  1.0000
  C   C62       1.0  0.15613507809161578  0.4003356454112179  0.8002736742809446  1.0000
  C   C63       1.0  0.244200748681827  0.8438626130078505  0.8002730638540285  1.0000
  C   C64       1.0  0.15613098101608358  0.755790619395391  0.6997261298050148  1.0000
  C   C65       1.0  0.5996587891323486  0.8438656925998345  0.6997261261165875  1.0000
  C   C66       1.0  0.24420206343627626  0.4003397546107409  0.6997263721142275  1.0000
  C   C67       1.0  0.40034224533525276  0.24420587165988644  0.1997263748218003  1.0000
  C   C68       1.0  0.8438651044694868  0.5996636047837004  0.19972608729666771  1.0000
  C   C69       1.0  0.7557997901136914  0.15613796666428215  0.19972669772405993  1.0000
  C   C70       1.0  0.843868358691161  0.24420778794501535  0.3002740189468867  1.0000
  C   C71       1.0  0.4003422362823558  0.1561344004487425  0.3002728611121768  1.0000
  C   C72       1.0  0.7557959467973915  0.5996582964969974  0.3002741638121975  1.0000
  N   N1        1.0  0.9216731552990894  0.38085589834271627  0.9482718475953649  1.0000
  N   N2        1.0  0.45918406293181147  0.07832823074551244  0.9482721571900967  1.0000
  N   N3        1.0  0.6191448710299808  0.540819686550229  0.9482727095006283  1.0000
  N   N4        1.0  0.45918281156766466  0.3808548520170446  0.5517284875102534  1.0000
  N   N5        1.0  0.9216735066852024  0.5408167814853543  0.5517277356423662  1.0000
  N   N6        1.0  0.6191425454683781  0.0783252250101114  0.5517279698082334  1.0000
  N   N7        1.0  0.07832605402285249  0.6191443250967481  0.0517283011572474  1.0000
  N   N8        1.0  0.540816962483426  0.9216718623047627  0.0517276043877644  1.0000
  N   N9        1.0  0.38085566776580754  0.4591808931227492  0.05172743925201222  1.0000
  N   N10       1.0  0.5408168843742659  0.619144884801422  0.44827204841668333  1.0000
  N   N11       1.0  0.0783280053497464  0.45918282494307766  0.44827202593526755  1.0000
  N   N12       1.0  0.38085679423886615  0.9216731823302952  0.4482721789436681  1.0000
  N   N13       1.0  0.7584831311049883  0.17404102659720883  0.9498522280591146  1.0000
  N   N14       1.0  0.4155601750810618  0.24151826463869952  0.9498534448310068  1.0000
  N   N15       1.0  0.8259575872840514  0.5844423624829249  0.9498527681050746  1.0000
  N   N16       1.0  0.4155599634594296  0.17404159319379897  0.5501475776058982  1.0000
  N   N17       1.0  0.7584818430267576  0.5844398334935265  0.5501477070459374  1.0000
  N   N18       1.0  0.8259592262658019  0.24151662050281444  0.5501479559485533  1.0000
  N   N19       1.0  0.24151487912840952  0.8259570245096838  0.0501479206927655  1.0000
  N   N20       1.0  0.5844403637149967  0.7584823150351243  0.0501470910961856  1.0000
  N   N21       1.0  0.17404162203762044  0.4155578609556871  0.0501469934729926  1.0000
  N   N22       1.0  0.5844410619560774  0.8259584998573288  0.44985257114650784  1.0000
  N   N23       1.0  0.24151652344131952  0.4155595470914265  0.44985282888097805  1.0000
  N   N24       1.0  0.17404348485823112  0.7584851582598875  0.44985257997891653  1.0000
  N   N25       1.0  0.8234091063761968  0.28260813003895197  0.8676156157956498  1.0000
  N   N26       1.0  0.4591994718318588  0.1765913528810828  0.8676156058030244  1.0000
  N   N27       1.0  0.7173915266744899  0.5408039317346435  0.8676153374260949  1.0000
  N   N28       1.0  0.45920011797230853  0.28260790011470516  0.6323846517262482  1.0000
  N   N29       1.0  0.823409220946658  0.5408012807887488  0.6323847205317679  1.0000
  N   N30       1.0  0.7173918654144913  0.1765894080683381  0.632384201615551  1.0000
  N   N31       1.0  0.17659094579987328  0.7173929362558698  0.1323845329572251  1.0000
  N   N32       1.0  0.5408023964377835  0.8234095830254093  0.1323845429496444  1.0000
  N   N33       1.0  0.28260949874128727  0.45919616131733676  0.1323851985008702  1.0000
  N   N34       1.0  0.5408000645893337  0.7173913500819111  0.36761588420046115  1.0000
  N   N35       1.0  0.17659083122941882  0.4591997855060727  0.3676154282211002  1.0000
  N   N36       1.0  0.2826091600010159  0.8234106849827897  0.3676159471368621  1.0000
  N   N37       1.0  0.9004354205609459  0.3366477450655268  0.9993215710398147  1.0000
  N   N38       1.0  0.43621449912560456  0.09957018675154934  0.9993219060768654  1.0000
  N   N39       1.0  0.6633552912679975  0.5637882620840317  0.9993220661656608  1.0000
  N   N40       1.0  0.43621249906626497  0.3366443900033288  0.500678346479873  1.0000
  N   N41       1.0  0.9004330523130192  0.5637867230028845  0.5006780076031134  1.0000
  N   N42       1.0  0.6633548915378641  0.09956709489606647  0.5006778483590111  1.0000
  N   N43       1.0  0.09956427538098464  0.6633519917529399  0.0006789648871219002  1.0000
  N   N44       1.0  0.5637868825243186  0.9004312357767859  0.0006782426760309999  1.0000
  N   N45       1.0  0.33664657700164474  0.4362126738224604  0.000678082587001  1.0000
  N   N46       1.0  0.5637876834948372  0.6633548601915891  0.4993214150977324  1.0000
  N   N47       1.0  0.09956797310221795  0.43621337004739763  0.4993217539747477  1.0000
  N   N48       1.0  0.336647819585366  0.9004346838640844  0.4993215260448097  1.0000
  O   O1        1.0  0.5786939840187343  0.8975322686985265  0.882714907354206  1.0000
  O   O2        1.0  0.31884604978199604  0.4213146793628796  0.8827131967118121  1.0000
  O   O3        1.0  0.10246579762793565  0.6811619936706634  0.8827152514155259  1.0000
  O   O4        1.0  0.31883482731868157  0.8975289944965894  0.6172839323584185  1.0000
  O   O5        1.0  0.578692249951459  0.6811618338793579  0.6172857625060431  1.0000
  O   O6        1.0  0.10246759948868343  0.4213067370458177  0.6172853154120475  1.0000
  O   O7        1.0  0.4213052253026747  0.10246795473923957  0.1172844670493092  1.0000
  O   O8        1.0  0.6811530291543806  0.57868736017479  0.11728656486696562  1.0000
  O   O9        1.0  0.8975325688401414  0.31883738691428937  0.1172852845113823  1.0000
  O   O10       1.0  0.6811630525283334  0.10247087270595759  0.3827146676959714  1.0000
  O   O11       1.0  0.42130491742862114  0.3188353743747214  0.3827155477692301  1.0000
  O   O12       1.0  0.8975334259265537  0.5786933560044574  0.3827144461658137  1.0000
  O   O13       1.0  0.5992656811802634  0.05711540681203799  0.8296441781038908  1.0000
  O   O14       1.0  0.45784781111530043  0.4007301354974616  0.8296416127107733  1.0000
  O   O15       1.0  0.9428804075334585  0.5421485766207895  0.8296454978533703  1.0000
  O   O16       1.0  0.4578443595970612  0.057110608239021594  0.6703551599528126  1.0000
  O   O17       1.0  0.5992674056024824  0.54215359041892  0.6703557225558683  1.0000
  O   O18       1.0  0.9428833576082809  0.40073237267993284  0.6703556386709835  1.0000
  O   O19       1.0  0.4007335281408758  0.9428848166248757  0.1703548091250724  1.0000
  O   O20       1.0  0.5421513982066413  0.5992700879420026  0.1703585360418387  1.0000
  O   O21       1.0  0.05711928840874242  0.4578511601985228  0.17035542524811126  1.0000
  O   O22       1.0  0.5421549801101834  0.942887799101385  0.3296449887990889  1.0000
  O   O23       1.0  0.4007331331933059  0.4578469892540583  0.3296444261967721  1.0000
  O   O24       1.0  0.05711766780695628  0.5992677203703495  0.3296441229068776  1.0000
