data_image0
_chemical_formula_structural       CoH52C40N2O4
_chemical_formula_sum              "Co1 H52 C40 N2 O4"
_cell_length_a       8.295672431162611
_cell_length_b       11.222042370515695
_cell_length_c       11.753102667911458
_cell_angle_alpha    104.01136063805158
_cell_angle_beta     95.32895779896695
_cell_angle_gamma    97.3915551251026

_space_group_name_H-M_alt    "P 1"
_space_group_IT_number       1

loop_
  _space_group_symop_operation_xyz
  'x, y, z'

loop_
  _atom_site_type_symbol
  _atom_site_label
  _atom_site_symmetry_multiplicity
  _atom_site_fract_x
  _atom_site_fract_y
  _atom_site_fract_z
  _atom_site_occupancy
  Co  Co1       1.0  0.500001153624595  0.5000001717690878  0.9999991597441568  1.0000
  H   H1        1.0  0.5184706030474757  0.2222170916102257  0.4944908044865741  1.0000
  H   H2        1.0  0.4815261088419405  0.7777794197054319  0.5055082400297763  1.0000
  H   H3        1.0  0.1894222515399662  0.46084360400528374  0.6557449457051093  1.0000
  H   H4        1.0  0.810576482905958  0.5391566345505437  0.34425342122887054  1.0000
  H   H5        1.0  0.8457047730748428  0.5564791029049658  0.005514462723667248  1.0000
  H   H6        1.0  0.1543007200991724  0.44351836378508847  0.9944777838628839  1.0000
  H   H7        1.0  0.6337119902880984  0.9235458956482815  0.9320309905906967  1.0000
  H   H8        1.0  0.3662912028804115  0.07645891019308242  0.06797898535939592  1.0000
  H   H9        1.0  0.044973117799607096  0.7317834814961728  0.9779131510753772  1.0000
  H   H10       1.0  0.9550343335707083  0.2682176831369675  0.022082660850969712  1.0000
  H   H11       1.0  0.4518211209423626  0.7367551013849152  0.9580526421809097  1.0000
  H   H12       1.0  0.5481841755829677  0.2632478721335048  0.041951948926183  1.0000
  H   H13       1.0  0.7012819919745681  0.2026122035256321  0.8629868583813688  1.0000
  H   H14       1.0  0.298717871483369  0.7973935907058093  0.13701630239597762  1.0000
  H   H15       1.0  0.6172216315906168  0.07476526371041099  0.740189540182854  1.0000
  H   H16       1.0  0.3827788256854632  0.9252377253580448  0.25981470459328193  1.0000
  H   H17       1.0  0.8334879691476829  0.11057393287409673  0.78133936891647  1.0000
  H   H18       1.0  0.1665139075627806  0.8894299880184847  0.21866434710890562  1.0000
  H   H19       1.0  0.8904470426951862  0.40712141797853707  0.6831667592768653  1.0000
  H   H20       1.0  0.10955190137281083  0.5928797562889231  0.31683099232361667  1.0000
  H   H21       1.0  0.8701417962346198  0.3953169179279499  0.8291314185138817  1.0000
  H   H22       1.0  0.1298585415236744  0.6046851764447965  0.1708675015047092  1.0000
  H   H23       1.0  0.9979224480672286  0.30392391989755646  0.7424589503928161  1.0000
  H   H24       1.0  0.0020766670067117847  0.6960781725032845  0.25754073162747204  1.0000
  H   H25       1.0  0.4131567455518238  0.454202180117477  0.38845176045052204  1.0000
  H   H26       1.0  0.5868411504058245  0.5457943155918272  0.6115490678174283  1.0000
  H   H27       1.0  0.46560894759598176  0.303039671700077  0.3434331255807735  1.0000
  H   H28       1.0  0.5343901581739772  0.6969568201217271  0.6565677892699142  1.0000
  H   H29       1.0  0.29473180273765814  0.34267386433634067  0.2659262214395497  1.0000
  H   H30       1.0  0.705267709404403  0.6573244930493019  0.7340743113285912  1.0000
  H   H31       1.0  0.28313381980091623  0.11650845785830202  0.38195800331077123  1.0000
  H   H32       1.0  0.7168644954008698  0.8834899092742673  0.6180415942901901  1.0000
  H   H33       1.0  0.10197084395756659  0.1390117665252717  0.4483712098812164  1.0000
  H   H34       1.0  0.8980283004285142  0.8609847428747841  0.5516271592161743  1.0000
  H   H35       1.0  0.11223529699792321  0.1528996109419651  0.3014580296879004  1.0000
  H   H36       1.0  0.8877612310134992  0.8470959763808921  0.6985399329930716  1.0000
  H   H37       1.0  0.012631767196694498  0.355091948306935  0.4933704084923177  1.0000
  H   H38       1.0  0.9873641541245491  0.644906438319488  0.5066273187742993  1.0000
  H   H39       1.0  0.1416808696654144  0.48323897181062136  0.4684275827576272  1.0000
  H   H40       1.0  0.8583158808401237  0.5167575570832881  0.531568916005412  1.0000
  H   H41       1.0  0.037137743291602  0.3632842511897749  0.3466647267676067  1.0000
  H   H42       1.0  0.9628589943418931  0.6367122718447079  0.6533326205798674  1.0000
  H   H43       1.0  0.07644954094739381  0.9213761996910108  0.8991638680540037  1.0000
  H   H44       1.0  0.9235561876941178  0.07862865111008689  0.10083864380166574  1.0000
  H   H45       1.0  0.9074465845754673  0.9995888767702681  0.8805951136076262  1.0000
  H   H46       1.0  0.09255794712577631  0.0004159837777564001  0.1194064630808711  1.0000
  H   H47       1.0  0.6683696738606457  0.0819759519927743  0.5315725102599629  1.0000
  H   H48       1.0  0.3316269994126415  0.9180205417446247  0.4684290800096846  1.0000
  H   H49       1.0  0.782341699981572  0.217330225672093  0.5070181957023507  1.0000
  H   H50       1.0  0.21765741866042995  0.7826662720091236  0.49298187056390935  1.0000
  H   H51       1.0  0.8814154304704758  0.1220538428649931  0.5822098759236383  1.0000
  H   H52       1.0  0.11858404305545626  0.8779444969423976  0.41779320259779945  1.0000
  C   C1        1.0  0.5283880607885436  0.37164162541730406  0.7826368081152353  1.0000
  C   C2        1.0  0.47161309328201645  0.6283586053635091  0.21736173198421946  1.0000
  C   C3        1.0  0.48220112588813885  0.27993177045534173  0.5735923591421043  1.0000
  C   C4        1.0  0.5177965861915156  0.7200638012611761  0.4264073872904746  1.0000
  C   C5        1.0  0.578973082222376  0.2957462821686079  0.6813005281760242  1.0000
  C   C6        1.0  0.42102788797019025  0.7042530246194119  0.318696930088052  1.0000
  C   C7        1.0  0.3881865051976093  0.43161710201311365  0.7709230210329707  1.0000
  C   C8        1.0  0.6118101773796668  0.5683849923033294  0.22907733640627015  1.0000
  C   C9        1.0  0.29529851735436796  0.41330420498843495  0.6601733487036441  1.0000
  C   C10       1.0  0.7046990072792525  0.5866960374549066  0.33982493164759126  1.0000
  C   C11       1.0  0.34106550559476995  0.3362934569577902  0.5604228947975969  1.0000
  C   C12       1.0  0.6589317965447351  0.6637058439145066  0.4395768494715639  1.0000
  C   C13       1.0  0.8061272970684854  0.6398196811017345  0.9883262758568707  1.0000
  C   C14       1.0  0.193876340986904  0.3601805712011412  0.011668194485892503  1.0000
  C   C15       1.0  0.686563647833154  0.8444792892318349  0.949174080029465  1.0000
  C   C16       1.0  0.3134356125026585  0.15552370958354803  0.050829229579491715  1.0000
  C   C17       1.0  0.9146501627506609  0.7382338057349288  0.973693486930273  1.0000
  C   C18       1.0  0.08535338520043467  0.26176640555203073  0.026306923503525998  1.0000
  C   C19       1.0  0.24707951335904704  0.3118842894451959  0.43668694712846456  1.0000
  C   C20       1.0  0.7529184212147227  0.6881122238423671  0.5633113353861887  1.0000
  C   C21       1.0  0.8556832216116065  0.8435785389975621  0.9532782808120716  1.0000
  C   C22       1.0  0.1443194714111087  0.156423518303086  0.04672505529416781  1.0000
  C   C23       1.0  0.5843211808218314  0.7423489125360945  0.9632785382005836  1.0000
  C   C24       1.0  0.4156817346949921  0.2576540863355988  0.03672333398773022  1.0000
  C   C25       1.0  0.7348557973566514  0.23762054134507335  0.690816367713083  1.0000
  C   C26       1.0  0.2651441082854689  0.7623796757449951  0.3091846315569313  1.0000
  C   C27       1.0  0.7203596483792934  0.1511951186275979  0.7745033574245427  1.0000
  C   C28       1.0  0.2796424508252855  0.8488097438360284  0.2254988946829073  1.0000
  C   C29       1.0  0.8825492451234425  0.342213827580963  0.739768373099608  1.0000
  C   C30       1.0  0.11744847626020058  0.6577873447145918  0.2602301405025642  1.0000
  C   C31       1.0  0.36235762291194357  0.3552944765752244  0.35402424354806783  1.0000
  C   C32       1.0  0.637640495539813  0.6447029607051321  0.6459751208019568  1.0000
  C   C33       1.0  0.18278675159302793  0.17171230061264  0.3895107471276661  1.0000
  C   C34       1.0  0.81721398323338  0.828286058744915  0.6104890236387774  1.0000
  C   C35       1.0  0.1012135971472432  0.38249899436878115  0.4369296759913013  1.0000
  C   C36       1.0  0.8987831404862519  0.6174975286657087  0.5630676713561797  1.0000
  C   C37       1.0  0.9698584754461876  0.9528388686048217  0.9397260226848871  1.0000
  C   C38       1.0  0.030141785079862895  0.0471631906114212  0.06027798884030491  1.0000
  C   C39       1.0  0.7673998475263417  0.1604701508425919  0.5705860733045826  1.0000
  C   C40       1.0  0.2325982323092929  0.8395272688595126  0.42941583679874645  1.0000
  N   N1        1.0  0.6439093876953663  0.6419680598841495  0.9823756243498067  1.0000
  N   N2        1.0  0.35609436987780185  0.3580330871144355  0.01762417075049433  1.0000
  O   O1        1.0  0.606063928046872  0.3941117355699717  0.8922912112311465  1.0000
  O   O2        1.0  0.3939364097114293  0.6058903588027746  0.10770770878744429  1.0000
  O   O3        1.0  0.3531699920732123  0.5058728314259611  0.8696907939415796  1.0000
  O   O4        1.0  0.646831948997459  0.4941311187637041  0.13030867916162953  1.0000
