data_image0
_chemical_formula_structural       K4H32C40N12
_chemical_formula_sum              "K4 H32 C40 N12"
_cell_length_a       6.700157136002754
_cell_length_b       6.758966430020684
_cell_length_c       20.55269011207293
_cell_angle_alpha    89.99971461159308
_cell_angle_beta     89.99989645209303
_cell_angle_gamma    90.00000200216077

_space_group_name_H-M_alt    "P 1"
_space_group_IT_number       1

loop_
  _space_group_symop_operation_xyz
  'x, y, z'

loop_
  _atom_site_type_symbol
  _atom_site_label
  _atom_site_symmetry_multiplicity
  _atom_site_fract_x
  _atom_site_fract_y
  _atom_site_fract_z
  _atom_site_occupancy
  K   K1        1.0  0.044884836095754096  0.8530589971345677  0.24999916971525235  1.0000
  K   K2        1.0  0.45511252108377676  0.3530446859355364  0.2500014015119802  1.0000
  K   K3        1.0  0.5448866501258536  0.6469423209435516  0.7499999167690845  1.0000
  K   K4        1.0  0.9551053801084561  0.1469531615411697  0.7499992292221265  1.0000
  H   H1        1.0  0.7729241860607488  0.5900845786311422  0.354145632496909  1.0000
  H   H2        1.0  0.7270760003025528  0.09008801240650398  0.3541445931623386  1.0000
  H   H3        1.0  0.27292110282438387  0.9099136812544442  0.85414624714425  1.0000
  H   H4        1.0  0.7729232691417989  0.590089125566621  0.1458551373480006  1.0000
  H   H5        1.0  0.22707200014569645  0.4099083463162004  0.6458551992259131  1.0000
  H   H6        1.0  0.27292167840627  0.9099093510893325  0.6458562385564335  1.0000
  H   H7        1.0  0.7270735908826395  0.09009255934564915  0.1458536114595574  1.0000
  H   H8        1.0  0.22707739457437268  0.4099111969689915  0.8541447212588551  1.0000
  H   H9        1.0  0.8316538383042341  0.47619648388974406  0.4670413913982188  1.0000
  H   H10       1.0  0.6683561829245688  0.976198963954104  0.46704054631006636  1.0000
  H   H11       1.0  0.3316358187480972  0.0238024878943364  0.9670426343055566  1.0000
  H   H12       1.0  0.8316371278085626  0.4762012726410063  0.0329580693921301  1.0000
  H   H13       1.0  0.16835727292806263  0.5238008796137805  0.5329584672079619  1.0000
  H   H14       1.0  0.33164000328463317  0.023798399549114894  0.5329593123005196  1.0000
  H   H15       1.0  0.6683618599621537  0.9762007936698112  0.0329577108540846  1.0000
  H   H16       1.0  0.16836353590763045  0.5238005294107565  0.9670417892135247  1.0000
  H   H17       1.0  0.063922533730242  0.18452451000977985  0.4859605468644972  1.0000
  H   H18       1.0  0.43609142445426125  0.68451664430102  0.4859614897799887  1.0000
  H   H19       1.0  0.5639034576522802  0.3154830395445457  0.9859634524626486  1.0000
  H   H20       1.0  0.0639014502928319  0.18451923061983416  0.014037409458723  1.0000
  H   H21       1.0  0.9360945475141305  0.815483210114344  0.5140383386228677  1.0000
  H   H22       1.0  0.5639032692526269  0.3154807192021706  0.5140383688310378  1.0000
  H   H23       1.0  0.4361001910685331  0.6845187625072738  0.014036406142125198  1.0000
  H   H24       1.0  0.9360977209210333  0.8154810919157427  0.9859624491485732  1.0000
  H   H25       1.0  0.23110693763065623  0.036277732611019096  0.3892092931045141  1.0000
  H   H26       1.0  0.26890008842549656  0.5362802167406925  0.38920984826009425  1.0000
  H   H27       1.0  0.7311012984119925  0.4637179832481308  0.8892114709364947  1.0000
  H   H28       1.0  0.23109725949416318  0.03628133467007189  0.11078831907053652  1.0000
  H   H29       1.0  0.7688996960973993  0.9637196308998311  0.6107895923943687  1.0000
  H   H30       1.0  0.7310960977837268  0.46371862627867694  0.6107900103492909  1.0000
  H   H31       1.0  0.2689008578078145  0.5362808597750685  0.1107879011168151  1.0000
  H   H32       1.0  0.7689019117210446  0.963718987869221  0.8892110529824463  1.0000
  C   C1        1.0  0.9656973967857848  0.37000245617520733  0.3095851644643659  1.0000
  C   C2        1.0  0.534303044040456  0.8700034512923691  0.3095839120415107  1.0000
  C   C3        1.0  0.46569430535837597  0.12999596274443087  0.8095867211300457  1.0000
  C   C4        1.0  0.9656962335962189  0.3700048441900776  0.19041438989978587  1.0000
  C   C5        1.0  0.03430326692899399  0.6299949073243951  0.6904151806992118  1.0000
  C   C6        1.0  0.4656946346697026  0.1299939122071692  0.690416433122948  1.0000
  C   C7        1.0  0.5343033733531826  0.8700043597911175  0.1904131374776981  1.0000
  C   C8        1.0  0.0343029376176389  0.6299954783455064  0.8095854687075175  1.0000
  C   C9        1.0  0.8722680963499696  0.4660048851522801  0.3637809391327735  1.0000
  C   C10       1.0  0.6277380177723869  0.9660103226170732  0.3637781718278887  1.0000
  C   C11       1.0  0.3722575396049095  0.0339941831787911  0.8637816789004091  1.0000
  C   C12       1.0  0.8722597701748922  0.4660080994910629  0.1362185142377257  1.0000
  C   C13       1.0  0.12773405986842326  0.5339895193187514  0.636218919478459  1.0000
  C   C14       1.0  0.3722596609432002  0.033989999929609396  0.6362202271169153  1.0000
  C   C15       1.0  0.6277386466017062  0.9660105778977695  0.1362191528127852  1.0000
  C   C16       1.0  0.1277408935426294  0.5339922230482584  0.8637808578148239  1.0000
  C   C17       1.0  0.9051178977870719  0.40162918003125714  0.4265503805002595  1.0000
  C   C18       1.0  0.5948878675323286  0.9016227800090274  0.42655103849850207  1.0000
  C   C19       1.0  0.40510585041928227  0.09837928918817337  0.9265524751756685  1.0000
  C   C20       1.0  0.9051069335158101  0.401624474314751  0.0734496447665194  1.0000
  C   C21       1.0  0.09488724343474789  0.59837558104919  0.5734499646559781  1.0000
  C   C22       1.0  0.4051083186714947  0.0983745834793552  0.573450766329337  1.0000
  C   C23       1.0  0.5948933207959685  0.9016239923834206  0.0734468968749127  1.0000
  C   C24       1.0  0.0948937301976969  0.5983773277295937  0.9265511869477622  1.0000
  C   C25       1.0  0.03451440343423679  0.24128207874247207  0.4373308655429184  1.0000
  C   C26       1.0  0.4655028101855123  0.7412816118253784  0.43732935830058034  1.0000
  C   C27       1.0  0.5344923406977385  0.2587217725460462  0.9373314307256209  1.0000
  C   C28       1.0  0.03449155872869619  0.24128197595322118  0.0626679889123025  1.0000
  C   C29       1.0  0.9655041703096712  0.7587197233096602  0.5626689930574429  1.0000
  C   C30       1.0  0.5344918835240904  0.2587172312013806  0.5626695272006259  1.0000
  C   C31       1.0  0.46550832301711137  0.7412800295020079  0.0626689144343473  1.0000
  C   C32       1.0  0.9655091049888467  0.7587198261022507  0.937331383139039  1.0000
  C   C33       1.0  0.12596613869503404  0.15855830771097598  0.3830659899434465  1.0000
  C   C34       1.0  0.37404092488932855  0.6585533985189329  0.3830669695244069  1.0000
  C   C35       1.0  0.6259560183919246  0.341444895132028  0.8830683667376533  1.0000
  C   C36       1.0  0.12595642660370027  0.15855441851591218  0.1169324585142775  1.0000
  C   C37       1.0  0.8740404950304421  0.8414464533732086  0.6169338686580375  1.0000
  C   C38       1.0  0.6259552613172231  0.34144692400916904  0.616933862192397  1.0000
  C   C39       1.0  0.3740461378279036  0.6585554274073215  0.1169310053144486  1.0000
  C   C40       1.0  0.8740427446101574  0.8414459040196647  0.883067400093026  1.0000
  N   N1        1.0  0.9131405861488701  0.44083326559204733  0.2499997350869521  1.0000
  N   N2        1.0  0.5868616785606733  0.9408327833127925  0.2499999112682616  1.0000
  N   N3        1.0  0.41313600014818513  0.059167539215344796  0.7500009204481015  1.0000
  N   N4        1.0  0.08686007756725897  0.559164097911264  0.7500001235223124  1.0000
  N   N5        1.0  0.09648342033997889  0.21751306006857618  0.3210380607630441  1.0000
  N   N6        1.0  0.403523987786542  0.7175170291836109  0.3210370766960651  1.0000
  N   N7        1.0  0.5964747908182417  0.2824836897490997  0.8210390738264621  1.0000
  N   N8        1.0  0.09647635043891259  0.21751710222346077  0.1789612822921001  1.0000
  N   N9        1.0  0.9035217208817129  0.7824828239149608  0.6789622844004128  1.0000
  N   N10       1.0  0.5964736909263522  0.28248329335565353  0.6789622953573655  1.0000
  N   N11       1.0  0.4035243803942521  0.7175151532666245  0.1789612713363482  1.0000
  N   N12       1.0  0.9035228207749454  0.7824832203121159  0.8210385763152032  1.0000
