data_image0
_chemical_formula_structural       Zn2H24C36N4O10
_chemical_formula_sum              "Zn2 H24 C36 N4 O10"
_cell_length_a       8.530070120342327
_cell_length_b       10.043745734532129
_cell_length_c       10.678999327984455
_cell_angle_alpha    84.58781198826769
_cell_angle_beta     66.73284344825055
_cell_angle_gamma    68.62907430224398

_space_group_name_H-M_alt    "P 1"
_space_group_IT_number       1

loop_
  _space_group_symop_operation_xyz
  'x, y, z'

loop_
  _atom_site_type_symbol
  _atom_site_label
  _atom_site_symmetry_multiplicity
  _atom_site_fract_x
  _atom_site_fract_y
  _atom_site_fract_z
  _atom_site_occupancy
  Zn  Zn1       1.0  0.14313135500414367  0.9892305281927919  0.7925713608504382  1.0000
  Zn  Zn2       1.0  0.8568658345136199  0.010769405347709  0.20742879878274323  1.0000
  H   H1        1.0  0.2876221318113109  0.22874420730394726  0.6237066712615018  1.0000
  H   H2        1.0  0.7123726355662113  0.7712610907735636  0.3762919254104419  1.0000
  H   H3        1.0  0.3557527261001708  0.30895059839909317  0.3828274678244342  1.0000
  H   H4        1.0  0.6442433245849981  0.6910547030655891  0.6171697936770074  1.0000
  H   H5        1.0  0.31119541332042633  0.17667922879782338  0.21895934501156944  1.0000
  H   H6        1.0  0.6887977615350988  0.823323920605155  0.7810417960778084  1.0000
  H   H7        1.0  0.22563254727611345  0.9620295779904992  0.2940155156542091  1.0000
  H   H8        1.0  0.7743662216706396  0.037972494438044194  0.705983977331698  1.0000
  H   H9        1.0  0.2256339049406506  0.7599682065527561  0.34914562392870613  1.0000
  H   H10       1.0  0.774375729881207  0.24002955685303817  0.6508536598673517  1.0000
  H   H11       1.0  0.17614496868431928  0.5388748193987709  0.4435498648593922  1.0000
  H   H12       1.0  0.823866739159676  0.4611240168382126  0.5564477504425157  1.0000
  H   H13       1.0  0.12949099234361217  0.4931997473746535  0.6927892849017853  1.0000
  H   H14       1.0  0.8705138577410235  0.5068001771293568  0.3072084970188628  1.0000
  H   H15       1.0  0.13011359095750655  0.6809926904520935  0.8318345375036743  1.0000
  H   H16       1.0  0.8698821374203047  0.31901045593871663  0.16816581101485892  1.0000
  H   H17       1.0  0.44821001683416023  0.6062759923129802  0.8663652586468019  1.0000
  H   H18       1.0  0.5517915096531921  0.3937228804389363  0.13363083251309862  1.0000
  H   H19       1.0  0.9034297593682579  0.3828862962716926  0.8222775249823473  1.0000
  H   H20       1.0  0.09657064855074546  0.6171093470690748  0.17772292540335854  1.0000
  H   H21       1.0  0.924371157494903  0.5408307895690498  0.949000059180463  1.0000
  H   H22       1.0  0.07562717085545502  0.4591637760472764  0.05100299858446529  1.0000
  H   H23       1.0  0.4466347089066005  0.9187255373544756  0.11797559951845214  1.0000
  H   H24       1.0  0.5533660016802529  0.0812722463804079  0.8820245805054014  1.0000
  C   C1        1.0  0.2819886080053492  0.17048759987427084  0.5454892965525104  1.0000
  C   C2        1.0  0.7180104767022539  0.8295166227348929  0.4545080483013778  1.0000
  C   C3        1.0  0.315065459433896  0.2160908221827782  0.4131803919990063  1.0000
  C   C4        1.0  0.6849318549194123  0.7839144679893125  0.5868183509871729  1.0000
  C   C5        1.0  0.29255304338716565  0.14149440285059714  0.321731133252058  1.0000
  C   C6        1.0  0.7074409277293585  0.858509820889651  0.6782687356285989  1.0000
  C   C7        1.0  0.24723456044287662  0.0201911772643868  0.3631140953383537  1.0000
  C   C8        1.0  0.752761957649433  0.9798130385704341  0.636885919856539  1.0000
  C   C9        1.0  0.22880185827118257  0.9752873277372414  0.49429906941538354  1.0000
  C   C10       1.0  0.7711964236289219  0.0247158156414002  0.5057004865323053  1.0000
  C   C11       1.0  0.1997541626276273  0.8396588699843406  0.5417175038035112  1.0000
  C   C12       1.0  0.8002449024404682  0.16034533794505984  0.4582826577056168  1.0000
  C   C13       1.0  0.20336224900332658  0.7404653107123308  0.4558694582881558  1.0000
  C   C14       1.0  0.7966408241805069  0.2595356764613541  0.5441306606498557  1.0000
  C   C15       1.0  0.1769400642084875  0.6147960090325597  0.5095771610104834  1.0000
  C   C16       1.0  0.8230668392587788  0.38520497362286926  0.4904217690712684  1.0000
  C   C17       1.0  0.15062171928158097  0.5897305323949383  0.6458939193189367  1.0000
  C   C18       1.0  0.8493826372098994  0.4102704581659112  0.3541048644485798  1.0000
  C   C19       1.0  0.15009006753096799  0.6931506790016896  0.7246942997789887  1.0000
  C   C20       1.0  0.8499079117012938  0.30685032398283596  0.27530552653055923  1.0000
  C   C21       1.0  0.2258830400812143  0.8474585360666681  0.030322146142886232  1.0000
  C   C22       1.0  0.774116215912187  0.15254246541177002  0.9696772838812395  1.0000
  C   C23       1.0  0.42468225683343525  0.7687766206426047  0.9988355665528775  1.0000
  C   C24       1.0  0.5753187760607688  0.23122331816615832  0.001161526453877508  1.0000
  C   C25       1.0  0.5181913426247035  0.6435623541917579  0.913563557767013  1.0000
  C   C26       1.0  0.4818076107008549  0.356436506892571  0.08643614261896468  1.0000
  C   C27       1.0  0.700026814531462  0.5623593870991924  0.8937823250322765  1.0000
  C   C28       1.0  0.2999739091483918  0.43763840642220225  0.10621597722141736  1.0000
  C   C29       1.0  0.7855781510265984  0.6070045895650652  0.9612754966558302  1.0000
  C   C30       1.0  0.21442048653810988  0.3929921213386294  0.03872635186216658  1.0000
  C   C31       1.0  0.6942198652846585  0.7354380556308726  0.041638744049443094  1.0000
  C   C32       1.0  0.3057802268735016  0.2645554375292747  0.9583638544682815  1.0000
  C   C33       1.0  0.5146586174439348  0.817476370554367  0.05861387510672965  1.0000
  C   C34       1.0  0.4853398357419677  0.18252355169354936  0.9413877660111896  1.0000
  C   C35       1.0  0.7855713995219843  0.7821763931044998  0.11515397600012284  1.0000
  C   C36       1.0  0.2144264417817254  0.21781924346192472  0.8848491447265873  1.0000
  N   N1        1.0  0.2393618352734279  0.05316806778230191  0.5851482430025714  1.0000
  N   N2        1.0  0.7606372363411675  0.9468361450403577  0.4148509796214769  1.0000
  N   N3        1.0  0.1736415494538406  0.8148195732726791  0.673751772005815  1.0000
  N   N4        1.0  0.8263554491386171  0.1851835667187913  0.3262491191123759  1.0000
  O   O1        1.0  0.1617954490523772  0.8428692420459427  0.9427563263062241  1.0000
  O   O2        1.0  0.8382014377975436  0.157128551100449  0.05724410368882371  1.0000
  O   O3        1.0  0.12891426498643438  0.9119407146856348  0.14925447838290753  1.0000
  O   O4        1.0  0.8710862743146205  0.0880602901799747  0.8507436164707088  1.0000
  O   O5        1.0  0.7874683293207667  0.4410419738585105  0.8100824049493625  1.0000
  O   O6        1.0  0.21253447392773228  0.5589568973873187  0.1899132899251086  1.0000
  O   O7        1.0  0.907215068940317  0.6868534155389624  0.14651152559940084  1.0000
  O   O8        1.0  0.09278648435778787  0.3131368647708825  0.8534908840329719  1.0000
  O   O9        1.0  0.7264612955093028  0.91717660470006  0.14487656429853502  1.0000
  O   O10       1.0  0.273536407865862  0.0828136654482776  0.8551298508453513  1.0000
