data_image0
_chemical_formula_structural       Cu4H32C24N4O16
_chemical_formula_sum              "Cu4 H32 C24 N4 O16"
_cell_length_a       8.134090864609147
_cell_length_b       9.245624984656267
_cell_length_c       10.874949206149019
_cell_angle_alpha    93.08049793221885
_cell_angle_beta     98.26608756782574
_cell_angle_gamma    102.39011665208908

_space_group_name_H-M_alt    "P 1"
_space_group_IT_number       1

loop_
  _space_group_symop_operation_xyz
  'x, y, z'

loop_
  _atom_site_type_symbol
  _atom_site_label
  _atom_site_symmetry_multiplicity
  _atom_site_fract_x
  _atom_site_fract_y
  _atom_site_fract_z
  _atom_site_occupancy
  Cu  Cu1       1.0  0.4272030419970179  0.8745855375167296  0.534103395627973  1.0000
  Cu  Cu2       1.0  0.5727922257116235  0.12542495295786443  0.46589147319384944  1.0000
  Cu  Cu3       1.0  0.0445524745265331  0.4926128973642961  0.8909865472286781  1.0000
  Cu  Cu4       1.0  0.9554845650018463  0.5073871886321938  0.10897086882153666  1.0000
  H   H1        1.0  0.2422511395361227  0.7302966051862044  0.7445087095845153  1.0000
  H   H2        1.0  0.7577473495604252  0.26973066610235463  0.25550190819011215  1.0000
  H   H3        1.0  0.3229490603539986  0.5538179286102649  0.40516404937845607  1.0000
  H   H4        1.0  0.6770009142432655  0.4461949553667354  0.5948344661536282  1.0000
  H   H5        1.0  0.026365530412064696  0.2828423806487663  0.6437181902444421  1.0000
  H   H6        1.0  0.9736394937332519  0.7171761315002741  0.35631481438610274  1.0000
  H   H7        1.0  0.15637088358951698  0.3016613544280347  0.44440231508833955  1.0000
  H   H8        1.0  0.8436047134992323  0.6983493654462051  0.5556162573438782  1.0000
  H   H9        1.0  0.9859624857144096  0.9429717497107999  0.24868924202151985  1.0000
  H   H10       1.0  0.014026790281697296  0.0570109664560547  0.7513066021239467  1.0000
  H   H11       1.0  0.05608045407396389  0.1414706597774611  0.2576728424056611  1.0000
  H   H12       1.0  0.943894388793339  0.8585187332247984  0.7423171752197958  1.0000
  H   H13       1.0  0.9509263438269285  0.052956024600412405  0.37687385730544765  1.0000
  H   H14       1.0  0.04905575949495499  0.9470278084471317  0.623119445342212  1.0000
  H   H15       1.0  0.31851557580885265  0.2785166876337897  0.7882064518835107  1.0000
  H   H16       1.0  0.6814740484466171  0.7214573039264139  0.21181389328260275  1.0000
  H   H17       1.0  0.5280767395209266  0.2856921159782857  0.8609920894917592  1.0000
  H   H18       1.0  0.4719258979617607  0.7142939758505662  0.1390154057277542  1.0000
  H   H19       1.0  0.3586770439803502  0.1323935423863531  0.8794499150096938  1.0000
  H   H20       1.0  0.641338817645277  0.8675813808694033  0.12055665628086132  1.0000
  H   H21       1.0  0.5869111970415304  0.7497708601043058  0.8884600756686183  1.0000
  H   H22       1.0  0.4131505331256021  0.2502084135159919  0.11155330536219309  1.0000
  H   H23       1.0  0.5646904119846639  0.6338468513164132  0.7487463792741592  1.0000
  H   H24       1.0  0.4352475974655264  0.36615374843599113  0.25123934005842585  1.0000
  H   H25       1.0  0.4623827677909844  0.5664109487988116  0.8786137881359011  1.0000
  H   H26       1.0  0.5376757332412082  0.43356511231088035  0.12141567404723468  1.0000
  H   H27       1.0  0.29826452099659645  0.9757390634347015  0.15700962419866465  1.0000
  H   H28       1.0  0.7017163298211598  0.0242340315557144  0.8430373545827903  1.0000
  H   H29       1.0  0.3378734763810414  0.961645070438678  0.9989732214988648  1.0000
  H   H30       1.0  0.6621255596747561  0.03840249363519631  0.0010769211547981168  1.0000
  H   H31       1.0  0.1457819709317647  0.0054454632100089  0.0327124598714619  1.0000
  H   H32       1.0  0.8542075846128155  0.9945609805761676  0.9673368179364131  1.0000
  C   C1        1.0  0.7315414141798371  0.5823389148961554  0.9038897297179814  1.0000
  C   C2        1.0  0.268506624966058  0.417642040215192  0.0960404503153143  1.0000
  C   C3        1.0  0.15335115138753955  0.7765585265777871  0.04307209206202598  1.0000
  C   C4        1.0  0.8466601136269034  0.22344190089108196  0.9569221884698038  1.0000
  C   C5        1.0  0.22242869504427887  0.6339746307669216  0.67717781580928  1.0000
  C   C6        1.0  0.7775645634929517  0.3660470397844975  0.3228246658161567  1.0000
  C   C7        1.0  0.26775417503094445  0.535030748483365  0.4901994994727516  1.0000
  C   C8        1.0  0.7322106443574868  0.464986574520985  0.5098044293578496  1.0000
  C   C9        1.0  0.1058800705530345  0.3863217428471374  0.6219826582835353  1.0000
  C   C10       1.0  0.8941100328137068  0.613692259196334  0.378034806900871  1.0000
  C   C11       1.0  0.17438806285444738  0.39674133578127885  0.5118837603219716  1.0000
  C   C12       1.0  0.825582789301805  0.6032704432212483  0.4881251651462079  1.0000
  C   C13       1.0  0.20946165680743428  0.0294408338832639  0.38278222045145327  1.0000
  C   C14       1.0  0.7905175392385645  0.9705508185149014  0.61721478286168  1.0000
  C   C15       1.0  0.44252596170009173  0.12849725073039053  0.6998647053491139  1.0000
  C   C16       1.0  0.5574658594728276  0.871485517532207  0.30013968283097364  1.0000
  C   C17       1.0  0.040455961905451  0.044118306669794514  0.3116605408945645  1.0000
  C   C18       1.0  0.9595247914095921  0.9558699530963892  0.6883291270496982  1.0000
  C   C19       1.0  0.4100045182074865  0.20981688118816072  0.8147717820194984  1.0000
  C   C20       1.0  0.5899969655529131  0.7901647705962489  0.1852363272220288  1.0000
  C   C21       1.0  0.5758067259667641  0.6352112860840293  0.8500681391059571  1.0000
  C   C22       1.0  0.4242163311037004  0.3647679069885257  0.14991637226150797  1.0000
  C   C23       1.0  0.24099160994899907  0.9398729116594214  0.05990604833245069  1.0000
  C   C24       1.0  0.7590025247373687  0.06013231791872189  0.9401307830264897  1.0000
  N   N1        1.0  0.1314890012865746  0.5049608037035326  0.7056861741749428  1.0000
  N   N2        1.0  0.8685191503974468  0.49506535110682404  0.2943281646611311  1.0000
  N   N3        1.0  0.29120551141813417  0.6539959028140886  0.5729694671857288  1.0000
  N   N4        1.0  0.7087666553899509  0.3460258321634909  0.42703265401700446  1.0000
  O   O1        1.0  0.752953022223629  0.5696263697446258  0.021159314398282423  1.0000
  O   O2        1.0  0.2471124434767589  0.4303644761106185  0.9787620626650053  1.0000
  O   O3        1.0  0.0789647542087337  0.722408349231266  0.13113554547065576  1.0000
  O   O4        1.0  0.9210633667912447  0.2775898642636889  0.8688677592970463  1.0000
  O   O5        1.0  0.8298230721994173  0.554761039177109  0.8286628820628009  1.0000
  O   O6        1.0  0.170220855569724  0.4452187229332623  0.17125394500490637  1.0000
  O   O7        1.0  0.1598245808090013  0.7070287998440038  0.9400549821334677  1.0000
  O   O8        1.0  0.8401757475985362  0.29297724189990504  0.059942068781140265  1.0000
  O   O9        1.0  0.3398972406423155  0.13275518047021964  0.37778133028686506  1.0000
  O   O10       1.0  0.660103616047394  0.8672765019865736  0.6222251207326295  1.0000
  O   O11       1.0  0.5171600551504909  0.2088383115875274  0.6237201283127972  1.0000
  O   O12       1.0  0.4828515345612416  0.7911632598161447  0.37627883164761766  1.0000
  O   O13       1.0  0.20853426490085517  0.9143631967544579  0.4424806804175815  1.0000
  O   O14       1.0  0.7914651487480883  0.0856493592663625  0.5574935573256994  1.0000
  O   O15       1.0  0.3927054900069252  0.987015440444296  0.6872221017964932  1.0000
  O   O16       1.0  0.6072789682998945  0.0129917329257054  0.31277058054477885  1.0000
