data_image0
_chemical_formula_structural       Cu2H8C16O8
_chemical_formula_sum              "Cu2 H8 C16 O8"
_cell_length_a       5.2922565864355615
_cell_length_b       9.74430915038021
_cell_length_c       10.883966155603677
_cell_angle_alpha    91.32961903732931
_cell_angle_beta     89.09881896925944
_cell_angle_gamma    91.84599323250181

_space_group_name_H-M_alt    "P 1"
_space_group_IT_number       1

loop_
  _space_group_symop_operation_xyz
  'x, y, z'

loop_
  _atom_site_type_symbol
  _atom_site_label
  _atom_site_symmetry_multiplicity
  _atom_site_fract_x
  _atom_site_fract_y
  _atom_site_fract_z
  _atom_site_occupancy
  Cu  Cu1       1.0  0.7039663307480026  0.43736560832746824  0.4950201929671749  1.0000
  Cu  Cu2       1.0  0.2960275124437999  0.5626337369234805  0.5049807138432668  1.0000
  H   H1        1.0  0.8425772622266267  0.19031644218309654  0.6342581629285176  1.0000
  H   H2        1.0  0.15743172003220712  0.8096818081346697  0.3657399837215322  1.0000
  H   H3        1.0  0.37239051670932355  0.0417185223817853  0.36188719295478217  1.0000
  H   H4        1.0  0.6276145087762899  0.9582766486776677  0.6381099929451111  1.0000
  H   H5        1.0  0.16473887181205532  0.6156536120828164  0.887276971137929  1.0000
  H   H6        1.0  0.8352533244686811  0.38434881061599674  0.11272305458323469  1.0000
  H   H7        1.0  0.8355867502191997  0.37831564180407906  0.8822749564554612  1.0000
  H   H8        1.0  0.16440723320111772  0.6216857574217302  0.11772597649082425  1.0000
  C   C1        1.0  0.9103689029867754  0.1067460537703155  0.575739049737926  1.0000
  C   C2        1.0  0.08962263661155842  0.8932481792275552  0.42426362855898236  1.0000
  C   C3        1.0  0.11829768582116879  0.12963334745972332  0.49670897734887365  1.0000
  C   C4        1.0  0.8817206915919088  0.8703617521395518  0.5032845411655058  1.0000
  C   C5        1.0  0.2502589934823476  0.266884892648008  0.49389851875244506  1.0000
  C   C6        1.0  0.7497440852497662  0.7331113455486219  0.5061023551208946  1.0000
  C   C7        1.0  0.20840398901108872  0.0225531704059918  0.42156478995403274  1.0000
  C   C8        1.0  0.7916033206825901  0.9774492105455722  0.5784352457938055  1.0000
  C   C9        1.0  0.3106971470859818  0.5656826799033823  0.9377270221579647  1.0000
  C   C10       1.0  0.689298769971117  0.4343207942773832  0.06227669529664579  1.0000
  C   C11       1.0  0.4994705410960379  0.49650843862354327  0.8715627350435393  1.0000
  C   C12       1.0  0.500536558254872  0.5034908613657264  0.12843726150052245  1.0000
  C   C13       1.0  0.4976338256909401  0.4945164568811792  0.7342586594886027  1.0000
  C   C14       1.0  0.5023622891715505  0.5054880093556805  0.26574139487507853  1.0000
  C   C15       1.0  0.6889361419591111  0.4308522585057517  0.9344900231305214  1.0000
  C   C16       1.0  0.3110544011418811  0.5691521971878191  0.06550727035401138  1.0000
  O   O1        1.0  0.49015302436320235  0.26718935665073934  0.4856100656403512  1.0000
  O   O2        1.0  0.5098485351489899  0.7328099240624156  0.5143862509848559  1.0000
  O   O3        1.0  0.11769907512898929  0.3749160701956953  0.5005255610634335  1.0000
  O   O4        1.0  0.882305663051568  0.6250791794592702  0.49947989619388256  1.0000
  O   O5        1.0  0.6800839243794387  0.4366600692923371  0.6772262879613533  1.0000
  O   O6        1.0  0.3199003007779808  0.563337256808616  0.3227755054862768  1.0000
  O   O7        1.0  0.31258238853320824  0.5519310257383339  0.6843709805454593  1.0000
  O   O8        1.0  0.6874198145446755  0.4480795867678893  0.3156291559857677  1.0000
