data_image0
_chemical_formula_structural       Zn4P4H48C20N4O20
_chemical_formula_sum              "Zn4 P4 H48 C20 N4 O20"
_cell_length_a       9.247244706029457
_cell_length_b       10.382907325062368
_cell_length_c       10.896512801703464
_cell_angle_alpha    119.07371547729888
_cell_angle_beta     90.00019096825875
_cell_angle_gamma    89.99971991649069

_space_group_name_H-M_alt    "P 1"
_space_group_IT_number       1

loop_
  _space_group_symop_operation_xyz
  'x, y, z'

loop_
  _atom_site_type_symbol
  _atom_site_label
  _atom_site_symmetry_multiplicity
  _atom_site_fract_x
  _atom_site_fract_y
  _atom_site_fract_z
  _atom_site_occupancy
  Zn  Zn1       1.0  0.40740332103201377  0.7725185596523119  0.4176165075492337  1.0000
  Zn  Zn2       1.0  0.9074057722719999  0.72747975458185  0.08237876808169631  1.0000
  Zn  Zn3       1.0  0.5925943430068513  0.22748679879483555  0.5823796763497742  1.0000
  Zn  Zn4       1.0  0.09259621740787338  0.27251899174561334  0.9176226135932952  1.0000
  P   P1        1.0  0.14865385441012788  0.5893433810226867  0.18516034066443166  1.0000
  P   P2        1.0  0.6486702850288281  0.9106669554123383  0.31484803235782277  1.0000
  P   P3        1.0  0.8513481352643169  0.41065536539079517  0.8148382878759935  1.0000
  P   P4        1.0  0.3513306232346451  0.0893350969585356  0.6851512092854863  1.0000
  H   H1        1.0  0.0486178411189186  0.5348889201620748  0.24755831975469536  1.0000
  H   H2        1.0  0.5486315670060193  0.9651240077263237  0.25245647772809593  1.0000
  H   H3        1.0  0.9513863113715073  0.46510652026324095  0.7524406133949101  1.0000
  H   H4        1.0  0.4513693412599834  0.03487363682839369  0.7475379696940367  1.0000
  H   H5        1.0  0.5075878342178511  0.5293593673157772  0.669937199046686  1.0000
  H   H6        1.0  0.007595856605156801  0.9706390074018502  0.8300649808232524  1.0000
  H   H7        1.0  0.4924033414155672  0.47063937926201044  0.33005684093059545  1.0000
  H   H8        1.0  0.9924115400921634  0.02936194278021279  0.16994017453237126  1.0000
  H   H9        1.0  0.5682888488362962  0.7140378566964286  0.7673659595136545  1.0000
  H   H10       1.0  0.0682974906181499  0.7859635888843  0.7326323070078689  1.0000
  H   H11       1.0  0.43170124537908794  0.28596309400657555  0.23262359473726246  1.0000
  H   H12       1.0  0.9317099060739195  0.2140362594368951  0.26736866723001645  1.0000
  H   H13       1.0  0.43147612822340875  0.8917234003661677  0.9735068411514908  1.0000
  H   H14       1.0  0.9314757626529513  0.6082777397783018  0.526491389515762  1.0000
  H   H15       1.0  0.5685258614418132  0.1082764481375449  0.026488626814504826  1.0000
  H   H16       1.0  0.06852298281533818  0.39172210853098466  0.4735105024292211  1.0000
  H   H17       1.0  0.2706859870814  0.8300672355878903  0.022845100475770232  1.0000
  H   H18       1.0  0.7706903075214057  0.6699448321691861  0.4771561585354507  1.0000
  H   H19       1.0  0.7293138397671226  0.16994032669146006  0.9771557748137385  1.0000
  H   H20       1.0  0.2293106007431618  0.33006162796049665  0.5228497127520841  1.0000
  H   H21       1.0  0.27003335300386055  0.8495559728439303  0.86884817367627  1.0000
  H   H22       1.0  0.7700320895361867  0.6504446909938223  0.631148463829341  1.0000
  H   H23       1.0  0.7299675552578007  0.1504460795556142  0.13115015025552176  1.0000
  H   H24       1.0  0.22996773733512302  0.3495562592602468  0.3688548560993682  1.0000
  H   H25       1.0  0.5220206895116419  0.5178721835186761  0.8814617453693361  1.0000
  H   H26       1.0  0.022025652670109298  0.9821305430894611  0.618545243486999  1.0000
  H   H27       1.0  0.4779780559456127  0.4821287669095182  0.11853606828969278  1.0000
  H   H28       1.0  0.97797633701483  0.017870407045734296  0.38146174728890275  1.0000
  H   H29       1.0  0.4249335316281986  0.6486071138088858  0.03549119373749222  1.0000
  H   H30       1.0  0.9249389789863539  0.851393336206442  0.4645124620662459  1.0000
  H   H31       1.0  0.57506737663347  0.35139493859065857  0.9645071301942993  1.0000
  H   H32       1.0  0.07506301069479089  0.14860871593296562  0.5354941212697926  1.0000
  H   H33       1.0  0.5788437690496693  0.7055637632444912  0.9712690708597267  1.0000
  H   H34       1.0  0.07884831664708261  0.7944354372029422  0.5287373630307359  1.0000
  H   H35       1.0  0.42115389500276007  0.29443608526759846  0.02872639710405881  1.0000
  H   H36       1.0  0.92115367303424  0.20556551298959388  0.4712677923221238  1.0000
  H   H37       1.0  0.1901722010350184  0.5826676845033987  0.7415674710394176  1.0000
  H   H38       1.0  0.6901743147514096  0.917329982743368  0.7584321425016899  1.0000
  H   H39       1.0  0.8098243816310315  0.4173288579121247  0.25843197237797716  1.0000
  H   H40       1.0  0.30982659352327596  0.08266986556173352  0.2415697494443948  1.0000
  H   H41       1.0  0.20480932953658737  0.5769906221557761  0.9042888659098199  1.0000
  H   H42       1.0  0.70481401503622  0.9230058864159432  0.5957093346252125  1.0000
  H   H43       1.0  0.7951883345324758  0.42300702220452985  0.09571200549130054  1.0000
  H   H44       1.0  0.2951901374558403  0.07699065592757388  0.4042919442190965  1.0000
  H   H45       1.0  0.3040659787395441  0.44766648195140113  0.7547884979513244  1.0000
  H   H46       1.0  0.8040656981366752  0.0523340810900237  0.7452147204029631  1.0000
  H   H47       1.0  0.6959349295333367  0.5523333663823705  0.24521247628324275  1.0000
  H   H48       1.0  0.1959341287384362  0.9476657671598331  0.25478900696561624  1.0000
  C   C1        1.0  0.39472452348489634  0.6791548121788366  0.6211677870702987  1.0000
  C   C2        1.0  0.8947406130792003  0.8208387563562453  0.8788323403710125  1.0000
  C   C3        1.0  0.6052525939163472  0.3208417303890981  0.37882798549105  1.0000
  C   C4        1.0  0.10527219063464337  0.1791588879747223  0.12116853103785274  1.0000
  C   C5        1.0  0.47186023264393373  0.6446954175593118  0.7260702637823402  1.0000
  C   C6        1.0  0.9718703143518964  0.8553033619128029  0.7739334116460485  1.0000
  C   C7        1.0  0.5281298615861089  0.35530443096744335  0.27392520417756583  1.0000
  C   C8        1.0  0.028137082347406295  0.1446964862937108  0.22607123343792082  1.0000
  C   C9        1.0  0.33572988726997  0.8210199033900166  0.9353169638789967  1.0000
  C   C10       1.0  0.835730369473609  0.6789816077404183  0.5646830042502489  1.0000
  C   C11       1.0  0.6642688581874694  0.17897994509130646  0.06467942179686051  1.0000
  C   C12       1.0  0.1642705388007215  0.3210204444584263  0.43532174366219334  1.0000
  C   C13       1.0  0.48532632663427216  0.6319220584634591  0.9424954968898833  1.0000
  C   C14       1.0  0.9853300785926036  0.8680788727582393  0.5575101305677563  1.0000
  C   C15       1.0  0.5146713374197843  0.3680788919668315  0.05750231676859845  1.0000
  C   C16       1.0  0.014672992493551402  0.13192317935039446  0.4424973704803465  1.0000
  C   C17       1.0  0.2605219993183141  0.5600889364782161  0.8091731959245367  1.0000
  C   C18       1.0  0.7605215609696003  0.9399139680249742  0.6908290409509876  1.0000
  C   C19       1.0  0.7394745833457461  0.4399087079128562  0.19082675776451202  1.0000
  C   C20       1.0  0.23947718449471714  0.06008808423540298  0.30917387153729703  1.0000
  N   N1        1.0  0.38607271049120584  0.6646542325455725  0.851764041223767  1.0000
  N   N2        1.0  0.8860791608492135  0.8353492873450675  0.6482397520939859  1.0000
  N   N3        1.0  0.6139217093510895  0.33534892181341286  0.14823571068787803  1.0000
  N   N4        1.0  0.1139239102371192  0.16465166281670207  0.35176632097094557  1.0000
  O   O1        1.0  0.28705407345224637  0.6247319601786784  0.2719395226884559  1.0000
  O   O2        1.0  0.7870584588243971  0.8752668199245122  0.2280721486171162  1.0000
  O   O3        1.0  0.7129489976273858  0.37526568425716517  0.7280585955808692  1.0000
  O   O4        1.0  0.21294136804130656  0.1247352323624469  0.7719298461602053  1.0000
  O   O5        1.0  0.08010334107598992  0.7267176352038757  0.18954901006483746  1.0000
  O   O6        1.0  0.5801086054618877  0.7732984764972598  0.3104710212886418  1.0000
  O   O7        1.0  0.9198964858012816  0.2732800091235673  0.8104527790489089  1.0000
  O   O8        1.0  0.4198901399988059  0.2267035758204656  0.689530055776608  1.0000
  O   O9        1.0  0.17501201407390707  0.4657861490481847  0.03420232055538714  1.0000
  O   O10       1.0  0.6750321668906308  0.034228524486230996  0.46580640714784505  1.0000
  O   O11       1.0  0.8249910570037429  0.5342125973631936  0.965796307985592  1.0000
  O   O12       1.0  0.32496441575444374  0.96577462992591  0.5341915093418593  1.0000
  O   O13       1.0  0.48674740686831797  0.6953134551297636  0.5403770087902162  1.0000
  O   O14       1.0  0.9867682283821749  0.8046984905078884  0.9596272988660035  1.0000
  O   O15       1.0  0.5132372803146339  0.304699617228664  0.45962091158068585  1.0000
  O   O16       1.0  0.013245656730532601  0.19530356166581697  0.040377449053075117  1.0000
  O   O17       1.0  0.26056128476972157  0.6866994933107691  0.6151673124926946  1.0000
  O   O18       1.0  0.7605709506410107  0.8132758614600063  0.8848276739059744  1.0000
  O   O19       1.0  0.7394320537172732  0.3132761116904276  0.3848187649155364  1.0000
  O   O20       1.0  0.2394386088820468  0.1867173748030453  0.11517666268374435  1.0000
