data_image0
_chemical_formula_structural       Ca2H24C8O20
_chemical_formula_sum              "Ca2 H24 C8 O20"
_cell_length_a       6.16258415939045
_cell_length_b       8.249023541932452
_cell_length_c       10.256037966598482
_cell_angle_alpha    95.40416649369321
_cell_angle_beta     105.57569925070736
_cell_angle_gamma    107.76813015887166

_space_group_name_H-M_alt    "P 1"
_space_group_IT_number       1

loop_
  _space_group_symop_operation_xyz
  'x, y, z'

loop_
  _atom_site_type_symbol
  _atom_site_label
  _atom_site_symmetry_multiplicity
  _atom_site_fract_x
  _atom_site_fract_y
  _atom_site_fract_z
  _atom_site_occupancy
  Ca  Ca1       1.0  0.34631246756573125  0.6979330085650873  0.2757246132298619  1.0000
  Ca  Ca2       1.0  0.6536877308093096  0.3020670537217214  0.7242741515645434  1.0000
  H   H1        1.0  0.5230751935669673  0.25368163818505  0.29215162996191407  1.0000
  H   H2        1.0  0.47692730063799604  0.7463197389776963  0.7078495526723572  1.0000
  H   H3        1.0  0.7612696412913494  0.2573092311220933  0.12596773384440502  1.0000
  H   H4        1.0  0.23872656771108317  0.7426895415857331  0.874033214475901  1.0000
  H   H5        1.0  0.6861114400336987  0.512447321100552  0.43208114296562167  1.0000
  H   H6        1.0  0.31388936830168745  0.48755404443294736  0.5679187893470186  1.0000
  H   H7        1.0  0.8283971101399957  0.5237631066383129  0.06744672966826931  1.0000
  H   H8        1.0  0.17160308823504516  0.47623695564848834  0.932552035126136  1.0000
  H   H9        1.0  0.7444294903119867  0.7796919036477732  0.5363458140645392  1.0000
  H   H10       1.0  0.25556901835692253  0.2203081654728862  0.46365462625193743  1.0000
  H   H11       1.0  0.68637893483384  0.9466572439017468  0.5489587056365153  1.0000
  H   H12       1.0  0.31361957383506933  0.053342825218919594  0.45104173467995423  1.0000
  H   H13       1.0  0.7765884229549159  0.0069155538185299015  0.2704309165385085  1.0000
  H   H14       1.0  0.2234100857139935  0.9930845153021366  0.7295695237779611  1.0000
  H   H15       1.0  0.7072830299124533  0.8586707108980531  0.13598683423672497  1.0000
  H   H16       1.0  0.2927154800353122  0.14132935206824723  0.8640126307985129  1.0000
  H   H17       1.0  0.023228483433882615  0.8328442667127333  0.057940321255188096  1.0000
  H   H18       1.0  0.9767717136623089  0.16715580172844108  0.9420594188204561  1.0000
  H   H19       1.0  0.2657645216582124  0.9829403987572289  0.08906488908923647  1.0000
  H   H20       1.0  0.7342356741591303  0.0170596758383041  0.9109358262676395  1.0000
  H   H21       1.0  0.9793291417541923  0.844206412829507  0.3233784096721806  1.0000
  H   H22       1.0  0.020671054063150486  0.1557936617660332  0.6766223056846883  1.0000
  H   H23       1.0  0.10685016290900497  0.8109105730896004  0.4683296147471268  1.0000
  H   H24       1.0  0.8931483470387604  0.18908948987669305  0.531669850288111  1.0000
  C   C1        1.0  0.3781189403080418  0.3451769056558832  0.1116686531074507  1.0000
  C   C2        1.0  0.6218818680273442  0.6548244598776162  0.8883312792051897  1.0000
  C   C3        1.0  0.5777464160454074  0.36753214699947273  0.24441174430708662  1.0000
  C   C4        1.0  0.42225546819921783  0.6324679269165756  0.7555882708089499  1.0000
  C   C5        1.0  0.809265806817052  0.3711907578308241  0.20769280713687266  1.0000
  C   C6        1.0  0.19073438772143445  0.6288093229190821  0.792308883501228  1.0000
  C   C7        1.0  0.9855260641437411  0.35259579694045573  0.3364578291230417  1.0000
  C   C8        1.0  0.014475821379725914  0.6474042708212265  0.6635412107117631  1.0000
  O   O1        1.0  0.31479582678409906  0.47500083548112565  0.08816414780363149  1.0000
  O   O2        1.0  0.6852026857213644  0.524999215176443  0.9118333666691427  1.0000
  O   O3        1.0  0.2880793941739769  0.1965647384418361  0.031806027015861105  1.0000
  O   O4        1.0  0.7119224900706413  0.8034353354742122  0.9681939881001754  1.0000
  O   O5        1.0  0.6164774055410122  0.521954689154427  0.3341680431274839  1.0000
  O   O6        1.0  0.3835217143670917  0.47804667705856463  0.6658325894259889  1.0000
  O   O7        1.0  0.9151910819428438  0.5269117129796257  0.16662535171645493  1.0000
  O   O8        1.0  0.08480681676572026  0.4730870528943427  0.8333739210817798  1.0000
  O   O9        1.0  0.9311749857312179  0.20633792175451046  0.37461418381666783  1.0000
  O   O10       1.0  0.06882628983191096  0.7936608427604738  0.6253836884999018  1.0000
  O   O11       1.0  0.17215490467348354  0.48137627513455783  0.4004714298973937  1.0000
  O   O12       1.0  0.8278463696107893  0.5186224955347926  0.5995274177004077  1.0000
  O   O13       1.0  0.6062906219061545  0.8193629148167288  0.5096274176865521  1.0000
  O   O14       1.0  0.3937095751900372  0.18063715362443836  0.490372322389085  1.0000
  O   O15       1.0  0.7125203786485342  0.8792758434843648  0.2338322966232127  1.0000
  O   O16       1.0  0.2874775187811807  0.12072292854397658  0.7661679514562536  1.0000
  O   O17       1.0  0.19864211022446182  0.8614667373184871  0.09918762551397715  1.0000
  O   O18       1.0  0.8013574756325353  0.1385320340303551  0.9008119223246566  1.0000
  O   O19       1.0  0.13867339786315108  0.8494236350325081  0.3841106330647861  1.0000
  O   O20       1.0  0.8613267992330405  0.15057643340866628  0.615889107010851  1.0000
