data_image0
_chemical_formula_structural       Al2H12C26Br2O10F2
_chemical_formula_sum              "Al2 H12 C26 Br2 O10 F2"
_cell_length_a       6.632837488638016
_cell_length_b       11.13797399393119
_cell_length_c       15.224595731879287
_cell_angle_alpha    85.51979069811773
_cell_angle_beta     79.21206515151265
_cell_angle_gamma    72.50865013843455

_space_group_name_H-M_alt    "P 1"
_space_group_IT_number       1

loop_
  _space_group_symop_operation_xyz
  'x, y, z'

loop_
  _atom_site_type_symbol
  _atom_site_label
  _atom_site_symmetry_multiplicity
  _atom_site_fract_x
  _atom_site_fract_y
  _atom_site_fract_z
  _atom_site_occupancy
  Al  Al1       1.0  0.49535023920689997  0.49525337774552713  0.5028296629635635  1.0000
  Al  Al2       1.0  0.9933336103953394  0.49907821522560153  0.5025665308948604  1.0000
  H   H1        1.0  0.29134188777447884  0.3492207587725531  0.5553862710680804  1.0000
  H   H2        1.0  0.7617771902957173  0.5582510732485204  0.3951342508944649  1.0000
  H   H3        1.0  0.8516350082182882  0.4660583298161142  0.9500424010856109  1.0000
  H   H4        1.0  0.19976613358387144  0.42846734442353795  0.053986899384995  1.0000
  H   H5        1.0  0.6038858324557667  0.589728935018698  0.23647176515147092  1.0000
  H   H6        1.0  0.6880122950663508  0.606099486288457  0.07131006684065969  1.0000
  H   H7        1.0  0.28588534020131834  0.5581589750112812  0.7617846237610735  1.0000
  H   H8        1.0  0.18045132531110405  0.5704963970788696  0.9270774047145026  1.0000
  H   H9        1.0  0.2393955348650252  0.22901783044318338  0.38318428154165224  1.0000
  H   H10       1.0  0.4848505874305357  0.7617731471890327  0.405470771204037  1.0000
  H   H11       1.0  0.757633237559844  0.8773481867492305  0.5620424607481311  1.0000
  H   H12       1.0  0.6384563421288262  0.1129160968712313  0.555761303738521  1.0000
  C   C1        1.0  0.8608300249754918  0.26836656434970513  0.49168335913013556  1.0000
  C   C2        1.0  0.6764052215601453  0.5065739367689943  0.662843410188785  1.0000
  C   C3        1.0  0.13890937667103745  0.7229751321935468  0.5046527634758675  1.0000
  C   C4        1.0  0.30902740122843414  0.49766296428679596  0.33890243243399  1.0000
  C   C5        1.0  0.6233616214201448  0.5122203780776715  0.7622246696264553  1.0000
  C   C6        1.0  0.35272728973755824  0.5043805290322538  0.2393313840792075  1.0000
  C   C7        1.0  0.7778769321334877  0.48813009621969167  0.8179162954731682  1.0000
  C   C8        1.0  0.7235885303519184  0.4912991749449773  0.9104086925760342  1.0000
  C   C9        1.0  0.24007799090645676  0.462108357354218  0.1849051517133731  1.0000
  C   C10       1.0  0.28705717790753477  0.4679547001667217  0.0922361300490309  1.0000
  C   C11       1.0  0.515696876930214  0.5554241293937706  0.19549050092410172  1.0000
  C   C12       1.0  0.5641183109149213  0.5631024461266845  0.10293047607522249  1.0000
  C   C13       1.0  0.40744510286374697  0.540507334747268  0.8042369877047406  1.0000
  C   C14       1.0  0.349590701940798  0.5453170045123273  0.8966749426084136  1.0000
  C   C15       1.0  0.507449703829849  0.5198630175108221  0.9512756493668492  1.0000
  C   C16       1.0  0.45135894559481204  0.5182714367894475  0.04971209393796273  1.0000
  C   C17       1.0  0.9394600748052397  0.12847988754015202  0.4847177299860946  1.0000
  C   C18       1.0  0.15114992195416482  0.06339798172417231  0.4411423134895785  1.0000
  C   C19       1.0  0.800626862647988  0.06133015233605478  0.5254101472964905  1.0000
  C   C20       1.0  0.2906931902170343  0.12687849277983076  0.38902035089284237  1.0000
  C   C21       1.0  0.4894548348824372  0.0613543228639983  0.3438165409201163  1.0000
  C   C22       1.0  0.07574756622071992  0.8629457767644907  0.49379520729115006  1.0000
  C   C23       1.0  0.8676146400883056  0.92932728820319  0.5294908245424637  1.0000
  C   C24       1.0  0.22111809367216748  0.9280842092952994  0.4465525512286916  1.0000
  C   C25       1.0  0.4277481266743521  0.8637128605730808  0.4003668327330275  1.0000
  C   C26       1.0  0.5585656826952174  0.9279191062635163  0.3495558782707988  1.0000
  Br  Br1       1.0  0.6638091151802142  0.15363448939887547  0.2743774458615463  1.0000
  Br  Br2       1.0  0.8279949219206842  0.8326598854695888  0.2867060541762286  1.0000
  O   O1        1.0  0.6631623520618746  0.3208512164740966  0.4881106085700538  1.0000
  O   O2        1.0  0.85571856620939  0.5198530640749865  0.6241803098573939  1.0000
  O   O3        1.0  0.9976479361815221  0.6696242602202959  0.4983989832361999  1.0000
  O   O4        1.0  0.45503170393385534  0.5098552972841545  0.37843903571473453  1.0000
  O   O5        1.0  0.32773597565472584  0.6669723090107877  0.5191074926593942  1.0000
  O   O6        1.0  0.1297951899135938  0.48313838683568366  0.3772588744678417  1.0000
  O   O7        1.0  0.994702823764392  0.32413732694528363  0.5045664812534127  1.0000
  O   O8        1.0  0.534882339073711  0.4883520335451762  0.6237339991145279  1.0000
  O   O9        1.0  0.2575540333776658  0.43793872484874186  0.538863052959698  1.0000
  O   O10       1.0  0.735496416088779  0.5499426251251192  0.4599413225503355  1.0000
  F   F1        1.0  0.9905590905804545  0.4545786813445928  0.7830034892930016  1.0000
  F   F2        1.0  0.0838426126520844  0.4083077439222578  0.22127856385007053  1.0000
