data_image0
_chemical_formula_structural       U2Ag2H26C18O20
_chemical_formula_sum              "U2 Ag2 H26 C18 O20"
_cell_length_a       5.752836649559128
_cell_length_b       8.64625387379255
_cell_length_c       13.834733649507797
_cell_angle_alpha    90.00006711852724
_cell_angle_beta     90.00021782286574
_cell_angle_gamma    95.06211677881107

_space_group_name_H-M_alt    "P 1"
_space_group_IT_number       1

loop_
  _space_group_symop_operation_xyz
  'x, y, z'

loop_
  _atom_site_type_symbol
  _atom_site_label
  _atom_site_symmetry_multiplicity
  _atom_site_fract_x
  _atom_site_fract_y
  _atom_site_fract_z
  _atom_site_occupancy
  U   U1        1.0  0.9555782153743025  0.34535265138048743  0.4902530333346746  1.0000
  U   U2        1.0  0.0444157634858655  0.6546484032444226  0.9902381795762878  1.0000
  Ag  Ag1       1.0  0.5868005001121122  0.707370665121019  0.5869519690168588  1.0000
  Ag  Ag2       1.0  0.4132013671903891  0.2926557991879478  0.08696065050722271  1.0000
  H   H1        1.0  0.2895728109175622  0.6946532319258126  0.749884419091309  1.0000
  H   H2        1.0  0.710430180005929  0.30536351364718683  0.2498949730107682  1.0000
  H   H3        1.0  0.22575864284216612  0.561508776474959  0.6716621848739166  1.0000
  H   H4        1.0  0.7742552285087925  0.43850580903681907  0.1716689478131741  1.0000
  H   H5        1.0  0.9649538164995306  0.9425021639016506  0.5977674750753295  1.0000
  H   H6        1.0  0.03505557052567101  0.05750565879037591  0.0977697026026476  1.0000
  H   H7        1.0  0.054538799293922635  0.7758849030023145  0.6175971589093052  1.0000
  H   H8        1.0  0.9454629006465112  0.22411941096615356  0.1176046782032643  1.0000
  H   H9        1.0  0.37658753418445906  0.0634294556135302  0.2902001476999558  1.0000
  H   H10       1.0  0.6234051741594514  0.9365802525893161  0.7901944572912072  1.0000
  H   H11       1.0  0.48423869849006723  0.8448991138551848  0.4558480913149339  1.0000
  H   H12       1.0  0.5157432786219542  0.15510671944799984  0.955841652203148  1.0000
  H   H13       1.0  0.21766165635559537  0.9288040764843545  0.4391121848135384  1.0000
  H   H14       1.0  0.7823212338113308  0.0711983118107042  0.9391139581896439  1.0000
  H   H15       1.0  0.1488181335942542  0.7838148041249654  0.2844713440892619  1.0000
  H   H16       1.0  0.8511670079016512  0.216170550998399  0.7844702032830072  1.0000
  H   H17       1.0  0.6025713096828157  0.6353851255339507  0.32675938624442574  1.0000
  H   H18       1.0  0.39745275969158905  0.3646243756446097  0.8267584196783346  1.0000
  H   H19       1.0  0.40834090997751105  0.5930641090766143  0.2285220644834354  1.0000
  H   H20       1.0  0.5916774825755696  0.4069224331570851  0.7285192445299772  1.0000
  H   H21       1.0  0.48199131368819803  0.8617889051341052  0.16732495081844687  1.0000
  H   H22       1.0  0.5179924706691423  0.1382037278132984  0.6673265780382494  1.0000
  H   H23       1.0  0.7904011855155132  0.04479456504137861  0.2422427439515076  1.0000
  H   H24       1.0  0.2095764665357081  0.9552048661540056  0.7422497614274236  1.0000
  H   H25       1.0  0.82530311077047  0.9105451767656022  0.3365977269378391  1.0000
  H   H26       1.0  0.17470629587150197  0.08945970487035033  0.8366074834240679  1.0000
  C   C1        1.0  0.49573351061906834  0.013480184357881304  0.3416836137882342  1.0000
  C   C2        1.0  0.5042640281214475  0.986521241699613  0.8416815317627098  1.0000
  C   C3        1.0  0.36426111248616877  0.8845578334005494  0.4002662408875821  1.0000
  C   C4        1.0  0.6357287421543492  0.1154423070424571  0.9002670439586709  1.0000
  C   C5        1.0  0.27875235084675853  0.7471418799779884  0.33598679217409  1.0000
  C   C6        1.0  0.7212463613837202  0.25284793992260296  0.8359860126454776  1.0000
  C   C7        1.0  0.47903590896515175  0.68534665100961  0.2774876663707744  1.0000
  C   C8        1.0  0.5209664024273479  0.3146526006132504  0.7774854157589459  1.0000
  C   C9        1.0  0.606955028763828  0.8175969049031125  0.21933617178646614  1.0000
  C   C10       1.0  0.3930400056549673  0.1823967148544767  0.7193412125949763  1.0000
  C   C11       1.0  0.6988014811574813  0.9514284536940995  0.2847744148618503  1.0000
  C   C12       1.0  0.30118920075373273  0.04857198245159822  0.7847786369575404  1.0000
  C   C13       1.0  0.601733163837288  0.14438004283415043  0.4034885035712747  1.0000
  C   C14       1.0  0.39827975743502725  0.8556153598887875  0.903481479520714  1.0000
  C   C15       1.0  0.1605980847187851  0.6148972646869099  0.3936989868419332  1.0000
  C   C16       1.0  0.839412382508634  0.3850923638132287  0.8936927370953782  1.0000
  C   C17       1.0  0.7936367260890691  0.7619794251287432  0.15466898821414077  1.0000
  C   C18       1.0  0.20635844681338966  0.23801552303283563  0.6546766687431359  1.0000
  O   O1        1.0  0.7645473833667893  0.45905053028074155  0.5610539157122076  1.0000
  O   O2        1.0  0.23546411419756913  0.5409480864583786  0.0610449128179837  1.0000
  O   O3        1.0  0.1444614950559497  0.23154660360479085  0.4206089070288002  1.0000
  O   O4        1.0  0.855539689781196  0.7684499586116331  0.9205944779813962  1.0000
  O   O5        1.0  0.6561772223842298  0.12430969609472704  0.4915764797374536  1.0000
  O   O6        1.0  0.3438343124587037  0.8756819987907322  0.9915703682882793  1.0000
  O   O7        1.0  0.665679806817792  0.2765588292887174  0.3640424113933634  1.0000
  O   O8        1.0  0.33432379721028127  0.723441355534348  0.8640341118863546  1.0000
  O   O9        1.0  0.9727589292845522  0.5407604147726417  0.36266050810872485  1.0000
  O   O10       1.0  0.027248839896941508  0.45923046534241513  0.8626526805208314  1.0000
  O   O11       1.0  0.2502009863733363  0.5698678621378264  0.4726034838868145  1.0000
  O   O12       1.0  0.7498144361680659  0.43012619120761303  0.972596843969022  1.0000
  O   O13       1.0  0.7748269397275821  0.6208206291446958  0.1253014126738989  1.0000
  O   O14       1.0  0.22517754686075617  0.3791766849013314  0.6253065758217461  1.0000
  O   O15       1.0  0.9639859207056887  0.8522748557040957  0.12228026268206799  1.0000
  O   O16       1.0  0.0360034953575337  0.147722520192751  0.6222936375624073  1.0000
  O   O17       1.0  0.2574256377424291  0.6755918008848383  0.6791278971506997  1.0000
  O   O18       1.0  0.7425713584888667  0.32442398750271206  0.179138831784357  1.0000
  O   O19       1.0  0.9432707588357874  0.8321006859792421  0.5785539691026144  1.0000
  O   O20       1.0  0.05673544753123142  0.16790835946954996  0.0785610737753188  1.0000
