data_image0
_chemical_formula_structural       Cd8Cu4H32C48N40Cl12
_chemical_formula_sum              "Cd8 Cu4 H32 C48 N40 Cl12"
_cell_length_a       6.620043502008481
_cell_length_b       14.957028031006157
_cell_length_c       17.95129045501575
_cell_angle_alpha    89.99997704898945
_cell_angle_beta     90.0001516417451
_cell_angle_gamma    89.9998988724123

_space_group_name_H-M_alt    "P 1"
_space_group_IT_number       1

loop_
  _space_group_symop_operation_xyz
  'x, y, z'

loop_
  _atom_site_type_symbol
  _atom_site_label
  _atom_site_symmetry_multiplicity
  _atom_site_fract_x
  _atom_site_fract_y
  _atom_site_fract_z
  _atom_site_occupancy
  Cd  Cd1       1.0  0.759816585142751  0.6167090479300587  0.2977788620690804  1.0000
  Cd  Cd2       1.0  0.24018044154578178  0.11670942339192444  0.7022214810249781  1.0000
  Cd  Cd3       1.0  0.24017773903432274  0.8832915036326343  0.7977782695058482  1.0000
  Cd  Cd4       1.0  0.759818222538847  0.3832910416939229  0.20222142605664575  1.0000
  Cd  Cd5       1.0  0.24018141955384917  0.38329112610254884  0.7022214357915079  1.0000
  Cd  Cd6       1.0  0.7598175631547759  0.8832907506404128  0.2977799309616388  1.0000
  Cd  Cd7       1.0  0.7598172445301401  0.11670867040141533  0.2022209142272119  1.0000
  Cd  Cd8       1.0  0.24017827158773034  0.6167091323396648  0.7977772006141496  1.0000
  Cu  Cu1       1.0  0.32217835972279113  0.7499997589995503  0.1988057947745362  1.0000
  Cu  Cu2       1.0  0.6778166238317737  0.25000041503516013  0.8011906036434414  1.0000
  Cu  Cu3       1.0  0.677816771827338  0.7499988335989374  0.698810135364518  1.0000
  Cu  Cu4       1.0  0.32217972232169245  0.2500000032692996  0.3011940619366556  1.0000
  H   H1        1.0  0.9183632556311635  0.6195424779885531  0.12315528201683894  1.0000
  H   H2        1.0  0.08164131254838482  0.11954222594263095  0.8768422748044034  1.0000
  H   H3        1.0  0.08164644404526199  0.8804594932736834  0.623158433571682  1.0000
  H   H4        1.0  0.9183616133694413  0.3804561508541371  0.3768434912104014  1.0000
  H   H5        1.0  0.08163474905816767  0.3804583646264705  0.8768433446545816  1.0000
  H   H6        1.0  0.9183627343966664  0.8804579480881504  0.12315579480709725  1.0000
  H   H7        1.0  0.9183560923468831  0.11954201792080002  0.3768435354799494  1.0000
  H   H8        1.0  0.08164696528178442  0.6195420174281596  0.623157363718754  1.0000
  H   H9        1.0  0.6783598654147128  0.6487201845508681  0.01693939646782641  1.0000
  H   H10       1.0  0.3216415650638993  0.1487183580043592  0.9830587075133158  1.0000
  H   H11       1.0  0.32164454788424734  0.8512851798307752  0.5169411233225107  1.0000
  H   H12       1.0  0.6783621155344121  0.3512799685847271  0.4830608113598844  1.0000
  H   H13       1.0  0.3216381392706039  0.3512826638102099  0.9830592302032533  1.0000
  H   H14       1.0  0.6783594607562833  0.8512811474454482  0.016939919159817407  1.0000
  H   H15       1.0  0.6783579885025545  0.14871900569178823  0.4830608457286731  1.0000
  H   H16       1.0  0.32164042085446437  0.648720205446118  0.5169394865029348  1.0000
  H   H17       1.0  0.8115886612809078  0.6512939677886964  0.8868429396205788  1.0000
  H   H18       1.0  0.18841426947469833  0.151293993476699  0.11315516348754784  1.0000
  H   H19       1.0  0.1884138485294358  0.8487092159987527  0.38684511842340913  1.0000
  H   H20       1.0  0.811594335741063  0.34870718228729924  0.6131573741963978  1.0000
  H   H21       1.0  0.18841085397652077  0.3487048690796826  0.11315568705192905  1.0000
  H   H22       1.0  0.8115882669082382  0.8487061805545368  0.8868434631862246  1.0000
  H   H23       1.0  0.8115917089868815  0.15129430094061297  0.6131568506293805  1.0000
  H   H24       1.0  0.1884082006464283  0.6512956660713558  0.3868440377919954  1.0000
  H   H25       1.0  0.39433496932159773  0.6001081422635154  0.960443022431527  1.0000
  H   H26       1.0  0.6056666553818885  0.10010720882699081  0.039555098046683716  1.0000
  H   H27       1.0  0.605666552874588  0.8998903266599926  0.4604467093099417  1.0000
  H   H28       1.0  0.3943368951970569  0.3998940017294288  0.5395546518115639  1.0000
  H   H29       1.0  0.6056630353757413  0.39988868885939177  0.03955560424057581  1.0000
  H   H30       1.0  0.39433588100505546  0.8998909594581903  0.9604435286274229  1.0000
  H   H31       1.0  0.3943329623967457  0.10010650446167091  0.5395547026779826  1.0000
  H   H32       1.0  0.6056671517565064  0.6001088466285013  0.46044731724059346  1.0000
  C   C1        1.0  0.3280861757048896  0.5832166455656707  0.10496688977052322  1.0000
  C   C2        1.0  0.6719155164818529  0.08321859901214172  0.8950312364395789  1.0000
  C   C3        1.0  0.6719158419322823  0.9167806542227127  0.6049706108773167  1.0000
  C   C4        1.0  0.3280845175339094  0.41678177493438534  0.39503130157416433  1.0000
  C   C5        1.0  0.6719088078615981  0.4167815227224523  0.8950317368998671  1.0000
  C   C6        1.0  0.3280870198984189  0.9167829121831306  0.10496739023396635  1.0000
  C   C7        1.0  0.328083673339691  0.08321684548083401  0.3950313581735117  1.0000
  C   C8        1.0  0.6719180188569424  0.5832183990963247  0.6049695533516656  1.0000
  C   C9        1.0  0.17528330758555194  0.6081802336682004  0.049518428806997916  1.0000
  C   C10       1.0  0.8247182848668615  0.10818003601828252  0.950480245994719  1.0000
  C   C11       1.0  0.8247213372053891  0.8918204352391401  0.5495217519530301  1.0000
  C   C12       1.0  0.17528063255051046  0.3918223174647224  0.45048016896968346  1.0000
  C   C13       1.0  0.8247146971031327  0.39181994036493256  0.9504796408015185  1.0000
  C   C14       1.0  0.1752812303872062  0.8918214751780412  0.049518937740352015  1.0000
  C   C15       1.0  0.175276667501798  0.10817840162889783  0.4504807741598429  1.0000
  C   C16       1.0  0.8247219038370304  0.6081785251481336  0.549520128893022  1.0000
  C   C17       1.0  0.9709714613527466  0.6225363813270163  0.0657538630923824  1.0000
  C   C18       1.0  0.02902856317317059  0.12253681175046442  0.9342442497734997  1.0000
  C   C19       1.0  0.029031788223583994  0.8774642799068957  0.5657558496742114  1.0000
  C   C20       1.0  0.9709732600302843  0.37746086933137957  0.43424607612286803  1.0000
  C   C21       1.0  0.029023522214380596  0.3774624555429895  0.9342453206409049  1.0000
  C   C22       1.0  0.9709709520822329  0.8774640308638411  0.06575493396168501  1.0000
  C   C23       1.0  0.9709692376005066  0.12253723128844034  0.4342450052506523  1.0000
  C   C24       1.0  0.029030786928672097  0.6225372989526861  0.5657547788040491  1.0000
  C   C25       1.0  0.8387349294863852  0.638408583916231  0.006922370112924603  1.0000
  C   C26       1.0  0.16126805275485617  0.13840620909679308  0.9930751803054396  1.0000
  C   C27       1.0  0.16126941265274294  0.8615934422899159  0.5069256065634846  1.0000
  C   C28       1.0  0.8387387201435031  0.36158943842843894  0.4930768816842035  1.0000
  C   C29       1.0  0.1612630752036353  0.3615909215348837  0.9930756994957055  1.0000
  C   C30       1.0  0.8387344836314482  0.8615912906064979  0.0069228893057698025  1.0000
  C   C31       1.0  0.8387331237387059  0.13840940606847602  0.4930769195509443  1.0000
  C   C32       1.0  0.16126683737954287  0.63840872985503  0.5069239732434598  1.0000
  C   C33       1.0  0.9117301877706652  0.6399494178773254  0.9341125731176735  1.0000
  C   C34       1.0  0.08827278830728602  0.13994954398972229  0.06588441971434383  1.0000
  C   C35       1.0  0.0882711473395261  0.8600510692384947  0.43411576347910613  1.0000
  C   C36       1.0  0.9117309493536467  0.36005165412043283  0.5658867252882446  1.0000
  C   C37       1.0  0.0882708380461992  0.36005075615462806  0.06588549649233502  1.0000
  C   C38       1.0  0.9117282375082495  0.8600512986242494  0.9341136498955511  1.0000
  C   C39       1.0  0.9117268573643428  0.13994843621169656  0.5658862055706353  1.0000
  C   C40       1.0  0.08827158703186912  0.6399511942383499  0.43411412963713064  1.0000
  C   C41       1.0  0.23702787409442289  0.6122048545792823  0.9751722460471233  1.0000
  C   C42       1.0  0.7629737022696047  0.11220581119901853  0.024824756199535607  1.0000
  C   C43       1.0  0.7629737527574108  0.8877942759635787  0.47517720622666826  1.0000
  C   C44       1.0  0.2370297436503819  0.38779540632019405  0.5248247160632504  1.0000
  C   C45       1.0  0.762970130596983  0.38779197654402253  0.024824709435932808  1.0000
  C   C46       1.0  0.237027323544595  0.8877956999969715  0.9751733134102456  1.0000
  C   C47       1.0  0.23702425195047278  0.11220322374055772  0.5248247628234142  1.0000
  C   C48       1.0  0.7629727927397809  0.6122061048744172  0.47517669592537026  1.0000
  N   N1        1.0  0.3961160449822215  0.6332185174648329  0.16259619793730457  1.0000
  N   N2        1.0  0.6038809157370935  0.13321921403255033  0.8374024683649213  1.0000
  N   N3        1.0  0.6038803398545481  0.8667794236673886  0.6625987548215593  1.0000
  N   N4        1.0  0.3961187088227121  0.36678051857249744  0.3374026175348207  1.0000
  N   N5        1.0  0.6038774280188406  0.3667803194058977  0.837402428732226  1.0000
  N   N6        1.0  0.39611708895421316  0.866781628582338  0.16259671536951717  1.0000
  N   N7        1.0  0.3961161542859273  0.13321874461949082  0.3374026571646526  1.0000
  N   N8        1.0  0.6038823170053931  0.6332189868767842  0.6625982373903769  1.0000
  N   N9        1.0  0.5450367224883408  0.5849314529617261  0.1934169050123416  1.0000
  N   N10       1.0  0.4549589206001413  0.08493161162974162  0.8065828918021868  1.0000
  N   N11       1.0  0.45495837075905143  0.9150678107669069  0.6934176275170219  1.0000
  N   N12       1.0  0.5450374638514219  0.41506947270873706  0.30658261432436273  1.0000
  N   N13       1.0  0.45495826107676146  0.4150693896542067  0.8065828357836227  1.0000
  N   N14       1.0  0.545037573531033  0.9150692309854734  0.19341740605754157  1.0000
  N   N15       1.0  0.545036612814016  0.08493102610270852  0.3065832274053123  1.0000
  N   N16       1.0  0.4549605408445387  0.5849300327419799  0.6934171264733211  1.0000
  N   N17       1.0  0.4312593531232949  0.5059485823977355  0.10075221495620212  1.0000
  N   N18       1.0  0.5687426477900742  0.0059492771317196  0.8992470516022028  1.0000
  N   N19       1.0  0.5687441451212862  0.9940500565468896  0.600753579883609  1.0000
  N   N20       1.0  0.4312574161830156  0.49405042623986634  0.39924774928321244  1.0000
  N   N21       1.0  0.5687371410085689  0.4940509230535711  0.8992475258407358  1.0000
  N   N22       1.0  0.43125988859350883  0.9940515654814066  0.10075213213447402  1.0000
  N   N23       1.0  0.4312568807114658  0.0059481117382205  0.39924783210483394  1.0000
  N   N24       1.0  0.568746630773269  0.5059490792082358  0.6007531056434774  1.0000
  N   N25       1.0  0.5636604872628651  0.5090781500564746  0.15641624448419128  1.0000
  N   N26       1.0  0.43633999058545914  0.009078305753796199  0.8435835780745082  1.0000
  N   N27       1.0  0.43634038534770525  0.9909211311596666  0.6564169228910189  1.0000
  N   N28       1.0  0.5636566567612676  0.49092276109468713  0.34358385027219657  1.0000
  N   N29       1.0  0.4363375174317524  0.4909220239762676  0.8435834963133788  1.0000
  N   N30       1.0  0.5636610352360164  0.9909225368597776  0.15641616272443315  1.0000
  N   N31       1.0  0.563657619353549  0.009077705708769201  0.34358393203280724  1.0000
  N   N32       1.0  0.436344369061537  0.5090774129368755  0.6564158905268587  1.0000
  N   N33       1.0  0.1085919305876573  0.6278049422355213  0.9187506095938506  1.0000
  N   N34       1.0  0.8914110940114454  0.12780577204334523  0.08124638735944963  1.0000
  N   N35       1.0  0.8914077848197337  0.8721942149778529  0.41875570167596293  1.0000
  N   N36       1.0  0.10859577391904199  0.37219541880462975  0.5812467829710786  1.0000
  N   N37       1.0  0.8914060741010773  0.3721932260518201  0.08124634588897812  1.0000
  N   N38       1.0  0.10859295293226977  0.8721950705694542  0.9187516822519303  1.0000
  N   N39       1.0  0.1085917304535258  0.12780462188946734  0.5812473815006742  1.0000
  N   N40       1.0  0.8914052519043594  0.627807429554608  0.4187546290165686  1.0000
  Cl  Cl1       1.0  0.9764143822178184  0.7500001631865701  0.238328624091885  1.0000
  Cl  Cl2       1.0  0.023580601343326194  0.25000067942963267  0.7616700025780436  1.0000
  Cl  Cl3       1.0  0.0235810301293853  0.7500004164767305  0.7383295344347832  1.0000
  Cl  Cl4       1.0  0.9764154640051075  0.24999975755633855  0.26167132048806974  1.0000
  Cl  Cl5       1.0  0.496629330770311  0.7500003292494386  0.32710362101236984  1.0000
  Cl  Cl6       1.0  0.5033671633542838  0.24999984478428428  0.6728944485954005  1.0000
  Cl  Cl7       1.0  0.5033652017701796  0.7499995398692365  0.8271050043168987  1.0000
  Cl  Cl8       1.0  0.4966312923696066  0.24999996558154444  0.17289696473209665  1.0000
  Cl  Cl9       1.0  0.0228471711607199  0.5000010007020705  0.24999978081791607  1.0000
  Cl  Cl10      1.0  0.9771503218254338  7.789641288000001e-07  0.7499994877568101  1.0000
  Cl  Cl11      1.0  0.9771508335305866  0.4999998419128176  0.7499994029165225  1.0000
  Cl  Cl12      1.0  0.022846172303118792  0.9999993950693309  0.24999969597699598  1.0000
