data_image0
_chemical_formula_structural       Cu4H16C16N4O16
_chemical_formula_sum              "Cu4 H16 C16 N4 O16"
_cell_length_a       6.8501587880913695
_cell_length_b       7.736767905189556
_cell_length_c       12.908824520941545
_cell_angle_alpha    100.29307005629322
_cell_angle_beta     90.00733234659431
_cell_angle_gamma    116.2974789425889

_space_group_name_H-M_alt    "P 1"
_space_group_IT_number       1

loop_
  _space_group_symop_operation_xyz
  'x, y, z'

loop_
  _atom_site_type_symbol
  _atom_site_label
  _atom_site_symmetry_multiplicity
  _atom_site_fract_x
  _atom_site_fract_y
  _atom_site_fract_z
  _atom_site_occupancy
  Cu  Cu1       1.0  0.48970331236952797  0.6489932804733342  0.5601329997192792  1.0000
  Cu  Cu2       1.0  0.8407542224038805  0.35063421256037935  0.9399357190194594  1.0000
  Cu  Cu3       1.0  0.5102878118992321  0.3509977819934206  0.43986355087461243  1.0000
  Cu  Cu4       1.0  0.1592544658595543  0.6493715328039895  0.0600693954548177  1.0000
  H   H1        1.0  0.8105293734295312  0.45077840946347414  0.7143568628028305  1.0000
  H   H2        1.0  0.3603359675543913  0.5486675483396153  0.7859083577502872  1.0000
  H   H3        1.0  0.18946617148387188  0.549221491285081  0.2856383218111347  1.0000
  H   H4        1.0  0.6396558468651818  0.4513161373645003  0.21409204138969068  1.0000
  H   H5        1.0  0.02031352220075896  0.8405108852336622  0.42069873377850087  1.0000
  H   H6        1.0  0.18035849579273133  0.1604578479059526  0.0798504301942344  1.0000
  H   H7        1.0  0.9796826429806981  0.1594610713012514  0.5792918730046139  1.0000
  H   H8        1.0  0.8196355706814697  0.8395420135654559  0.9201532714404977  1.0000
  H   H9        1.0  0.7532669308737993  5.800451333469979e-05  0.7496691065530073  1.0000
  H   H10       1.0  0.2467307865765634  0.9999462356341196  0.250342816415241  1.0000
  H   H11       1.0  0.1227316862069684  0.7694428993536133  0.6096335279784241  1.0000
  H   H12       1.0  0.3532847378571801  0.22954623360120507  0.8905603154516797  1.0000
  H   H13       1.0  0.8772741329454234  0.23057170409624214  0.3903655744197962  1.0000
  H   H14       1.0  0.6467093982056512  0.7704683604231093  0.10944033486353533  1.0000
  H   H15       1.0  0.04494648635337486  0.9996318211396585  0.7501397627286791  1.0000
  H   H16       1.0  0.9550549765578961  0.00038574849997989976  0.2498542383276288  1.0000
  C   C1        1.0  0.7147454033157672  0.4628927321399772  0.6494999953591359  1.0000
  C   C2        1.0  0.2522881552225016  0.5368100630188903  0.8506854846443658  1.0000
  C   C3        1.0  0.2852501280157825  0.5371042228068177  0.3504956446623311  1.0000
  C   C4        1.0  0.7477160733300747  0.4631780102024762  0.14932158775039986  1.0000
  C   C5        1.0  0.8613267848919292  0.7386845214027246  0.44408348347692334  1.0000
  C   C6        1.0  0.12281147223449546  0.26183131142015253  0.056261727964603374  1.0000
  C   C7        1.0  0.138667208193759  0.2612918480804396  0.5559076014965783  1.0000
  C   C8        1.0  0.877195035389356  0.7381759117229831  0.9437419972616681  1.0000
  C   C9        1.0  0.5941929777866407  0.9998757687714247  0.7498283647771232  1.0000
  C   C10       1.0  0.4058032745122587  0.00012554300253949993  0.2501801421079364  1.0000
  C   C11       1.0  0.2455974617507977  0.8735640627981167  0.6727890387964592  1.0000
  C   C12       1.0  0.37196767769525246  0.12568227592385028  0.8272507556857036  1.0000
  C   C13       1.0  0.7544090797541613  0.12644906612489848  0.3272106784869351  1.0000
  C   C14       1.0  0.6280330222649297  0.8743308482863908  0.1727497355561809  1.0000
  C   C15       1.0  0.2033769512425323  0.999624199387888  0.750058288004098  1.0000
  C   C16       1.0  0.7966274248840577  0.00039335665974249976  0.2499388103418099  1.0000
  N   N1        1.0  0.4417405211753262  0.873290043010108  0.6727489087927694  1.0000
  N   N2        1.0  0.5684728653528949  0.12620231890146974  0.8270666204570318  1.0000
  N   N3        1.0  0.5582630393520985  0.126711287945156  0.3272557270867864  1.0000
  N   N4        1.0  0.43152559642864224  0.8738034102413507  0.1729415905790503  1.0000
  O   O1        1.0  0.6625532957895004  0.6033355122674423  0.6694871211680891  1.0000
  O   O2        1.0  0.059635167361250324  0.39618989558082507  0.8307584198565721  1.0000
  O   O3        1.0  0.33743272790696466  0.39665702739372927  0.3305080400160633  1.0000
  O   O4        1.0  0.9403697667504075  0.6037966676728102  0.16925701024302947  1.0000
  O   O5        1.0  0.7728210962483427  0.8193581869598601  0.5094177061567393  1.0000
  O   O6        1.0  0.9533964924880537  0.18061335921806423  0.9910122787084034  1.0000
  O   O7        1.0  0.22717876050778327  0.18062406820733656  0.4905740168891484  1.0000
  O   O8        1.0  0.04660199996295941  0.819401186065512  0.008999211796947258  1.0000
  O   O9        1.0  0.6713758180746225  0.33563024883950726  0.5649109769409364  1.0000
  O   O10       1.0  0.3360759519814209  0.6644785906115374  0.9351556419722158  1.0000
  O   O11       1.0  0.32862996354383267  0.6643726068441821  0.4350822042676512  1.0000
  O   O12       1.0  0.6639327887830291  0.33553601696674906  0.06484268630577357  1.0000
  O   O13       1.0  0.7916691298760198  0.5576992700681558  0.40400363046043  1.0000
  O   O14       1.0  0.23405819644879952  0.442980562443161  0.09609659526987713  1.0000
  O   O15       1.0  0.20831904364349899  0.44228005822444766  0.595983901654229  1.0000
  O   O16       1.0  0.7659702157084566  0.5570266757147947  0.903904808323496  1.0000
