data_image0
_chemical_formula_structural       Sm4H40C56N4O34
_chemical_formula_sum              "Sm4 H40 C56 N4 O34"
_cell_length_a       10.161616203235114
_cell_length_b       12.312998077305311
_cell_length_c       13.1801
_cell_angle_alpha    73.26595339015829
_cell_angle_beta     74.37855534342127
_cell_angle_gamma    70.35428352152319

_space_group_name_H-M_alt    "P 1"
_space_group_IT_number       1

loop_
  _space_group_symop_operation_xyz
  'x, y, z'

loop_
  _atom_site_type_symbol
  _atom_site_label
  _atom_site_symmetry_multiplicity
  _atom_site_fract_x
  _atom_site_fract_y
  _atom_site_fract_z
  _atom_site_occupancy
  Sm  Sm1       1.0  0.805334987290749  0.2824658510929652  0.4025313667124166  1.0000
  Sm  Sm2       1.0  0.1946649281869597  0.7175342795805051  0.5974678569662117  1.0000
  Sm  Sm3       1.0  0.18724380273972943  0.2185692647267317  0.5459664106352164  1.0000
  Sm  Sm4       1.0  0.8127561127379793  0.7814308659467315  0.45403357176299136  1.0000
  H   H1        1.0  0.28603307759249935  0.0166924530726931  0.4256843074840617  1.0000
  H   H2        1.0  0.7139671364625925  0.9833067940749631  0.5743158505834954  1.0000
  H   H3        1.0  0.12317144403915144  0.0713155525680733  0.4224732556255688  1.0000
  H   H4        1.0  0.8768287700159335  0.9286836945795827  0.5775276611615752  1.0000
  H   H5        1.0  0.3110589273516099  0.0317901420636559  0.7265534740440103  1.0000
  H   H6        1.0  0.6889402648631561  0.9682091050840071  0.27344689616800366  1.0000
  H   H7        1.0  0.302228344328441  0.960881142040293  0.6434394137793333  1.0000
  H   H8        1.0  0.697770847886332  0.039118105107370106  0.35656019771310093  1.0000
  H   H9        1.0  0.8729820479179581  0.4648485493401396  0.47556333208670754  1.0000
  H   H10       1.0  0.12701888940006972  0.5351515813333307  0.5244364381670437  1.0000
  H   H11       1.0  0.715372237988106  0.5201139720972492  0.4675899567512118  1.0000
  H   H12       1.0  0.284627252804036  0.4798843915246068  0.5324098304105718  1.0000
  H   H13       1.0  0.00681354399635842  0.867567563928155  0.9284435332441134  1.0000
  H   H14       1.0  0.9931887137393646  0.1324316832195009  0.07155695925411719  1.0000
  H   H15       1.0  0.8327759559312116  0.9901965283183858  0.0562275719161036  1.0000
  H   H16       1.0  0.1672239595465044  0.0098036023550847  0.9437724104821045  1.0000
  H   H17       1.0  0.6603646700789909  0.1769092558724665  0.9815651359962132  1.0000
  H   H18       1.0  0.33963626723903667  0.8230908748009966  0.018433875537958562  1.0000
  H   H19       1.0  0.5736978560725704  0.5549938039081752  0.6844197383358049  1.0000
  H   H20       1.0  0.4263020594051453  0.4450063267652951  0.3155802440624029  1.0000
  H   H21       1.0  0.7667410005642952  0.3742005685878881  0.72341668848577  1.0000
  H   H22       1.0  0.2332592134907899  0.625798678559768  0.27658346958178726  1.0000
  H   H23       1.0  0.48730487905410064  0.1631660119437228  0.8253069204411361  1.0000
  H   H24       1.0  0.5126943131606725  0.8368332352039333  0.17469496721004424  1.0000
  H   H25       1.0  0.2811362007491739  0.3367143356461569  0.7919587072951516  1.0000
  H   H26       1.0  0.7188626928882231  0.6632857950273136  0.20804148724751304  1.0000
  H   H27       1.0  0.9655711232624856  0.7485451518823325  0.08694817314368204  1.0000
  H   H28       1.0  0.03442777037491136  0.2514549787911379  0.9130520213989826  1.0000
  H   H29       1.0  0.10943109739776709  0.6690366645054341  0.9216812370503574  1.0000
  H   H30       1.0  0.8905695413428919  0.3309643496938364  0.0783183575340444  1.0000
  H   H31       1.0  0.27044692818250843  0.4631698503067341  0.9473148483508426  1.0000
  H   H32       1.0  0.7295529872952077  0.5368302803667291  0.05268513404736541  1.0000
  H   H33       1.0  0.34364218575736066  0.0357456871018371  0.12437581057886858  1.0000
  H   H34       1.0  0.656357431142986  0.9642553270974334  0.8756239961499901  1.0000
  H   H35       1.0  0.17473978096160184  0.2380112501109863  0.0998080217585695  1.0000
  H   H36       1.0  0.825260857779057  0.7619897640882911  0.9001915728258323  1.0000
  H   H37       1.0  0.4526551827409834  0.37898927846212876  0.16681870700664078  1.0000
  H   H38       1.0  0.5473447327367253  0.6210108522113345  0.833181275391567  1.0000
  H   H39       1.0  0.6318340951041393  0.18377248434167373  0.1988416985768708  1.0000
  H   H40       1.0  0.3681661189509527  0.8162267628059894  0.8011584594906935  1.0000
  C   C1        1.0  0.8524005258836453  0.1468490573390255  0.6256239520456435  1.0000
  C   C2        1.0  0.14759938959406324  0.8531510733344378  0.3743760303525718  1.0000
  C   C3        1.0  0.027636606812670547  0.8985307258364089  0.71938429913547  1.0000
  C   C4        1.0  0.9723640319279954  0.1014702883628686  0.2806145367293452  1.0000
  C   C5        1.0  0.8467481706626288  0.0955709865491627  0.7444661182333903  1.0000
  C   C6        1.0  0.1532517448150799  0.9044291441243075  0.2555338641648248  1.0000
  C   C7        1.0  0.937823053103081  0.9865139927545743  0.7871850624177982  1.0000
  C   C8        1.0  0.0621781827923229  0.013485254393081904  0.21281488350530248  1.0000
  C   C9        1.0  0.9333330678557489  0.9514053277596235  0.8986861885404592  1.0000
  C   C10       1.0  0.06666654904459081  0.0485956864396471  0.1013136181883993  1.0000
  C   C11       1.0  0.8371213065651163  0.0194817440455637  0.9694454166486751  1.0000
  C   C12       1.0  0.16287992933028755  0.9805175031020924  0.030554529274425615  1.0000
  C   C13       1.0  0.7406394969567174  0.123697147090958  0.9281895022967745  1.0000
  C   C14       1.0  0.2593604185209984  0.8763029835825122  0.07181048010143345  1.0000
  C   C15       1.0  0.7449477063397724  0.1601540724674706  0.8171456899242031  1.0000
  C   C16       1.0  0.2550525077153127  0.8398451746801854  0.18285370942377444  1.0000
  C   C17       1.0  0.5474025653162045  0.47166318388995887  0.7190266487108943  1.0000
  C   C18       1.0  0.45259735016151137  0.5283369467835116  0.28097333368731364  1.0000
  C   C19       1.0  0.656939410136772  0.3719652482960427  0.7396030184029739  1.0000
  C   C20       1.0  0.3430597820780008  0.6280339988516204  0.2603973518090398  1.0000
  C   C21       1.0  0.49873099321423814  0.2526813126113296  0.7987621995678538  1.0000
  C   C22       1.0  0.5012692208408468  0.7473179345363334  0.20123947593886976  1.0000
  C   C23       1.0  0.3856190898830647  0.349702165009866  0.7795624139918687  1.0000
  C   C24       1.0  0.614380527017282  0.6502988491894115  0.2204381514565767  1.0000
  C   C25       1.0  0.4037423820791943  0.4660863689958249  0.7398870380215286  1.0000
  C   C26       1.0  0.5962565115582095  0.5339137616776455  0.2601139152407228  1.0000
  C   C27       1.0  0.474793017116177  0.2983348581134848  0.5060108220922146  1.0000
  C   C28       1.0  0.525205876521227  0.7016652725599856  0.49398937245044994  1.0000
  C   C29       1.0  0.5214214035257996  0.1933631569772558  0.449825621031799  1.0000
  C   C30       1.0  0.4785774901115972  0.8066369736962073  0.5501738147912858  1.0000
  C   C31       1.0  0.12348364724637412  0.3844591867336079  0.3207133894090716  1.0000
  C   C32       1.0  0.8765142245507039  0.6155409439398554  0.6792870172780566  1.0000
  C   C33       1.0  0.9577959940527523  0.6463786451835034  0.29161686543390175  1.0000
  C   C34       1.0  0.042203921424963715  0.3536214854899598  0.7083831169643062  1.0000
  C   C35       1.0  0.12330519450586765  0.4703476139632485  0.21256777888372372  1.0000
  C   C36       1.0  0.8766944223944719  0.5296534002360218  0.7874312691255554  1.0000
  C   C37       1.0  0.03737305232440488  0.5880332514630027  0.19848973040398477  1.0000
  C   C38       1.0  0.962625841312992  0.4119668792104677  0.801510464138687  1.0000
  C   C39       1.0  0.03315077346341162  0.6578123526526056  0.09378318616164441  1.0000
  C   C40       1.0  0.9668481201739854  0.3421877780208575  0.9062170083810203  1.0000
  C   C41       1.0  0.11319172440245505  0.6140672228936879  0.0028203488083561345  1.0000
  C   C42       1.0  0.8868081910752607  0.38593290777977535  0.9971796335898517  1.0000
  C   C43       1.0  0.20338138831758804  0.49905601801189203  0.01659251500409907  1.0000
  C   C44       1.0  0.7966185271601276  0.5009441126615712  0.983407467394109  1.0000
  C   C45       1.0  0.20829034956813797  0.4296851057451505  0.12045034583636037  1.0000
  C   C46       1.0  0.7917092673322091  0.5703159084541269  0.8795502196120849  1.0000
  C   C47       1.0  0.3713575641204727  0.10873287049685841  0.1358083482793546  1.0000
  C   C48       1.0  0.6286423513572432  0.8912672601766047  0.8641916341188606  1.0000
  C   C49       1.0  0.2778503354818583  0.21892620915278374  0.1209328975088724  1.0000
  C   C50       1.0  0.7221495799958576  0.7810739215206797  0.8790670848893356  1.0000
  C   C51       1.0  0.4355830404069891  0.2988305160912432  0.16034075253814706  1.0000
  C   C52       1.0  0.5644178969110385  0.7011696145822272  0.8396590177156043  1.0000
  C   C53       1.0  0.5325979767590925  0.19067900557542572  0.17732035520149486  1.0000
  C   C54       1.0  0.46740296055894254  0.8093211250980448  0.8226786563326698  1.0000
  C   C55       1.0  0.5034894638434793  0.0866995039205207  0.16940739771827404  1.0000
  C   C56       1.0  0.4965117720519172  0.9132997432271426  0.8305925482048337  1.0000
  N   N1        1.0  0.6336387152582504  0.2634329381573792  0.7809528814695311  1.0000
  N   N2        1.0  0.36635987980177026  0.7365680760418911  0.21904789612337086  1.0000
  N   N3        1.0  0.30818790598125634  0.3135871641206762  0.13403881488679303  1.0000
  N   N4        1.0  0.6918109876561404  0.6864129665527869  0.8659613796558787  1.0000
  O   O1        1.0  0.7540077468355053  0.1487079956370749  0.5833051512133878  1.0000
  O   O2        1.0  0.24599216864220363  0.8512921350363953  0.41669407246523343  1.0000
  O   O3        1.0  0.9498393422561763  0.19716055089597972  0.5733252399511954  1.0000
  O   O4        1.0  0.05016057322153966  0.8028395797774907  0.42667398372743287  1.0000
  O   O5        1.0  0.024408051587819578  0.921993637168562  0.6186196501585712  1.0000
  O   O6        1.0  0.9755922885754703  0.0780082605565156  0.3813797687564814  1.0000
  O   O7        1.0  0.10053314904485695  0.7987002613714367  0.7648777448935888  1.0000
  O   O8        1.0  0.8994674896958018  0.20130075282784085  0.2351210909712265  1.0000
  O   O9        1.0  0.2975787335525696  0.5583123268394701  0.7251505387598555  1.0000
  O   O10       1.0  0.7024211819251464  0.4416878038339931  0.27484868491876574  1.0000
  O   O11       1.0  0.5626051445518669  0.3545182641841222  0.4940808609155098  1.0000
  O   O12       1.0  0.437395069503218  0.6454809829635337  0.5059185384324678  1.0000
  O   O13       1.0  0.3471377298848708  0.3220133497425621  0.5583942855526872  1.0000
  O   O14       1.0  0.6528635060105261  0.677985897405101  0.4416056603704135  1.0000
  O   O15       1.0  0.64836605762266  0.1704268270261053  0.3957588132160765  1.0000
  O   O16       1.0  0.3516341564324251  0.8295724201215579  0.6042413448514877  1.0000
  O   O17       1.0  0.43152121582075875  0.13984799884392632  0.459724029283869  1.0000
  O   O18       1.0  0.5684797214972692  0.860152131829544  0.5402757409698821  1.0000
  O   O19       1.0  0.2208805099590307  0.364517125742566  0.3718868140868564  1.0000
  O   O20       1.0  0.7791194055186851  0.6354830049308973  0.6281139270309382  1.0000
  O   O21       1.0  0.027429684940408133  0.3309387274454352  0.35134817364005505  1.0000
  O   O22       1.0  0.9725712523776269  0.6690614032280351  0.6486515966137034  1.0000
  O   O23       1.0  0.9699938101882282  0.591857151155935  0.3887941731887991  1.0000
  O   O24       1.0  0.03000610528948763  0.4081429795175282  0.6112058092094159  1.0000
  O   O25       1.0  0.8837779873096495  0.7537155449052194  0.26940141429397346  1.0000
  O   O26       1.0  0.11622162959069732  0.2462854692940581  0.7305983924348922  1.0000
  O   O27       1.0  0.5880795213810686  0.98330060939432  0.1893400994866781  1.0000
  O   O28       1.0  0.4119193722563352  0.016699521279150503  0.8106600950559866  1.0000
  O   O29       1.0  0.2070779640039576  0.0870113885304065  0.43433496937108623  1.0000
  O   O30       1.0  0.7929209296334393  0.9129887421430568  0.5656652251715784  1.0000
  O   O31       1.0  0.2601991101238  0.0366848750347373  0.668303969368985  1.0000
  O   O32       1.0  0.7398005067765466  0.9633161391645331  0.3316965960794604  1.0000
  O   O33       1.0  0.7858086558726001  0.4423433799828303  0.4850504844562095  1.0000
  O   O34       1.0  0.21419023776479668  0.55765675069064  0.5149489513668684  1.0000
