data_image0
_chemical_formula_structural       H24Pb3C24Br6N4O4
_chemical_formula_sum              "H24 Pb3 C24 Br6 N4 O4"
_cell_length_a       8.00932849197065
_cell_length_b       10.117216298919459
_cell_length_c       11.289296403796348
_cell_angle_alpha    107.23479479703414
_cell_angle_beta     97.82906672815139
_cell_angle_gamma    98.00696318101397

_space_group_name_H-M_alt    "P 1"
_space_group_IT_number       1

loop_
  _space_group_symop_operation_xyz
  'x, y, z'

loop_
  _atom_site_type_symbol
  _atom_site_label
  _atom_site_symmetry_multiplicity
  _atom_site_fract_x
  _atom_site_fract_y
  _atom_site_fract_z
  _atom_site_occupancy
  H   H1        1.0  0.619952354642578  0.5946149419572605  0.4274336708671242  1.0000
  H   H2        1.0  0.37996615314767007  0.40536302219976506  0.5725842050167672  1.0000
  H   H3        1.0  0.6406770445632475  0.34211512788502313  0.3436545796628679  1.0000
  H   H4        1.0  0.3593241541892809  0.6579092888413667  0.6563412559723717  1.0000
  H   H5        1.0  0.31847945938659455  0.32226372855990343  0.9962419885986836  1.0000
  H   H6        1.0  0.6814301656529551  0.6777247944589317  0.0037716373199145224  1.0000
  H   H7        1.0  0.1908064909726406  0.4285842351703267  0.9018480549955755  1.0000
  H   H8        1.0  0.8092250418627175  0.5714084212397805  0.09819630017881306  1.0000
  H   H9        1.0  0.020452353418726036  0.8203326928408075  0.9237507652037495  1.0000
  H   H10       1.0  0.9795638241433905  0.17963686441015617  0.07624872055313148  1.0000
  H   H11       1.0  0.18460617862541534  0.9186476469212292  0.14426590692700358  1.0000
  H   H12       1.0  0.8152338091922217  0.0813018000632866  0.8557721177387878  1.0000
  H   H13       1.0  0.5656537037602831  0.9973189766473064  0.10225381286282686  1.0000
  H   H14       1.0  0.43445593841659763  0.0026789380177944977  0.8977933763231863  1.0000
  H   H15       1.0  0.5326231674179736  0.10335557660469868  0.253867286246738  1.0000
  H   H16       1.0  0.4674341276357977  0.8966445447407662  0.7461408317128077  1.0000
  H   H17       1.0  0.7169583341852929  0.15402737279180195  0.19229035885091153  1.0000
  H   H18       1.0  0.2831112286838716  0.8459822212646838  0.8077259151333182  1.0000
  H   H19       1.0  0.8749929733709931  0.5465069572831991  0.6139243461582212  1.0000
  H   H20       1.0  0.1250108106252767  0.45356079364302093  0.3860337044056124  1.0000
  H   H21       1.0  0.023359726992950323  0.70920949200417  0.6938489743178168  1.0000
  H   H22       1.0  0.9766278516992554  0.29082659089039703  0.3061202991638297  1.0000
  H   H23       1.0  0.8316128654815812  0.6683919063779412  0.7526794395873467  1.0000
  H   H24       1.0  0.16841455538595082  0.33163144925396176  0.24731778883263195  1.0000
  Pb  Pb1       1.0  0.47042303590706774  0.8493045387616289  0.35278229379763815  1.0000
  Pb  Pb2       1.0  0.5294791067543798  0.15070611547331228  0.6472400517003295  1.0000
  Pb  Pb3       1.0  0.9999390139982509  0.9999631972981786  0.49998148483456367  1.0000
  C   C1        1.0  0.5537559903783204  0.5301960688138507  0.33225214912094  1.0000
  C   C2        1.0  0.4462247110992479  0.46982722248450387  0.6677750438955316  1.0000
  C   C3        1.0  0.5664811994757742  0.3895864596058799  0.2847027645044733  1.0000
  C   C4        1.0  0.43357385698459433  0.6104527233239309  0.7152907589685144  1.0000
  C   C5        1.0  0.4802922475456127  0.31394475982893505  0.1610092702275523  1.0000
  C   C6        1.0  0.5197012652019737  0.686062795401298  0.8389804279432909  1.0000
  C   C7        1.0  0.38464127200868603  0.3823431246129586  0.09228605006775577  1.0000
  C   C8        1.0  0.6153350218513297  0.6176338191333597  0.9077141682194851  1.0000
  C   C9        1.0  0.378030820000454  0.5235906198592416  0.1473422422095823  1.0000
  C   C10       1.0  0.6220472752730758  0.4764390967708605  0.8526386041160309  1.0000
  C   C11       1.0  0.27809086079842876  0.6008198068397447  0.07924531082324648  1.0000
  C   C12       1.0  0.7219832167735447  0.3992088632193215  0.9207322062366073  1.0000
  C   C13       1.0  0.18977529148892808  0.5374242857392983  0.9557143584849331  1.0000
  C   C14       1.0  0.8102269886166483  0.4625558547755445  0.04427065012731641  1.0000
  C   C15       1.0  0.09722027309703658  0.6155555667709506  0.8957475773931524  1.0000
  C   C16       1.0  0.9028006479319475  0.3844288024372773  0.10423240894716201  1.0000
  C   C17       1.0  0.09240751989548095  0.7553248371591292  0.9640462868752809  1.0000
  C   C18       1.0  0.9076656977281773  0.24468380458181116  0.03592580009466669  1.0000
  C   C19       1.0  0.1843044184469633  0.8104755459593633  0.08718173527266518  1.0000
  C   C20       1.0  0.8156080998974603  0.18948761903839537  0.9128502069308837  1.0000
  C   C21       1.0  0.5807017217704952  0.10412826094635358  0.16742013162636482  1.0000
  C   C22       1.0  0.41936940347476787  0.8958771325151316  0.8325880873696934  1.0000
  C   C23       1.0  0.9323265942026779  0.6244292551041895  0.7059405793448976  1.0000
  C   C24       1.0  0.06768998653804911  0.37560152857369633  0.2940380852225247  1.0000
  Br  Br1       1.0  0.7202504883871229  0.8619785061473307  0.6049646277088528  1.0000
  Br  Br2       1.0  0.2796651988267199  0.13787382488165886  0.3951018170512769  1.0000
  Br  Br3       1.0  0.20076847921547616  0.7637348129023703  0.48525915091492067  1.0000
  Br  Br4       1.0  0.7993309889124164  0.23633198498058752  0.5146504164503938  1.0000
  Br  Br5       1.0  0.2045675325340284  0.1507456838705821  0.7638292786259202  1.0000
  Br  Br6       1.0  0.7952049644102105  0.8491953470405631  0.23620256332493733  1.0000
  N   N1        1.0  0.4628439016593974  0.5961686782248847  0.26679990205947496  1.0000
  N   N2        1.0  0.537167934508929  0.40385259716924776  0.7331855047442561  1.0000
  N   N3        1.0  0.2764466804000775  0.7372883727625846  0.14341960256710706  1.0000
  N   N4        1.0  0.7235264568122162  0.2627022490572983  0.8565954737245394  1.0000
  O   O1        1.0  0.48178237288028214  0.17779919834985947  0.10081694193991102  1.0000
  O   O2        1.0  0.5182983053008458  0.8222146579119778  0.8991802965274047  1.0000
  O   O3        1.0  0.0194677421281213  0.5474696568581692  0.7755754222019109  1.0000
  O   O4        1.0  0.9806079676108579  0.4525495686945717  0.22438113158532502  1.0000
