data_image0
_chemical_formula_structural       H32Pb2C32N4O12
_chemical_formula_sum              "H32 Pb2 C32 N4 O12"
_cell_length_a       8.194980111173411
_cell_length_b       10.889489661129643
_cell_length_c       11.633843753646962
_cell_angle_alpha    117.92275366922233
_cell_angle_beta     108.6472538462706
_cell_angle_gamma    89.96345520756834

_space_group_name_H-M_alt    "P 1"
_space_group_IT_number       1

loop_
  _space_group_symop_operation_xyz
  'x, y, z'

loop_
  _atom_site_type_symbol
  _atom_site_label
  _atom_site_symmetry_multiplicity
  _atom_site_fract_x
  _atom_site_fract_y
  _atom_site_fract_z
  _atom_site_occupancy
  H   H1        1.0  0.5514376784354553  0.34739564569193965  0.029978505363388308  1.0000
  H   H2        1.0  0.9483664696633343  0.3172591663801613  0.9699790513321174  1.0000
  H   H3        1.0  0.44856096501513326  0.6526083788931347  0.9700228311539685  1.0000
  H   H4        1.0  0.05162292378992113  0.6827437509965579  0.03001976452104321  1.0000
  H   H5        1.0  0.6921384113112908  0.5932980558703564  0.12112705368073759  1.0000
  H   H6        1.0  0.8081106752442366  0.4724417118663454  0.8791680746367941  1.0000
  H   H7        1.0  0.3078569190626014  0.4067027849146785  0.8788669977611006  1.0000
  H   H8        1.0  0.19187572159445665  0.527547474342093  0.12081717201278509  1.0000
  H   H9        1.0  0.7438819234618991  0.7767830970228432  0.3658915104332506  1.0000
  H   H10       1.0  0.7565203254947407  0.41142925262101937  0.6345484560757909  1.0000
  H   H11       1.0  0.25610507420055484  0.22322086147459438  0.6341037976826269  1.0000
  H   H12       1.0  0.24347487298862097  0.5885589284526278  0.36543828447174315  1.0000
  H   H13       1.0  0.6542033523324237  0.7145104870353054  0.5208169627941429  1.0000
  H   H14       1.0  0.8456644894510107  0.19393408177084842  0.4793033165985533  1.0000
  H   H15       1.0  0.3457950463612677  0.2854924811437344  0.47918213653434066  1.0000
  H   H16       1.0  0.15434515359925882  0.8060489069916346  0.5206920552125992  1.0000
  H   H17       1.0  0.9796711299387937  0.7246429549172293  0.6356415950010612  1.0000
  H   H18       1.0  0.5205650369805711  0.08914681599538454  0.36397132067286003  1.0000
  H   H19       1.0  0.020329909302603314  0.2753600285471265  0.36436324925357855  1.0000
  H   H20       1.0  0.4794346408258364  0.910856159357394  0.6360272035071757  1.0000
  H   H21       1.0  0.9195579945309548  0.5460012594400255  0.5928130414842484  1.0000
  H   H22       1.0  0.5808280659252034  0.9534805166113787  0.4070690543883158  1.0000
  H   H23       1.0  0.08044319685478032  0.4540027793752871  0.4071862828333507  1.0000
  H   H24       1.0  0.4191682640568502  0.046524550032252414  0.5929356696148033  1.0000
  H   H25       1.0  0.14477589083393383  0.6264639692173902  0.6716770383938664  1.0000
  H   H26       1.0  0.35557854376710213  0.9551374036011426  0.32818923396911964  1.0000
  H   H27       1.0  0.8552294443885488  0.37354114822856144  0.32832796908456874  1.0000
  H   H28       1.0  0.6444194828094753  0.044869782207676706  0.6718133559431505  1.0000
  H   H29       1.0  0.8949076450795773  0.7167304644428328  0.8082334249314653  1.0000
  H   H30       1.0  0.6053189061172333  0.9083898941051561  0.19154371243885757  1.0000
  H   H31       1.0  0.10509098808073253  0.28327356002500903  0.19176704968300837  1.0000
  H   H32       1.0  0.39468014032132  0.09160991320182181  0.8084567192033416  1.0000
  Pb  Pb1       1.0  0.250026876633065  0.9349392080592343  0.9999394106512366  1.0000
  Pb  Pb2       1.0  0.7499809260854563  0.0650532644917234  6.058324753873586e-05  1.0000
  C   C1        1.0  0.4373736714225061  0.24476634090995464  0.16853138506013468  1.0000
  C   C2        1.0  0.06231915159915501  0.07584665001900961  0.8311878740402104  1.0000
  C   C3        1.0  0.5626243345735062  0.7552408446643994  0.8314694810463761  1.0000
  C   C4        1.0  0.9376767155363911  0.9241499750119364  0.16881647726392407  1.0000
  C   C5        1.0  0.520586163290581  0.39327376420166626  0.22301727046254877  1.0000
  C   C6        1.0  0.9790377427858206  0.17000786884113953  0.7768449834911875  1.0000
  C   C7        1.0  0.47942139920136384  0.6067355856904585  0.7769935249143243  1.0000
  C   C8        1.0  0.020957889883114054  0.8299876999010042  0.2231579925269429  1.0000
  C   C9        1.0  0.5720508687291146  0.4284891045409652  0.1368620382235548  1.0000
  C   C10       1.0  0.9277212663442925  0.2914861858394176  0.8630976093855407  1.0000
  C   C11       1.0  0.4279546041438708  0.5715107389863975  0.8631381033850896  1.0000
  C   C12       1.0  0.07226954995890372  0.7085051357573775  0.1368981433223979  1.0000
  C   C13       1.0  0.6506637249279736  0.5664785993139888  0.18797209558965014  1.0000
  C   C14       1.0  0.8494001658887314  0.37864076389172413  0.8122156705302  1.0000
  C   C15       1.0  0.3493390211982259  0.4335265034327877  0.812031476477024  1.0000
  C   C16       1.0  0.1505921373265054  0.6213579499682285  0.1877767806365185  1.0000
  C   C17       1.0  0.6792916671078971  0.6700332916649645  0.3256246891877693  1.0000
  C   C18       1.0  0.8208625052566988  0.3447250239821358  0.6746404492422966  1.0000
  C   C19       1.0  0.3207003707698703  0.32996436555449554  0.6743638009843094  1.0000
  C   C20       1.0  0.17914607256690124  0.6552590136609523  0.3253551491975343  1.0000
  C   C21       1.0  0.6291611398222088  0.6365322961930816  0.41233320292464254  1.0000
  C   C22       1.0  0.8707339508921879  0.22435246062871544  0.5877702561794536  1.0000
  C   C23       1.0  0.37083996536444636  0.36347701712696806  0.5876752967771494  1.0000
  C   C24       1.0  0.12927281747052186  0.7756410611545378  0.41223255005664317  1.0000
  C   C25       1.0  0.5496418713332931  0.4977834814535458  0.3615884402826309  1.0000
  C   C26       1.0  0.9499699362907779  0.13608063452405622  0.6383117483506736  1.0000
  C   C27       1.0  0.4503617158432505  0.5022195162410628  0.6384143917722509  1.0000
  C   C28       1.0  0.05003039534721419  0.863912850921587  0.3616904860161086  1.0000
  C   C29       1.0  0.012628734999374643  0.6455185334287992  0.6691438848228299  1.0000
  C   C30       1.0  0.48770136611438647  0.9765697439330273  0.3306474293859269  1.0000
  C   C31       1.0  0.9873722836614576  0.3544844498010989  0.3308592356260505  1.0000
  C   C32       1.0  0.5122959982234861  0.0234342734783084  0.6693544822798712  1.0000
  N   N1        1.0  0.5095446844205256  0.4514916172227147  0.4459420400265301  1.0000
  N   N2        1.0  0.9900056203506935  0.005370930578351403  0.5538343018988383  1.0000
  N   N3        1.0  0.4904621643812917  0.5485145636857711  0.5540637675894614  1.0000
  N   N4        1.0  0.010009160057762832  0.9946236917084407  0.4461750477614145  1.0000
  O   O1        1.0  0.5239058026688569  0.1471132722813238  0.12300190863654589  1.0000
  O   O2        1.0  0.9759421788128365  0.023790944144352007  0.87676196103105  1.0000
  O   O3        1.0  0.4761026256575534  0.8529003019453969  0.8770083545641612  1.0000
  O   O4        1.0  0.02405953871751632  0.976197274204751  0.12323224660885058  1.0000
  O   O5        1.0  0.28477593326954326  0.21844627677754158  0.16579588909502257  1.0000
  O   O6        1.0  0.2148787706335611  0.05211491569394871  0.833762506534178  1.0000
  O   O7        1.0  0.7152193704370621  0.7815608928081094  0.8341940606680465  1.0000
  O   O8        1.0  0.7851245572922352  0.9478806963250791  0.16623874239907366  1.0000
  O   O9        1.0  0.01231096777473793  0.6937116980167773  0.8067674340858911  1.0000
  O   O10       1.0  0.4879416509122834  0.8868964613781075  0.19303199958577716  1.0000
  O   O11       1.0  0.9876934810327074  0.3062891948601135  0.19323638176295074  1.0000
  O   O12       1.0  0.512055464465128  0.11310017047488692  0.8069691908612736  1.0000
