data_image0
_chemical_formula_structural       MnCuH16C12N16
_chemical_formula_sum              "Mn1 Cu1 H16 C12 N16"
_cell_length_a       7.079146684889865
_cell_length_b       7.676272663338873
_cell_length_c       10.493653688344976
_cell_angle_alpha    97.47323321701037
_cell_angle_beta     102.6117550391085
_cell_angle_gamma    115.91474141588515

_space_group_name_H-M_alt    "P 1"
_space_group_IT_number       1

loop_
  _space_group_symop_operation_xyz
  'x, y, z'

loop_
  _atom_site_type_symbol
  _atom_site_label
  _atom_site_symmetry_multiplicity
  _atom_site_fract_x
  _atom_site_fract_y
  _atom_site_fract_z
  _atom_site_occupancy
  Mn  Mn1       1.0  1.4153799767560047e-06  0.5000022645695595  0.9999989158273266  1.0000
  Cu  Cu1       1.0  0.5000037118955801  0.5000021592260353  0.50000058611284  1.0000
  H   H1        1.0  0.1838702519206308  0.3777970789242603  0.2804185433972037  1.0000
  H   H2        1.0  0.81613044326474  0.622202768415953  0.719582179699799  1.0000
  H   H3        1.0  0.10735499775904599  0.21412791367953332  0.37159162560467246  1.0000
  H   H4        1.0  0.8926458598204051  0.7858749524077101  0.6284113041422613  1.0000
  H   H5        1.0  0.7469420433930195  0.3601449319850474  0.43763794485666807  1.0000
  H   H6        1.0  0.2530601040748976  0.6398549256783497  0.562364899277064  1.0000
  H   H7        1.0  0.8166518268859873  0.5748817896891154  0.39729437415931557  1.0000
  H   H8        1.0  0.18334807255879326  0.4251165669920667  0.6027070479047012  1.0000
  H   H9        1.0  0.19549016561604296  0.10104118617960012  0.15960042327264287  1.0000
  H   H10       1.0  0.8045105411670476  0.8989586850366962  0.8404031626347076  1.0000
  H   H11       1.0  0.3232003665928643  0.0724660166678319  0.3143638109247177  1.0000
  H   H12       1.0  0.6768003440561399  0.9275338625071613  0.6856407292527464  1.0000
  H   H13       1.0  0.5212585950830685  0.43532188291274576  0.19745176655688818  1.0000
  H   H14       1.0  0.4787435523848487  0.5646779747506515  0.8025510775768367  1.0000
  H   H15       1.0  0.6072802802261845  0.2517694607802241  0.20106892886026628  1.0000
  H   H16       1.0  0.39271962308450975  0.748228903859655  0.7989334474738641  1.0000
  C   C1        1.0  0.39239268579327546  0.7434794012553141  0.2952747573312493  1.0000
  C   C2        1.0  0.6076057691007718  0.2565189610200775  0.7047264522362722  1.0000
  C   C3        1.0  0.7268865203870049  0.009363247497724096  0.4335310659012706  1.0000
  C   C4        1.0  0.2731119229093223  0.9906350909015842  0.5664672808558961  1.0000
  C   C5        1.0  0.7834066323931876  0.06554430434336922  0.08681237038152288  1.0000
  C   C6        1.0  0.2165935647783995  0.934460034121024  0.9131867850915469  1.0000
  C   C7        1.0  0.7655208489794203  0.7585754928767018  0.0854783715529592  1.0000
  C   C8        1.0  0.23448447371904985  0.24143031150541114  0.914519768172468  1.0000
  C   C9        1.0  0.3124353029278452  0.18364913940263253  0.26135650189393533  1.0000
  C   C10       1.0  0.687564755045109  0.8163522280668973  0.738646172549899  1.0000
  C   C11       1.0  0.5370311510472019  0.32925263937992355  0.2540487399151131  1.0000
  C   C12       1.0  0.462968756129392  0.6707457332186594  0.7459545906891307  1.0000
  N   N1        1.0  0.22559903005949872  0.6423835141293495  0.20676980521188426  1.0000
  N   N2        1.0  0.7743928354274061  0.35761334802905514  0.7932274362561955  1.0000
  N   N3        1.0  0.5641914849147652  0.8289751695874727  0.4015198663820456  1.0000
  N   N4        1.0  0.4358023115389286  0.17101717197646596  0.5984762923961142  1.0000
  N   N5        1.0  0.8819943042808589  0.17162034677554772  0.4752107374366687  1.0000
  N   N6        1.0  0.11799805148801565  0.8283720083412903  0.5247861631151096  1.0000
  N   N7        1.0  0.8246484328220234  0.21929767461922006  0.0582780603432909  1.0000
  N   N8        1.0  0.175351752751844  0.7807066399690897  0.9417182323194382  1.0000
  N   N9        1.0  0.7337255349693946  0.9056876806512337  0.1297850531416529  1.0000
  N   N10       1.0  0.2662761028870264  0.09431664426026033  0.8702133605577983  1.0000
  N   N11       1.0  0.7881310610105318  0.6176191688327608  0.052682600808395826  1.0000
  N   N12       1.0  0.21187376754006237  0.382391134632215  0.9473149255632193  1.0000
  N   N13       1.0  0.23693172310358784  0.3008667866374282  0.33925424739101107  1.0000
  N   N14       1.0  0.7630668903186403  0.699134586426304  0.660748214556321  1.0000
  N   N15       1.0  0.6829581719689202  0.4433445358219217  0.3936686507810307  1.0000
  N   N16       1.0  0.3170447751055006  0.556656820459203  0.6063344486558008  1.0000
