data_image0
_chemical_formula_structural       Cd2H36C20N8O12
_chemical_formula_sum              "Cd2 H36 C20 N8 O12"
_cell_length_a       5.021404277039916
_cell_length_b       9.899655115862414
_cell_length_c       13.611912582175098
_cell_angle_alpha    100.02581690813223
_cell_angle_beta     89.99963113008046
_cell_angle_gamma    89.99978427473094

_space_group_name_H-M_alt    "P 1"
_space_group_IT_number       1

loop_
  _space_group_symop_operation_xyz
  'x, y, z'

loop_
  _atom_site_type_symbol
  _atom_site_label
  _atom_site_symmetry_multiplicity
  _atom_site_fract_x
  _atom_site_fract_y
  _atom_site_fract_z
  _atom_site_occupancy
  Cd  Cd1       1.0  0.8954477107882965  0.24648429665533914  0.004757680877425204  1.0000
  Cd  Cd2       1.0  0.39544343628188733  0.753517945267582  0.9952404237307206  1.0000
  H   H1        1.0  0.07238564416794452  0.7655455418815008  0.16848912868769617  1.0000
  H   H2        1.0  0.5724093470755066  0.23446159335712474  0.8315118302746427  1.0000
  H   H3        1.0  0.011065405266983002  0.6257565818402425  0.0879043232694059  1.0000
  H   H4        1.0  0.511076645492537  0.37424762640941367  0.9120964074480824  1.0000
  H   H5        1.0  0.28040629796162625  0.11931687210189781  0.0970666577579138  1.0000
  H   H6        1.0  0.780399809877011  0.8806825701682327  0.9029343000890292  1.0000
  H   H7        1.0  0.20633013737559483  0.25474776765025803  0.1809350310172348  1.0000
  H   H8        1.0  0.7063520674821789  0.7452508315692584  0.8190652594216701  1.0000
  H   H9        1.0  0.9317734532324876  0.24537179745715323  0.3173326300301227  1.0000
  H   H10       1.0  0.4317666939833131  0.7546221434611339  0.6826680047752234  1.0000
  H   H11       1.0  0.6633014693184762  0.2472976502178739  0.2341182357858287  1.0000
  H   H12       1.0  0.1632992379686371  0.752701052360095  0.7658836386085994  1.0000
  H   H13       1.0  0.11456273934875581  0.13175594641010246  0.4896422158620268  1.0000
  H   H14       1.0  0.614563243149057  0.8682408241025638  0.510359527339638  1.0000
  H   H15       1.0  0.27835280151504804  0.9830098600447953  0.42651427267728786  1.0000
  H   H16       1.0  0.7783409109027489  0.0169916421761869  0.5734847484677132  1.0000
  H   H17       1.0  0.5355230107691541  0.006017254362269901  0.2799685243410792  1.0000
  H   H18       1.0  0.0355316521698867  0.9939858670022801  0.72003274491032  1.0000
  H   H19       1.0  0.7657623896542917  0.04338422283205999  0.3767255822946041  1.0000
  H   H20       1.0  0.26576306446209236  0.9566111543496234  0.6232734229479036  1.0000
  H   H21       1.0  0.32655200340644097  0.4448141447538703  0.2645433929236205  1.0000
  H   H22       1.0  0.8265470118981212  0.555188273863294  0.7354497540875896  1.0000
  H   H23       1.0  0.022872455115248196  0.46913920881761567  0.20345882844549115  1.0000
  H   H24       1.0  0.5228765377443098  0.5308690780929837  0.7965394553882063  1.0000
  H   H25       1.0  0.9599350720320176  0.6956339869310496  0.32441104812203747  1.0000
  H   H26       1.0  0.45993393939748733  0.30436500729633303  0.6755945718854974  1.0000
  H   H27       1.0  0.9629422806304647  0.5475174690266655  0.3808687535715833  1.0000
  H   H28       1.0  0.46294098471762624  0.45247536963888985  0.6191316673249218  1.0000
  H   H29       1.0  0.6165219254941833  0.6286505851470849  0.495722213878345  1.0000
  H   H30       1.0  0.11651730504522112  0.3713359291794944  0.5042738103393418  1.0000
  H   H31       1.0  0.4469947954900349  0.484207706026588  0.4295808085869339  1.0000
  H   H32       1.0  0.947000975637806  0.5157820965475323  0.5704177938552774  1.0000
  H   H33       1.0  0.47140136348299694  0.6807666785864868  0.22337294970947139  1.0000
  H   H34       1.0  0.9714134204040262  0.319245632826636  0.776627727769899  1.0000
  H   H35       1.0  0.07452698014552081  0.015201409984705103  0.21783262379329926  1.0000
  H   H36       1.0  0.5745257842205049  0.9847964856258925  0.7821686224794746  1.0000
  C   C1        1.0  0.41922918826748656  0.1674934121315772  0.3964525555438811  1.0000
  C   C2        1.0  0.9192343084059331  0.8325118433407894  0.6035495501082835  1.0000
  C   C3        1.0  0.9537391999296786  0.0890505090458831  0.1850278647038266  1.0000
  C   C4        1.0  0.45374682135712874  0.9109454317860397  0.8149715037437275  1.0000
  C   C5        1.0  0.7529357769700199  0.0062154464375723  0.1121992161138436  1.0000
  C   C6        1.0  0.25293749045818004  0.9937779106014948  0.8877995620398735  1.0000
  C   C7        1.0  0.7929723330720294  0.1789732978920853  0.2683102592191204  1.0000
  C   C8        1.0  0.2929721609629539  0.8210250855452731  0.7316920034152261  1.0000
  C   C9        1.0  0.6320091957854147  0.09219259973827579  0.3291982328710361  1.0000
  C   C10       1.0  0.13200941639397706  0.9078061784828363  0.6708044595923822  1.0000
  C   C11       1.0  0.34003243639865843  0.6054663671505551  0.1772572110498487  1.0000
  C   C12       1.0  0.8400411047685167  0.3945442159691623  0.8227428213867255  1.0000
  C   C13       1.0  0.19118535688318158  0.5229366618964093  0.2447776665963772  1.0000
  C   C14       1.0  0.6911866017617854  0.477067109006363  0.7552196451068269  1.0000
  C   C15       1.0  0.0861776873794895  0.6115549701568739  0.3406113708806018  1.0000
  C   C16       1.0  0.5861753319851671  0.38843879367941986  0.6593893216039602  1.0000
  C   C17       1.0  0.5377410550046804  0.5174484610779757  0.10514315304342149  1.0000
  C   C18       1.0  0.037742647855076  0.48256492167670473  0.8948535409049754  1.0000
  C   C19       1.0  0.3090587218806747  0.6742602281413497  0.40847495820499086  1.0000
  C   C20       1.0  0.8090620302955573  0.3257309374412287  0.5915248777602358  1.0000
  N   N1        1.0  0.16277939638259653  0.685663088215506  0.122903907020202  1.0000
  N   N2        1.0  0.6627917184049323  0.3143427962264127  0.8770988834357212  1.0000
  N   N3        1.0  0.1243179563376628  0.17482305100363502  0.1328879559363614  1.0000
  N   N4        1.0  0.6243224875935454  0.8251695923773139  0.8671132385318073  1.0000
  N   N5        1.0  0.25950487027404995  0.0877191083135855  0.44033986271522  1.0000
  N   N6        1.0  0.7595021733112689  0.9122834648210084  0.5596600739284198  1.0000
  N   N7        1.0  0.46484181867846536  0.5885270500844085  0.4486113348641467  1.0000
  N   N8        1.0  0.9648371976280715  0.41146065382293506  0.5513891621272435  1.0000
  O   O1        1.0  0.6964639604682789  0.8861348590258942  0.125686368531845  1.0000
  O   O2        1.0  0.19648073778924416  0.1138647890958424  0.8743148134403356  1.0000
  O   O3        1.0  0.6413001240117283  0.5727327762970519  0.0363311253819703  1.0000
  O   O4        1.0  0.14130492232201422  0.42727932445573913  0.9636666303737798  1.0000
  O   O5        1.0  0.39084407787432707  0.29595239098643583  0.41005673442809615  1.0000
  O   O6        1.0  0.8908504386219391  0.704049858907126  0.589943585991037  1.0000
  O   O7        1.0  0.6407045547409072  0.06660091871005139  0.04772959987708699  1.0000
  O   O8        1.0  0.14070759820715037  0.9333988650836814  0.9522724655217515  1.0000
  O   O9        1.0  0.6017891728886154  0.4005459598054983  0.12318388429987685  1.0000
  O   O10       1.0  0.10176428182110442  0.5994734151837309  0.8768170952226201  1.0000
  O   O11       1.0  0.34872825368931604  0.8018913461691639  0.4253625466905646  1.0000
  O   O12       1.0  0.8487189135900265  0.19810075124149054  0.5746351104973186  1.0000
