data_image0
_chemical_formula_structural       La2H32C48S6N2O14
_chemical_formula_sum              "La2 H32 C48 S6 N2 O14"
_cell_length_a       8.257137095047414
_cell_length_b       14.030020375489444
_cell_length_c       14.030021998313687
_cell_angle_alpha    71.3441158326856
_cell_angle_beta     87.76652290292479
_cell_angle_gamma    87.76590225943747

_space_group_name_H-M_alt    "P 1"
_space_group_IT_number       1

loop_
  _space_group_symop_operation_xyz
  'x, y, z'

loop_
  _atom_site_type_symbol
  _atom_site_label
  _atom_site_symmetry_multiplicity
  _atom_site_fract_x
  _atom_site_fract_y
  _atom_site_fract_z
  _atom_site_occupancy
  La  La1       1.0  0.9988611361428926  0.22021182139351234  0.2513899288433663  1.0000
  La  La2       1.0  0.4988592683417038  0.2513951420859967  0.2202063537877379  1.0000
  H   H1        1.0  0.4951840632905302  0.6065506290530323  0.42890432798621  1.0000
  H   H2        1.0  0.9951767705618406  0.4289021369654192  0.606551407246073  1.0000
  H   H3        1.0  0.5708888718583508  0.3997922418678143  0.7258119086888826  1.0000
  H   H4        1.0  0.0708915117563365  0.7258104205506867  0.3997911935595013  1.0000
  H   H5        1.0  0.7319114992689465  0.7039028604879005  0.648096236095988  1.0000
  H   H6        1.0  0.23191317113395374  0.6480935627548731  0.703901895265119  1.0000
  H   H7        1.0  0.5346824103889531  0.9595538096155847  0.25073602600691913  1.0000
  H   H8        1.0  0.034679508152983395  0.25073638029345346  0.9595537461236602  1.0000
  H   H9        1.0  0.4621574667915311  0.7688332777149965  0.34196509177966306  1.0000
  H   H10       1.0  0.962158676747002  0.341963258539792  0.7688318105672849  1.0000
  H   H11       1.0  0.20933578438668118  0.20941918051859423  0.6054743135515821  1.0000
  H   H12       1.0  0.7093349488705768  0.6054715940507336  0.2094205273694101  1.0000
  H   H13       1.0  0.36930613271846363  0.3134650556242349  0.6978853904425293  1.0000
  H   H14       1.0  0.8693029031468242  0.6978866103646267  0.3134640531914529  1.0000
  H   H15       1.0  0.9599364374155286  0.5732609700019254  0.9706587738617853  1.0000
  H   H16       1.0  0.4599276631103848  0.9706595606570332  0.5732654150071779  1.0000
  H   H17       1.0  0.8756073393761169  0.6576228258588303  0.7815076404006617  1.0000
  H   H18       1.0  0.37559907016115085  0.7815086869924598  0.6576270483753106  1.0000
  H   H19       1.0  0.7997548370619897  0.1286633183814061  0.0629304508119475  1.0000
  H   H20       1.0  0.2997699576800557  0.0629465796452777  0.1286618781438662  1.0000
  H   H21       1.0  0.7816420408245434  0.9171046648390304  0.9983371973418828  1.0000
  H   H22       1.0  0.2816495579955287  0.9983341881059004  0.9171131714379469  1.0000
  H   H23       1.0  0.6712683559034858  0.026198057689150296  0.0081160190367768  1.0000
  H   H24       1.0  0.17128070207643728  0.008120147054846398  0.0262084925116355  1.0000
  H   H25       1.0  0.6424470465339949  0.9064783063005137  0.10168675163073702  1.0000
  H   H26       1.0  0.14245132057471474  0.10168727907472427  0.9064847662332057  1.0000
  H   H27       1.0  0.042544314451241405  0.9195602692567564  0.2113014901702427  1.0000
  H   H28       1.0  0.542556057821919  0.21130263294007529  0.9195499430199447  1.0000
  H   H29       1.0  0.007833578576395387  0.8454462011269541  0.13040293599470937  1.0000
  H   H30       1.0  0.5078389292306439  0.13039629998174718  0.8454470741131672  1.0000
  H   H31       1.0  0.8666121850755033  0.8448266556315928  0.23058333038166273  1.0000
  H   H32       1.0  0.3666143073296766  0.23058175910007606  0.8448191448553645  1.0000
  C   C1        1.0  0.6194239669036393  0.6659211897490634  0.5294676253780679  1.0000
  C   C2        1.0  0.11942235559005351  0.5294670900670865  0.6659208035744015  1.0000
  C   C3        1.0  0.5410666628158366  0.590625205059993  0.5043421645678876  1.0000
  C   C4        1.0  0.04106297555161121  0.5043403448345102  0.5906245245778123  1.0000
  C   C5        1.0  0.5195083788888226  0.4951219162739449  0.57507616065881  1.0000
  C   C6        1.0  0.01950806055430119  0.5750757100307168  0.4951202601704878  1.0000
  C   C7        1.0  0.581639392138179  0.4749731900244997  0.6716162203206436  1.0000
  C   C8        1.0  0.08164113530768449  0.6716148195144029  0.4749725133070228  1.0000
  C   C9        1.0  0.6589761241187587  0.5491642480972984  0.699314225644784  1.0000
  C   C10       1.0  0.15898340520329413  0.6993128679013338  0.5491614542503171  1.0000
  C   C11       1.0  0.675641631378575  0.6446596271534872  0.6273211591644596  1.0000
  C   C12       1.0  0.175646637705789  0.6273193018359676  0.6446576348889295  1.0000
  C   C13       1.0  0.6366221854462565  0.7659847765937396  0.45578230221699567  1.0000
  C   C14       1.0  0.1366217319189431  0.455779006786301  0.7659841424538386  1.0000
  C   C15       1.0  0.705424900898528  0.9445922659122701  0.3681255141958673  1.0000
  C   C16       1.0  0.20542087952868826  0.3681257179968113  0.9445936808519662  1.0000
  C   C17       1.0  0.5903813866789633  0.9103366939249182  0.31860609078211166  1.0000
  C   C18       1.0  0.09037770189613067  0.3186077574048197  0.9103388822986959  1.0000
  C   C19       1.0  0.5528105116558136  0.8087829985920576  0.3674073674441019  1.0000
  C   C20       1.0  0.05280814410132004  0.36740584461195874  0.8087840080935251  1.0000
  C   C21       1.0  0.7747793312510325  0.04501266121121719  0.3388503799038105  1.0000
  C   C22       1.0  0.2747743994003145  0.3388544812703884  0.045013152261177004  1.0000
  C   C23       1.0  0.43123864950276664  0.41823757474600837  0.5503194576066122  1.0000
  C   C24       1.0  0.9312325421922409  0.550319378603433  0.41823728915722574  1.0000
  C   C25       1.0  0.2790661087265818  0.32112324528194586  0.4648162424099311  1.0000
  C   C26       1.0  0.7790617234296419  0.46481354881198206  0.3211254382698598  1.0000
  C   C27       1.0  0.27440317298607664  0.27806274270275116  0.5684999365469423  1.0000
  C   C28       1.0  0.7743973763308392  0.568496470240717  0.27806403558852827  1.0000
  C   C29       1.0  0.36205422743140037  0.3326022498400221  0.6167861927545246  1.0000
  C   C30       1.0  0.8620478542813572  0.6167859943501383  0.33260056760828144  1.0000
  C   C31       1.0  0.2021028866541243  0.2845447556408942  0.3910578336588344  1.0000
  C   C32       1.0  0.70210039313843  0.391054397266565  0.28454685862418927  1.0000
  C   C33       1.0  0.7233965662465921  0.5286525434692635  0.7996847592574953  1.0000
  C   C34       1.0  0.2233963020342742  0.7996830544839143  0.5286508493613837  1.0000
  C   C35       1.0  0.8039137436142525  0.4506521290647001  0.9778162384376686  1.0000
  C   C36       1.0  0.3039156946784233  0.9778128116824971  0.4506521046967223  1.0000
  C   C37       1.0  0.8743834904399179  0.542710925120069  0.9317824180042038  1.0000
  C   C38       1.0  0.37438403840840806  0.9317803146725011  0.542712190299703  1.0000
  C   C39       1.0  0.8284061044285237  0.5871543942743074  0.8313104596955087  1.0000
  C   C40       1.0  0.3284009374273467  0.831308818354799  0.5871558718735699  1.0000
  C   C41       1.0  0.8382334446941259  0.37921961034601287  0.07774223448921448  1.0000
  C   C42       1.0  0.33823679213504226  0.07773981234705471  0.3792198350009741  1.0000
  C   C43       1.0  0.8866235504492154  0.0711116927989721  0.10701186569468038  1.0000
  C   C44       1.0  0.38664823697330053  0.10702243640503177  0.07110978329591693  1.0000
  C   C45       1.0  0.73191140407571  0.9554508724660734  0.05078198889069811  1.0000
  C   C46       1.0  0.231920419298163  0.05078235119557208  0.9554574270426173  1.0000
  C   C47       1.0  0.9506769269858922  0.8915095102259939  0.17349230072561278  1.0000
  C   C48       1.0  0.4506833582722223  0.1734930613986592  0.8915043634555389  1.0000
  S   S1        1.0  0.767273940196077  0.8512489713544013  0.47453405810846766  1.0000
  S   S2        1.0  0.2672653841989359  0.4745336582993788  0.8512506713865163  1.0000
  S   S3        1.0  0.39036373415849823  0.4286349674735277  0.4277243756719997  1.0000
  S   S4        1.0  0.8903627709191613  0.427722829097469  0.4286352444749042  1.0000
  S   S5        1.0  0.6790754288606139  0.42047509042652814  0.8969926620086639  1.0000
  S   S6        1.0  0.179084211312265  0.8969905078426165  0.4204705847511363  1.0000
  N   N1        1.0  0.860619598725485  0.9768315898073539  0.10777739424961649  1.0000
  N   N2        1.0  0.3606320966645384  0.1077815259715607  0.9768303877733828  1.0000
  O   O1        1.0  0.7118773359814697  0.11432503453352179  0.2643795241197537  1.0000
  O   O2        1.0  0.21188074097381812  0.2643820109029846  0.11432632201054103  1.0000
  O   O3        1.0  0.8981525116344075  0.05974475620346449  0.38273131763288853  1.0000
  O   O4        1.0  0.39814134810171703  0.38273584567325264  0.05974795115430713  1.0000
  O   O5        1.0  0.08857150323891722  0.22258310148361457  0.4204626183979556  1.0000
  O   O6        1.0  0.5885708593719556  0.4204583178063289  0.22258338083219795  1.0000
  O   O7        1.0  0.24891887540439936  0.31784493896202537  0.29724537756439423  1.0000
  O   O8        1.0  0.7489252502908813  0.2972443175886568  0.31784294233415983  1.0000
  O   O9        1.0  0.9446858314491422  0.4000682550164001  0.1302919453544291  1.0000
  O   O10       1.0  0.44468309231670833  0.1302890516539961  0.400072506987371  1.0000
  O   O11       1.0  0.7653638658491956  0.29402182263996923  0.10735568814321543  1.0000
  O   O12       1.0  0.2653716037733957  0.10735362286882116  0.2940186508907913  1.0000
  O   O13       1.0  5.7715917513700994e-05  0.09277938600323668  0.1521490423081389  1.0000
  O   O14       1.0  0.5000680334442295  0.15216276283518224  0.0927720323277867  1.0000
