data_image0
_chemical_formula_structural       Co2H24C8N4Cl4O8
_chemical_formula_sum              "Co2 H24 C8 N4 Cl4 O8"
_cell_length_a       7.739760184108751
_cell_length_b       8.047407321016314
_cell_length_c       8.219508157410353
_cell_angle_alpha    89.99991704448185
_cell_angle_beta     106.2062857331612
_cell_angle_gamma    90.0002341274905

_space_group_name_H-M_alt    "P 1"
_space_group_IT_number       1

loop_
  _space_group_symop_operation_xyz
  'x, y, z'

loop_
  _atom_site_type_symbol
  _atom_site_label
  _atom_site_symmetry_multiplicity
  _atom_site_fract_x
  _atom_site_fract_y
  _atom_site_fract_z
  _atom_site_occupancy
  Co  Co1       1.0  6.843893132000007e-07  0.9999978476306102  6.928986735e-07  1.0000
  Co  Co2       1.0  0.999996982818175  0.4999986813693695  0.500001519681355  1.0000
  H   H1        1.0  0.11266944757831962  0.060056583637482716  0.33264026521492707  1.0000
  H   H2        1.0  0.8873277914202332  0.5600540743543763  0.1673600219112785  1.0000
  H   H3        1.0  0.8873289890672922  0.9399425078682884  0.6673593945675764  1.0000
  H   H4        1.0  0.1126733250755905  0.4399425318827995  0.8326415787060315  1.0000
  H   H5        1.0  0.022705948319206498  0.8839093374194251  0.31132674850412206  1.0000
  H   H6        1.0  0.9772925683963578  0.38390806537580613  0.1886782915017662  1.0000
  H   H7        1.0  0.9772965136293762  0.11608851145641813  0.6886752156931664  1.0000
  H   H8        1.0  0.022707180558945994  0.6160885408570851  0.8113253728835306  1.0000
  H   H9        1.0  0.6311103351858307  0.8855522084505197  0.13621102877292668  1.0000
  H   H10       1.0  0.3688882765988879  0.38555196721520724  0.36378430132366196  1.0000
  H   H11       1.0  0.36888948005813654  0.11445309624170362  0.8637853535665272  1.0000
  H   H12       1.0  0.6311061126509115  0.6144471242823857  0.6362154813924051  1.0000
  H   H13       1.0  0.506504021320282  0.6753289045723535  0.22670257230250712  1.0000
  H   H14       1.0  0.49349913627202824  0.17532929825290472  0.2732918508588541  1.0000
  H   H15       1.0  0.4935011867646395  0.3246739148579821  0.7732940506839443  1.0000
  H   H16       1.0  0.5064993114212725  0.8246710358900489  0.7267065952493682  1.0000
  H   H17       1.0  0.3430985103903907  0.5826044385843974  0.048611001362871824  1.0000
  H   H18       1.0  0.6569042466367705  0.08260770186409871  0.45138587829794846  1.0000
  H   H19       1.0  0.6569066755991527  0.4173958955715733  0.9513880489721276  1.0000
  H   H20       1.0  0.34309420105653027  0.9173926322788548  0.548612567810281  1.0000
  H   H21       1.0  0.2676036026456359  0.6875286442592954  0.20730459438970433  1.0000
  H   H22       1.0  0.7324009170701017  0.18753493437999688  0.2926938295376473  1.0000
  H   H23       1.0  0.732402928794137  0.31247168989909113  0.7926948195254725  1.0000
  H   H24       1.0  0.2675975195805762  0.8124666423982633  0.7073058302444653  1.0000
  C   C1        1.0  0.5049787901538849  0.9288578936390763  0.051112045962227605  1.0000
  C   C2        1.0  0.49501863084513087  0.4288530576212752  0.4488853342881428  1.0000
  C   C3        1.0  0.49502232635715154  0.07114616841555943  0.9488895546539098  1.0000
  C   C4        1.0  0.5049784382574174  0.571144791243967  0.5511163892625391  1.0000
  C   C5        1.0  0.3710957005563884  0.685799152699474  0.13952258603988812  1.0000
  C   C6        1.0  0.6289061322385338  0.18580244136265386  0.3604738975972524  1.0000
  C   C7        1.0  0.6289081510280922  0.3142011814550187  0.8604748870408658  1.0000
  C   C8        1.0  0.3710909589619291  0.8141991354131906  0.6395253986046827  1.0000
  N   N1        1.0  0.3597117701757425  0.840431613086601  0.04460184770276501  1.0000
  N   N2        1.0  0.6402866132656513  0.3404360465103693  0.4553983512749228  1.0000
  N   N3        1.0  0.6402907249159  0.1595699637007827  0.9553964754717016  1.0000
  N   N4        1.0  0.35970776494406925  0.6595655302587675  0.5446026451148286  1.0000
  Cl  Cl1       1.0  0.1651300859537557  0.26569207350851803  0.052505543925825314  1.0000
  Cl  Cl2       1.0  0.8348692826365607  0.7656939018590097  0.4475011105002766  1.0000
  Cl  Cl3       1.0  0.834870997406611  0.7343045327258438  0.9474996977137168  1.0000
  Cl  Cl4       1.0  0.16512641892546748  0.23430394700193355  0.5525026768183852  1.0000
  O   O1        1.0  0.0992793941165218  0.9572859538559655  0.26387889795557845  1.0000
  O   O2        1.0  0.900715429935289  0.4572843039730899  0.2361201735445776  1.0000
  O   O3        1.0  0.9007203879793053  0.04271313765222832  0.7361211254070882  1.0000
  O   O4        1.0  0.09928434111539271  0.5427147875341591  0.7638810634921713  1.0000
  O   O5        1.0  0.20163684450788819  0.8779308954698879  0.9424806032835635  1.0000
  O   O6        1.0  0.7983611801731314  0.37793407666787004  0.5575192987449358  1.0000
  O   O7        1.0  0.7983629817660114  0.12206695340581318  0.05751456538298779  1.0000
  O   O8        1.0  0.20163588893449  0.6220662574698609  0.4424824248053555  1.0000
