data_image0
_chemical_formula_structural       Al4H48C68O36
_chemical_formula_sum              "Al4 H48 C68 O36"
_cell_length_a       6.717103481851236
_cell_length_b       19.542733488793914
_cell_length_c       19.742594028591864
_cell_angle_alpha    98.80278553566595
_cell_angle_beta     88.6401424336977
_cell_angle_gamma    88.54695892542419

_space_group_name_H-M_alt    "P 1"
_space_group_IT_number       1

loop_
  _space_group_symop_operation_xyz
  'x, y, z'

loop_
  _atom_site_type_symbol
  _atom_site_label
  _atom_site_symmetry_multiplicity
  _atom_site_fract_x
  _atom_site_fract_y
  _atom_site_fract_z
  _atom_site_occupancy
  Al  Al1       1.0  0.8019741042405142  0.7532637979791302  0.7522194699725663  1.0000
  Al  Al2       1.0  0.20860928800057366  0.2518878965788717  0.2561918170168553  1.0000
  Al  Al3       1.0  0.3016523901434737  0.7467609687606113  0.7515313609117416  1.0000
  Al  Al4       1.0  0.7090836081286795  0.25456709610269007  0.25326790117223663  1.0000
  H   H1        1.0  0.28559178805947744  0.6547384824656249  0.9266669527364829  1.0000
  H   H2        1.0  0.659192377297714  0.39115283918373933  0.10540671450985434  1.0000
  H   H3        1.0  0.7720563132343798  0.8346684114064689  0.5674082630763453  1.0000
  H   H4        1.0  0.1700663571274603  0.1208287058729738  0.40406299189035627  1.0000
  H   H5        1.0  0.2651914389568404  0.5801018880311729  0.015727679687707084  1.0000
  H   H6        1.0  0.6991341193375789  0.4631894129035458  0.01446900297369068  1.0000
  H   H7        1.0  0.7587022212080754  0.9093977250100096  0.4778679866509777  1.0000
  H   H8        1.0  0.1996494713087884  0.040251769608403314  0.48821879851678324  1.0000
  H   H9        1.0  0.7301548573562826  0.9373323503203181  0.08353059029270331  1.0000
  H   H10       1.0  0.3268219343836734  0.05017915619620791  0.9410299345162091  1.0000
  H   H11       1.0  0.1516132243855353  0.5609324563673396  0.4624809879089754  1.0000
  H   H12       1.0  0.8646443975177363  0.44569966651293674  0.5396510495891677  1.0000
  H   H13       1.0  0.9817859140786567  0.37100646645076546  0.8967111336864095  1.0000
  H   H14       1.0  0.8770286385246775  0.38800775614940614  0.8170313478223437  1.0000
  H   H15       1.0  0.7273860678256766  0.35136802863952005  0.8782221968998204  1.0000
  H   H16       1.0  0.46713237771290034  0.5006555602858354  0.14961674906710706  1.0000
  H   H17       1.0  0.29819874903302684  0.5625673456095511  0.12166945927999252  1.0000
  H   H18       1.0  0.5504960821814606  0.5529816157100739  0.08827984478621431  1.0000
  H   H19       1.0  0.49212958282244296  0.12371483857045722  0.5945248628635725  1.0000
  H   H20       1.0  0.38815886953883444  0.11688175966581578  0.6785237063721186  1.0000
  H   H21       1.0  0.24188565243775878  0.1540606263858137  0.6173527543571  1.0000
  H   H22       1.0  0.004121403095354021  0.9973087666118514  0.3494229519035841  1.0000
  H   H23       1.0  0.842406950407039  0.9313703719108658  0.3704576849273239  1.0000
  H   H24       1.0  0.08238185696602328  0.9420386468386256  0.4087023531082041  1.0000
  H   H25       1.0  0.7353061656325579  0.5921636614806332  0.7833003640781231  1.0000
  H   H26       1.0  0.40807658333464036  0.38298961916054  0.17450391869906676  1.0000
  H   H27       1.0  0.1613869523697034  0.9155131483591459  0.7053484935993312  1.0000
  H   H28       1.0  0.92679515463535  0.10533188236196618  0.3208248400758294  1.0000
  H   H29       1.0  0.8278701007531453  0.8061913833526974  0.9308468266794281  1.0000
  H   H30       1.0  0.16960505028211503  0.19345707203721924  0.07556345172464062  1.0000
  H   H31       1.0  0.1323564057257514  0.6206376940455413  0.6100209276636692  1.0000
  H   H32       1.0  0.8814660726288608  0.3850088125030027  0.3876259558805018  1.0000
  H   H33       1.0  0.5882580579684813  0.9897023833728154  0.8889586315157206  1.0000
  H   H34       1.0  0.44860162183552893  0.03455634145142741  0.8312688916605712  1.0000
  H   H35       1.0  0.6019230427425128  0.959554868163032  0.7985701520881394  1.0000
  H   H36       1.0  0.7075306857431515  0.9400271380991114  0.19976618910141755  1.0000
  H   H37       1.0  0.5042914689474358  0.9866218137639887  0.16820301975243981  1.0000
  H   H38       1.0  0.573194900730165  0.0075086592947926035  0.25619921147306723  1.0000
  H   H39       1.0  0.12163012901260119  0.48093324561736484  0.5995798670762938  1.0000
  H   H40       1.0  0.9537577792422096  0.4417231554808509  0.6540269266907546  1.0000
  H   H41       1.0  0.12523179763829967  0.505322443006648  0.6907529660422258  1.0000
  H   H42       1.0  0.2747778637674542  0.4429086413770519  0.26656640034018153  1.0000
  H   H43       1.0  0.20703566317354924  0.533019836415143  0.2926903928512915  1.0000
  H   H44       1.0  0.020485058883508597  0.4712975782293114  0.26473470320389236  1.0000
  H   H45       1.0  0.5338921794907563  0.7840599632201234  0.8384228736654863  1.0000
  H   H46       1.0  0.46500878010238006  0.25486210132743986  0.16426995642322592  1.0000
  H   H47       1.0  0.05938090494834819  0.7569358002819228  0.6626495297878139  1.0000
  H   H48       1.0  0.952042199448364  0.2428682258043438  0.3423627201691205  1.0000
  C   C1        1.0  0.5784900627809787  0.6507414374466266  0.6634239217554099  1.0000
  C   C2        1.0  0.4371923574550252  0.3552587923448627  0.34163770448586933  1.0000
  C   C3        1.0  0.04056996985344339  0.8442269464922701  0.8458282437118572  1.0000
  C   C4        1.0  0.9785950872640683  0.15375397163097657  0.16668686788502643  1.0000
  C   C5        1.0  0.5377549021357098  0.8372835745149844  0.6771201013728787  1.0000
  C   C6        1.0  0.46769890438282863  0.1682944013522274  0.3307654425700549  1.0000
  C   C7        1.0  0.05446140059461158  0.6604721473814833  0.8225872213105208  1.0000
  C   C8        1.0  0.9513608719079869  0.33603920242620683  0.17502565152872054  1.0000
  C   C9        1.0  0.9088712093408943  0.505997137253516  0.9108537732819785  1.0000
  C   C10       1.0  0.18249975747129102  0.4493599452769387  0.058000728486312894  1.0000
  C   C11       1.0  0.4044180178322847  0.9932344004066845  0.5888432224584295  1.0000
  C   C12       1.0  0.687006832449704  0.04309509833114331  0.4382839231686192  1.0000
  C   C13       1.0  0.9091655322047173  0.5520603240596955  0.8620724956428704  1.0000
  C   C14       1.0  0.1613434764056692  0.4006819205750744  0.10278813457074425  1.0000
  C   C15       1.0  0.39758431808414935  0.9467919969185772  0.6369940075753677  1.0000
  C   C16       1.0  0.6694345290587477  0.0920051482325377  0.3935342828193528  1.0000
  C   C17       1.0  0.044887587941005294  0.6066919639666679  0.869166593193967  1.0000
  C   C18       1.0  0.9705148973642039  0.3822509124386357  0.12243234019219787  1.0000
  C   C19       1.0  0.5316979979797835  0.8889954037291189  0.6285422078282963  1.0000
  C   C20       1.0  0.4810172260764459  0.11793747670698448  0.3795583644091637  1.0000
  C   C21       1.0  0.1777750965072187  0.61366844074729  0.9228765005249432  1.0000
  C   C22       1.0  0.8052977690813563  0.40738096076796637  0.09161625892839001  1.0000
  C   C23       1.0  0.6664107366840923  0.8784858191068138  0.5726274654577993  1.0000
  C   C24       1.0  0.3130207471068545  0.09766331491689328  0.4130724012839694  1.0000
  C   C25       1.0  0.16765530103151596  0.5704985493384668  0.9725233586262194  1.0000
  C   C26       1.0  0.8291887720822544  0.44845390486107556  0.040944090106677315  1.0000
  C   C27       1.0  0.6608796465868068  0.921618917121563  0.5228982032802209  1.0000
  C   C28       1.0  0.3320645313336995  0.05299887040253991  0.4607551880958099  1.0000
  C   C29       1.0  0.03336157515824569  0.5161214887761146  0.9686416382449966  1.0000
  C   C30       1.0  0.017303667753573403  0.4713739540761778  0.022729676723251692  1.0000
  C   C31       1.0  0.5304113774481676  0.9796757620411968  0.5290776159127619  1.0000
  C   C32       1.0  0.5183948317947936  0.024824556841601005  0.4753587421987931  1.0000
  C   C33       1.0  0.0575180388810281  0.9035832565378782  0.903064779546604  1.0000
  C   C34       1.0  0.9773500220181148  0.08987953101690492  0.11360665044306023  1.0000
  C   C35       1.0  0.5846654120530131  0.5897120131559531  0.6083316141208928  1.0000
  C   C36       1.0  0.43728085957425117  0.4189300324421907  0.3942528084338691  1.0000
  C   C37       1.0  0.8327463437121664  0.9778303490564182  0.07621049483607584  1.0000
  C   C38       1.0  0.2178212029507023  0.0110236765556806  0.945981036057191  1.0000
  C   C39       1.0  0.2746406473989325  0.5229375359787414  0.45798380814618894  1.0000
  C   C40       1.0  0.7463076978487634  0.48520948733944635  0.5453221223805614  1.0000
  C   C41       1.0  0.8531576448135565  0.03505510569276281  0.12606157473032203  1.0000
  C   C42       1.0  0.21111981591439388  0.9516079749326493  0.8978191461973924  1.0000
  C   C43       1.0  0.27668547975611096  0.46954982090078795  0.40355857325182853  1.0000
  C   C44       1.0  0.7452875326586079  0.5389204074597915  0.5998145874549438  1.0000
  C   C45       1.0  0.09482068844038588  0.08367701521042652  0.053717091118549824  1.0000
  C   C46       1.0  0.929109103212987  0.9117027526680203  0.9610436575164488  1.0000
  C   C47       1.0  0.5945489729896066  0.4256733114572527  0.4394902666502461  1.0000
  C   C48       1.0  0.42828503494674647  0.58355292588832  0.563061682181683  1.0000
  C   C49       1.0  0.08736685491717108  0.022047565557222995  0.0037637761534128006  1.0000
  C   C50       1.0  0.9454423361854651  0.970508427539478  0.013893743802533675  1.0000
  C   C51       1.0  0.5923810842242644  0.47963321950616944  0.49714116845632367  1.0000
  C   C52       1.0  0.42875228141618743  0.5291958258258163  0.5060860926979559  1.0000
  C   C53       1.0  0.8471329220841922  0.38701818709159136  0.8718101242230746  1.0000
  C   C54       1.0  0.42311150351166293  0.5255954528715703  0.10562439471407711  1.0000
  C   C55       1.0  0.3564180865353776  0.1149101096783554  0.6239230974079037  1.0000
  C   C56       1.0  0.9538202837700424  0.9691008975658163  0.39065138657724685  1.0000
  C   C57       1.0  0.7700030038694906  0.5436789941431852  0.8037410283891122  1.0000
  C   C58       1.0  0.3394094207989938  0.36260359867031877  0.12493739291161184  1.0000
  C   C59       1.0  0.24559014861108608  0.9609533261835068  0.6947736471269439  1.0000
  C   C60       1.0  0.8476050388632643  0.1274505918828481  0.3697227395742574  1.0000
  C   C61       1.0  0.7936495251479343  0.854351609344647  0.9676431163604282  1.0000
  C   C62       1.0  0.21612177365194898  0.1438815791503174  0.042766652907360515  1.0000
  C   C63       1.0  0.2504001555880819  0.6335689849790781  0.574077498060497  1.0000
  C   C64       1.0  0.7751160553553404  0.37688988161563947  0.42926015640743753  1.0000
  C   C65       1.0  0.5045929765954114  0.9838076428421656  0.8412627625344131  1.0000
  C   C66       1.0  0.6292622571908664  0.9907967140411245  0.20354795398443315  1.0000
  C   C67       1.0  0.02987619426532009  0.489462760477288  0.647213945416077  1.0000
  C   C68       1.0  0.1595724992564342  0.4793587910763861  0.29239199853388004  1.0000
  O   O1        1.0  0.37172826664451003  0.8203202949303899  0.7010761989829393  1.0000
  O   O2        1.0  0.633148714196345  0.18185399758532841  0.30290558819098834  1.0000
  O   O3        1.0  0.8935425445804128  0.693888345084993  0.8148513119624285  1.0000
  O   O4        1.0  0.11554143908765718  0.30949957193352157  0.19201407318363556  1.0000
  O   O5        1.0  0.7392555053818483  0.6725702793854964  0.6897574082913567  1.0000
  O   O6        1.0  0.2720890608822728  0.33438953333180166  0.3176621166485988  1.0000
  O   O7        1.0  0.19983619447570788  0.8084662044813271  0.8297270861195261  1.0000
  O   O8        1.0  0.8133917818378791  0.18682909837676925  0.17881698157358986  1.0000
  O   O9        1.0  0.7092040482763265  0.8127665616074607  0.6891098059037974  1.0000
  O   O10       1.0  0.2987404992051168  0.1942767918320172  0.31965074833522084  1.0000
  O   O11       1.0  0.22526572541440257  0.6710510058649746  0.797806791584428  1.0000
  O   O12       1.0  0.7805056674060464  0.326169431923816  0.20008401400343706  1.0000
  O   O13       1.0  0.8726335686221345  0.8340487848738078  0.8175060284004163  1.0000
  O   O14       1.0  0.14413780538392726  0.16921009554752686  0.19429063965712604  1.0000
  O   O15       1.0  0.40577532757138357  0.6789190458190716  0.6789551381876751  1.0000
  O   O16       1.0  0.6065374307652363  0.32470150517135465  0.3262864333449472  1.0000
  O   O17       1.0  0.5487541377650801  0.7543388452226268  0.7943336130438114  1.0000
  O   O18       1.0  0.4605050928510864  0.2505242727940741  0.21294503718873167  1.0000
  O   O19       1.0  0.054719912836894494  0.7488225869734038  0.7099362751301472  1.0000
  O   O20       1.0  0.9538209226789504  0.2566851164495603  0.2966049766810884  1.0000
  O   O21       1.0  0.7742795692594483  0.45424780558620625  0.9045795756459899  1.0000
  O   O22       1.0  0.36945260004152664  0.4751042886659675  0.04834585296507043  1.0000
  O   O23       1.0  0.2735752569817008  0.0489577966290042  0.5981404515334675  1.0000
  O   O24       1.0  0.8729637884253664  0.015425877453765202  0.4490311988497668  1.0000
  O   O25       1.0  0.6979358058856916  0.48893872399320765  0.778312246155821  1.0000
  O   O26       1.0  0.41435151337612547  0.31244891686883147  0.08708521351946531  1.0000
  O   O27       1.0  0.21275458444814171  0.0183441179740669  0.7282973884307824  1.0000
  O   O28       1.0  0.9092635109596756  0.17783655015046657  0.40750530612176317  1.0000
  O   O29       1.0  0.6553947070101529  0.8546949530963629  0.009853505041221036  1.0000
  O   O30       1.0  0.3553870849931825  0.1434334309608545  0.0013112337172529046  1.0000
  O   O31       1.0  0.2272365995482346  0.6817341607197703  0.5416099286209289  1.0000
  O   O32       1.0  0.8118228295779204  0.3356858976197685  0.4684799675296107  1.0000
  O   O33       1.0  0.34408808169597893  0.9370184269111943  0.8444912486206564  1.0000
  O   O34       1.0  0.7622554570756036  0.0431196508115193  0.18939805573322135  1.0000
  O   O35       1.0  0.8879141963270809  0.545733086453943  0.6477287350135372  1.0000
  O   O36       1.0  0.11671848001261509  0.46728820302363516  0.36089100254589124  1.0000
