data_image0
_chemical_formula_structural       Cr2H10C16O10
_chemical_formula_sum              "Cr2 H10 C16 O10"
_cell_length_a       6.896348362532893
_cell_length_b       11.23727786398246
_cell_length_c       11.237315210721794
_cell_angle_alpha    70.2467124113326
_cell_angle_beta     72.14072080858745
_cell_angle_gamma    72.14111411057542

_space_group_name_H-M_alt    "P 1"
_space_group_IT_number       1

loop_
  _space_group_symop_operation_xyz
  'x, y, z'

loop_
  _atom_site_type_symbol
  _atom_site_label
  _atom_site_symmetry_multiplicity
  _atom_site_fract_x
  _atom_site_fract_y
  _atom_site_fract_z
  _atom_site_occupancy
  Cr  Cr1       1.0  0.49999345967466263  0.5000120279637559  1.8886290547483688e-05  1.0000
  Cr  Cr2       1.0  3.0361345594110573e-05  0.49992709692183024  1.3525825828246671e-05  1.0000
  H   H1        1.0  0.628022425761557  0.11625697862299937  0.005100535484245917  1.0000
  H   H2        1.0  0.8719633101541433  0.4949016016079498  0.3837387455447398  1.0000
  H   H3        1.0  0.7504074122481157  0.5052408850033602  0.6163777921863697  1.0000
  H   H4        1.0  0.7495853537589239  0.8836183367395307  0.9947604856489035  1.0000
  H   H5        1.0  0.37197756052344727  0.8837538148709287  0.9948647772212879  1.0000
  H   H6        1.0  0.1280062397158444  0.5051417713123032  0.6162501159093523  1.0000
  H   H7        1.0  0.2495960925127889  0.49480535905562556  0.3836135512548965  1.0000
  H   H8        1.0  0.25039089694941197  0.116386673055672  0.0052031590362204925  1.0000
  H   H9        1.0  0.24999667557906946  0.35524795421559213  0.14482834052306973  1.0000
  H   H10       1.0  0.7499754377000231  0.6448247662663747  0.8552821696256245  1.0000
  C   C1        1.0  0.7096471451643894  0.4970035834411419  0.4359073476802279  1.0000
  C   C2        1.0  0.7903406473904652  0.06408934669181582  0.002997164026993464  1.0000
  C   C3        1.0  0.85756847254185  0.9358691246182644  0.996865873617523  1.0000
  C   C4        1.0  0.6424263600972182  0.5031351344114725  0.5641297461340783  1.0000
  C   C5        1.0  0.29033124787923004  0.5030447056412656  0.5640755794087227  1.0000
  C   C6        1.0  0.2096603906200655  0.9359186647374359  0.9969590703945881  1.0000
  C   C7        1.0  0.14242161139298296  0.06414379992909151  0.003084581542488296  1.0000
  C   C8        1.0  0.3575708282488749  0.49691995659421184  0.4358509934406102  1.0000
  C   C9        1.0  0.567661665496928  0.4937052633927763  0.37108649335146277  1.0000
  C   C10       1.0  0.6393631980534665  0.4883101672596198  0.23307030338445858  1.0000
  C   C11       1.0  0.9323388799987596  0.12890360451693544  0.006297306733607344  1.0000
  C   C12       1.0  0.8606097706905089  0.2669189005689603  0.0116904701508034  1.0000
  C   C13       1.0  0.06764742778629777  0.8710907310765851  0.9936688271885641  1.0000
  C   C14       1.0  0.13938293180974884  0.7330172361630646  0.9882872409756658  1.0000
  C   C15       1.0  0.43233296883811073  0.506336182759462  0.6289018513597211  1.0000
  C   C16       1.0  0.3606266076816026  0.5117112423291772  0.7669699886388841  1.0000
  O   O1        1.0  0.5015791085127715  0.48600073176462644  0.18023762636106974  1.0000
  O   O2        1.0  0.9984439429716048  0.31971288703142153  0.014019424256893825  1.0000
  O   O3        1.0  0.3322873994560354  0.6801921585748262  0.9859763518476256  1.0000
  O   O4        1.0  0.1677169477297653  0.5139923296011304  0.8198169499695284  1.0000
  O   O5        1.0  0.4983573396882617  0.5140287897864297  0.8198474045517515  1.0000
  O   O6        1.0  0.0016470953094511452  0.6801184097648376  0.9859856472169  1.0000
  O   O7        1.0  0.6677205819976991  0.3197970071971171  0.014014993196070632  1.0000
  O   O8        1.0  0.8322863100718721  0.4859642396445665  0.1802250847725019  1.0000
  O   O9        1.0  0.7500422429013724  0.5697606114811296  0.9301993307531902  1.0000
  O   O10       1.0  0.25004279272531693  0.4302015919697198  0.06978280451060212  1.0000
