data_image0
_chemical_formula_structural       Zn8H68C100N32O20
_chemical_formula_sum              "Zn8 H68 C100 N32 O20"
_cell_length_a       15.407246081940755
_cell_length_b       14.563863039480959
_cell_length_c       23.668413052127523
_cell_angle_alpha    86.74025597589845
_cell_angle_beta     86.7597470031489
_cell_angle_gamma    78.01994060161906

_space_group_name_H-M_alt    "P 1"
_space_group_IT_number       1

loop_
  _space_group_symop_operation_xyz
  'x, y, z'

loop_
  _atom_site_type_symbol
  _atom_site_label
  _atom_site_symmetry_multiplicity
  _atom_site_fract_x
  _atom_site_fract_y
  _atom_site_fract_z
  _atom_site_occupancy
  Zn  Zn1       1.0  0.5554773941130904  0.5391309509384429  0.4437911272223333  1.0000
  Zn  Zn2       1.0  0.3866007669642428  0.4439682035819246  0.4064865662494342  1.0000
  Zn  Zn3       1.0  0.0721026092117825  0.05173372056155761  0.9431205129749004  1.0000
  Zn  Zn4       1.0  0.8996729899401713  0.9636612235892345  0.90509358575018  1.0000
  Zn  Zn5       1.0  0.3747452965643845  0.44882829339717034  0.5320510222947947  1.0000
  Zn  Zn6       1.0  0.5760086357329541  0.543721694681544  0.5838028684181893  1.0000
  Zn  Zn7       1.0  0.8851683984673283  0.9672911983834711  0.029798598154634714  1.0000
  Zn  Zn8       1.0  0.08628075183654718  0.055134819755942  0.08432955404803981  1.0000
  H   H1        1.0  0.43782425465445135  0.7428004026711577  0.426856785322876  1.0000
  H   H2        1.0  0.4462443427257624  0.3975985974607427  0.2792475645171706  1.0000
  H   H3        1.0  0.9632195538398276  0.25844655204082306  0.9276057409368549  1.0000
  H   H4        1.0  0.9582353505196435  0.9115074888117078  0.7804661403639559  1.0000
  H   H5        1.0  0.7408301204041833  0.4489302221400138  0.23396080381390766  1.0000
  H   H6        1.0  0.1313011248220306  0.7140477388727717  0.39930454007971156  1.0000
  H   H7        1.0  0.26281069419959374  0.9351092994645354  0.7386119642931918  1.0000
  H   H8        1.0  0.6437394324077343  0.28243526625705334  0.9240967146194806  1.0000
  H   H9        1.0  0.8979263396770704  0.3350081879985397  0.5835757798148151  1.0000
  H   H10       1.0  0.05517643049915219  0.33827511297297974  0.5710023888605775  1.0000
  H   H11       1.0  0.41933875474703086  0.8121409603032818  0.0732280005654857  1.0000
  H   H12       1.0  0.5768254182293404  0.8209625243575616  0.059163405450803515  1.0000
  H   H13       1.0  0.03795284071906479  0.33852425560721144  0.389801774244667  1.0000
  H   H14       1.0  0.8801781132729546  0.33424246982261263  0.4023774513430497  1.0000
  H   H15       1.0  0.5344106665888901  0.9150327885709404  0.8851327652852137  1.0000
  H   H16       1.0  0.3777870239025489  0.9046074190904462  0.8988286105536716  1.0000
  H   H17       1.0  0.1812710078299062  0.38537057278088593  0.5627045072088565  1.0000
  H   H18       1.0  0.7473390887066244  0.38904404639191636  0.594510469097891  1.0000
  H   H19       1.0  0.6830463615893123  0.9171455123066392  0.05754194149728419  1.0000
  H   H20       1.0  0.265297142322737  0.9129334249731043  0.09040522411751081  1.0000
  H   H21       1.0  0.4450238799160147  0.7154986841083827  0.6204454372845731  1.0000
  H   H22       1.0  0.5148935227032608  0.3739681671233655  0.7563927965546285  1.0000
  H   H23       1.0  0.9487846395329244  0.22949060664917204  0.12483151693697181  1.0000
  H   H24       1.0  0.06050446997507918  0.8109898865462738  0.22134156506756852  1.0000
  H   H25       1.0  0.22311404216445396  0.591850740046489  0.44887338212960526  1.0000
  H   H26       1.0  0.6770007935487569  0.4881075894002507  0.3330684236549928  1.0000
  H   H27       1.0  0.7401514462449795  0.1194288595260744  0.9451542854836746  1.0000
  H   H28       1.0  0.19576446268924017  0.9891138749795516  0.8334766296989714  1.0000
  H   H29       1.0  0.5200791050879301  0.9105514514300455  0.4160265212164518  1.0000
  H   H30       1.0  0.4840531359726016  0.08055822625969708  0.41322332371205317  1.0000
  H   H31       1.0  0.026770067688808297  0.41876359712462374  0.9184910526212775  1.0000
  H   H32       1.0  0.9861691283824142  0.5888112563237867  0.9150590417634564  1.0000
  H   H33       1.0  0.7535500661457347  0.14935017536614484  0.5291185525469262  1.0000
  H   H34       1.0  0.7425186250855518  0.8723498568974932  0.6374679081521679  1.0000
  H   H35       1.0  0.2700809792087924  0.6585494716846583  0.0702556166499093  1.0000
  H   H36       1.0  0.2517839612015891  0.38550350008656403  0.13730239039416867  1.0000
  H   H37       1.0  0.6385596767820515  0.04263287889159529  0.6386722625607604  1.0000
  H   H38       1.0  0.8327442300454422  0.9493905892658744  0.5406333164780294  1.0000
  H   H39       1.0  0.14691167406528652  0.5576674107488131  0.1407390610052488  1.0000
  H   H40       1.0  0.3367356480989868  0.4732369583443727  0.04447584320385541  1.0000
  H   H41       1.0  0.3585149029569548  0.8181322183351867  0.6798368227159131  1.0000
  H   H42       1.0  0.5617619582386765  0.3792606649341365  0.8484393158311861  1.0000
  H   H43       1.0  0.8460780170771188  0.33790560638805545  0.1761732049305422  1.0000
  H   H44       1.0  0.05579162669118175  0.8121673856443651  0.32208294808175003  1.0000
  H   H45       1.0  0.5625366717681571  0.256033414605831  0.24985646648453044  1.0000
  H   H46       1.0  0.3440851206233189  0.8664792755575946  0.3803118839559119  1.0000
  H   H47       1.0  0.06205410929634776  0.7675865300399566  0.7502122568662842  1.0000
  H   H48       1.0  0.8882538655569903  0.34402497051552666  0.8494616475763692  1.0000
  H   H49       1.0  0.15626721401174842  0.6521620076090787  0.6891247088423428  1.0000
  H   H50       1.0  0.807972287773225  0.43627793214454863  0.7731011148441455  1.0000
  H   H51       1.0  0.6662516262188731  0.14602320858268314  0.19034799585938342  1.0000
  H   H52       1.0  0.2717690009552313  0.9598082013123489  0.3010591739814288  1.0000
  H   H53       1.0  0.2638274297551746  0.4595057541397125  0.6471960760045192  1.0000
  H   H54       1.0  0.7438035722437276  0.5570818358243699  0.7329957760540681  1.0000
  H   H55       1.0  0.7770988167453863  0.9641174952056134  0.1410327902991355  1.0000
  H   H56       1.0  0.18087254761763924  0.07851334873416958  0.2640467748005478  1.0000
  H   H57       1.0  0.18909935692688862  0.37273755110742707  0.38012601798240553  1.0000
  H   H58       1.0  0.7238044272395  0.38023927290073095  0.41329924926828454  1.0000
  H   H59       1.0  0.7010340611763581  0.9006202025208482  0.8751007968608351  1.0000
  H   H60       1.0  0.22898476961420744  0.8838341482664377  0.9125716773182194  1.0000
  H   H61       1.0  0.6345034990134266  0.8105920935151121  0.6026895451098042  1.0000
  H   H62       1.0  0.5585750143659424  0.18632958382303136  0.5923580299728785  1.0000
  H   H63       1.0  0.1399729942731796  0.324610592126973  0.1048231566478393  1.0000
  H   H64       1.0  0.058726154948750754  0.7024537379879946  0.09267598565986651  1.0000
  H   H65       1.0  0.6038984396070289  0.6924883596319235  0.3733669545837302  1.0000
  H   H66       1.0  0.563562589601837  0.17846068714164431  0.37277636001264375  1.0000
  H   H67       1.0  0.1310228603971737  0.20007216493590363  0.8750988359154309  1.0000
  H   H68       1.0  0.0663502115118177  0.6877908274743872  0.8730768685570497  1.0000
  C   C1        1.0  0.3948802875315849  0.6929612688578786  0.4361599805884994  1.0000
  C   C2        1.0  0.49412397546357295  0.42850044780606567  0.2995128904892256  1.0000
  C   C3        1.0  0.9179310870517909  0.21071419740160022  0.9356240629196365  1.0000
  C   C4        1.0  0.008159845916544797  0.9398502251892397  0.800360508181825  1.0000
  C   C5        1.0  0.322253590730611  0.6569742982153456  0.6439323047400125  1.0000
  C   C6        1.0  0.6302529302683836  0.4483924120142433  0.7519712162433692  1.0000
  C   C7        1.0  0.827688990354062  0.1660346361792904  0.14490088014857613  1.0000
  C   C8        1.0  0.12568760138228183  0.9262406529256921  0.24787824158131144  1.0000
  C   C9        1.0  0.14783158175744396  0.36451184234964984  0.4732317417769354  1.0000
  C   C10       1.0  0.7775213874686743  0.3631351656008021  0.5011484315443512  1.0000
  C   C11       1.0  0.655432743473689  0.8943224700881984  0.9674241275350612  1.0000
  C   C12       1.0  0.2889266490337832  0.8795946577973552  0.997772806036501  1.0000
  C   C13       1.0  0.6161145166556635  0.7910113450923789  0.4914393154378375  1.0000
  C   C14       1.0  0.5404773709332034  0.20029449243896383  0.47980824395041577  1.0000
  C   C15       1.0  0.12784192716685538  0.30261002926043556  0.9934414592725462  1.0000
  C   C16       1.0  0.04109720426362167  0.7119821804581861  0.979821103267085  1.0000
  C   C17       1.0  0.6469795170412453  0.9460375357282588  0.5198992669338764  1.0000
  C   C18       1.0  0.6289524423796138  0.044117781548003214  0.5165686015723239  1.0000
  C   C19       1.0  0.15228687119233086  0.46003357873642164  0.0216103957481337  1.0000
  C   C20       1.0  0.13133523023229535  0.5581039099476683  0.018214143706686097  1.0000
  C   C21       1.0  0.6083301562970149  0.8919124173193398  0.4853994683128065  1.0000
  C   C22       1.0  0.5696047750933956  0.0988185297410666  0.47963515240846283  1.0000
  C   C23       1.0  0.11589901660762786  0.40400002082136416  0.9871948769016542  1.0000
  C   C24       1.0  0.07116366765993826  0.6106963115408776  0.9808274931129547  1.0000
  C   C25       1.0  0.5527839560261824  0.9466851492309731  0.4449165216650999  1.0000
  C   C26       1.0  0.5336409083587839  0.04460769075220129  0.4425780029592873  1.0000
  C   C27       1.0  0.05856872001634627  0.45655851457036084  0.9469919475519719  1.0000
  C   C28       1.0  0.03660601034241743  0.5545311351147293  0.9443312733582446  1.0000
  C   C29       1.0  0.6913587490873212  0.052337697950790095  0.5624079251038198  1.0000
  C   C30       1.0  0.7140012191359728  0.939715833398502  0.5655980493163071  1.0000
  C   C31       1.0  0.1939497009080426  0.5685733323109545  0.063450192366254  1.0000
  C   C32       1.0  0.2196565888247406  0.45577008760542975  0.06670279015842343  1.0000
  C   C33       1.0  0.2930696459965532  0.8067063313411893  0.6945453935388742  1.0000
  C   C34       1.0  0.6337394630445486  0.371063087655159  0.8482978517136531  1.0000
  C   C35       1.0  0.7838513456012138  0.31920706785661684  0.19200527283413754  1.0000
  C   C36       1.0  0.11971364221628993  0.8236019390027352  0.33447723029809856  1.0000
  C   C37       1.0  0.7243910233474367  0.3820741058765478  0.22480219510924834  1.0000
  C   C38       1.0  0.16244375262463961  0.768585074578539  0.3784678874193688  1.0000
  C   C39       1.0  0.2390641095247119  0.8728444318138529  0.7281144492250747  1.0000
  C   C40       1.0  0.6802212271628321  0.316524575383511  0.891175659550726  1.0000
  C   C41       1.0  0.6433962300122928  0.36111769236674723  0.24631060411064004  1.0000
  C   C42       1.0  0.24677684409144252  0.7784055406277518  0.39425693607569207  1.0000
  C   C43       1.0  0.15441995719073276  0.861037389565496  0.7485835063828645  1.0000
  C   C44       1.0  0.7734489142497764  0.30199258826753805  0.8917146187669405  1.0000
  C   C45       1.0  0.30988153819791353  0.5693480980125187  0.6276888533329698  1.0000
  C   C46       1.0  0.6524261289607408  0.5042950592758899  0.7048670426025014  1.0000
  C   C47       1.0  0.8196654797940751  0.07744231046289939  0.1277690203279604  1.0000
  C   C48       1.0  0.13937536309059337  0.0036528489602502975  0.21238027998562362  1.0000
  C   C49       1.0  0.6239630450890985  0.2751498325835017  0.23265806168643624  1.0000
  C   C50       1.0  0.2805077912172606  0.8537569448674633  0.36808644232712606  1.0000
  C   C51       1.0  0.1263235433537133  0.7801460597585645  0.7336277014485049  1.0000
  C   C52       1.0  0.8161130421554504  0.3526779537562774  0.8503827280773351  1.0000
  C   C53       1.0  0.17990849016076993  0.7142391549295155  0.6996737615339016  1.0000
  C   C54       1.0  0.7697187088762902  0.406382488645626  0.8069710379477827  1.0000
  C   C55       1.0  0.6829999888804394  0.212413080873084  0.1996230159290207  1.0000
  C   C56       1.0  0.23827744139007473  0.9082613677337434  0.32336816830255805  1.0000
  C   C57       1.0  0.26500112469810927  0.7256288677780561  0.6793643095373056  1.0000
  C   C58       1.0  0.6776109352032265  0.4125501342039542  0.8025872656183993  1.0000
  C   C59       1.0  0.7650220923414253  0.23237145984634822  0.17887139471963556  1.0000
  C   C60       1.0  0.15957837175857745  0.8903011827602966  0.3025853916899877  1.0000
  C   C61       1.0  0.927919695168498  0.3349901992499156  0.5407427525656132  1.0000
  C   C62       1.0  0.0174055637374053  0.33736886395262644  0.5335188664884783  1.0000
  C   C63       1.0  0.4442009152839291  0.8340735806521735  0.0316308916473318  1.0000
  C   C64       1.0  0.5330627248836919  0.839820357845518  0.023834989927713903  1.0000
  C   C65       1.0  0.058740615094144695  0.343817349274211  0.4792646036661806  1.0000
  C   C66       1.0  0.8745801071419664  0.33904741490243856  0.49390715756493375  1.0000
  C   C67       1.0  0.5670217067232669  0.872309480234918  0.9717722447532398  1.0000
  C   C68       1.0  0.3853278375059047  0.860404412208304  0.9875063989972547  1.0000
  C   C69       1.0  0.007937033701573188  0.33742536975750437  0.4326610760286301  1.0000
  C   C70       1.0  0.9181191578925478  0.33477012718608995  0.43986214127731676  1.0000
  C   C71       1.0  0.5102394101378565  0.8902409893626598  0.9262456859941326  1.0000
  C   C72       1.0  0.4215946615329713  0.8840278466062301  0.9339884180302678  1.0000
  C   C73       1.0  0.2007733207006126  0.37911445360348495  0.42440084739228473  1.0000
  C   C74       1.0  0.7153823772628058  0.3887807088169239  0.45868087247882283  1.0000
  C   C75       1.0  0.7104251061355953  0.9082127759655735  0.919574654101794  1.0000
  C   C76       1.0  0.22369638040164824  0.898263278262988  0.957259952720385  1.0000
  C   C77       1.0  0.6145617397125134  0.7333629082970036  0.5418779343863777  1.0000
  C   C78       1.0  0.510687378782947  0.2597449591401571  0.5256803346438375  1.0000
  C   C79       1.0  0.12407621594766031  0.24589084473104353  0.04397873957442751  1.0000
  C   C80       1.0  0.012123177319196432  0.7727012790716261  0.025047335735926903  1.0000
  C   C81       1.0  0.19714298755907586  0.3848106553007112  0.5174764512021995  1.0000
  C   C82       1.0  0.7272809133718283  0.3924746265479798  0.5510531651309807  1.0000
  C   C83       1.0  0.7023072233662333  0.9148155335248446  0.012749923883461595  1.0000
  C   C84       1.0  0.24166844335141482  0.9112156773791187  0.04816693285150112  1.0000
  C   C85       1.0  0.6110892975767114  0.7281721611751949  0.4492425845311488  1.0000
  C   C86       1.0  0.5150661025910138  0.2597569185559294  0.43202607984728303  1.0000
  C   C87       1.0  0.1292547010531067  0.23801725195922782  0.9512723441822004  1.0000
  C   C88       1.0  0.018028994128059066  0.7708753066552277  0.9314606008624082  1.0000
  C   C89       1.0  0.40614746819137076  0.6616471901451534  0.6179837165636428  1.0000
  C   C90       1.0  0.5535192745058097  0.4202882909100937  0.7339007420880536  1.0000
  C   C91       1.0  0.9122496340052706  0.1739993987972923  0.12098111660604623  1.0000
  C   C92       1.0  0.08157200018648324  0.8772608317991628  0.2120433340352221  1.0000
  C   C93       1.0  0.2848978505795472  0.6167626639188769  0.44707846464110906  1.0000
  C   C94       1.0  0.6114030303929566  0.4748202068110672  0.3269094322149614  1.0000
  C   C95       1.0  0.8035849403467381  0.1407202750838152  0.9450042033492495  1.0000
  C   C96       1.0  0.1289323043718155  0.9794439737731652  0.8273807318544331  1.0000
  C   C97       1.0  0.30298089501397385  0.7037034707687865  0.4277900573055859  1.0000
  C   C98       1.0  0.5850693318978701  0.42133524411639195  0.28607527427352153  1.0000
  C   C99       1.0  0.8262674212688523  0.22572071512225023  0.9260154339116086  1.0000
  C   C100      1.0  0.09984372500053958  0.9258780768339603  0.7876496975126842  1.0000
  N   N1        1.0  0.42866058585683925  0.6060310240073437  0.45664907074633027  1.0000
  N   N2        1.0  0.4688035568397451  0.480550659027955  0.3454311623116482  1.0000
  N   N3        1.0  0.9476086406078892  0.1230362314134226  0.9565222619394265  1.0000
  N   N4        1.0  0.9848498181525186  0.9955383994076713  0.8448694310050158  1.0000
  N   N5        1.0  0.37907996928584703  0.5273015570116472  0.5946400067334637  1.0000
  N   N6        1.0  0.594461570373582  0.5075567696660315  0.6640013245436479  1.0000
  N   N7        1.0  0.8912939858577715  0.03801834525840059  0.09581784775485863  1.0000
  N   N8        1.0  0.10714920477290238  0.9989021674847933  0.16124237942629094  1.0000
  N   N9        1.0  0.27509954347974025  0.4058660715037449  0.4389589097743354  1.0000
  N   N10       1.0  0.6363276960054874  0.4322049703210098  0.4816113437433885  1.0000
  N   N11       1.0  0.7840436471413523  0.934361849295499  0.9356822417651857  1.0000
  N   N12       1.0  0.14507475039250284  0.940763314807356  0.9814711895700798  1.0000
  N   N13       1.0  0.6103151735554064  0.6456838531355871  0.5301557420159783  1.0000
  N   N14       1.0  0.47095738474107646  0.3456114429213955  0.5057482693333031  1.0000
  N   N15       1.0  0.12355319140195317  0.1571759268375672  0.03242865104985531  1.0000
  N   N16       1.0  0.9752929861101052  0.858970098891355  0.004328418609070206  1.0000
  N   N17       1.0  0.27232648722246466  0.4092192408945081  0.4968656164067583  1.0000
  N   N18       1.0  0.6437332326391142  0.4343779519286172  0.5387202018142716  1.0000
  N   N19       1.0  0.7786491455320005  0.9383643139365461  0.9935726697160094  1.0000
  N   N20       1.0  0.15641790810981596  0.948698388644175  0.037607277082514705  1.0000
  N   N21       1.0  0.6089739704774219  0.6422986021454521  0.47146421189967214  1.0000
  N   N22       1.0  0.47454577084013744  0.34535527613991235  0.4470161937037177  1.0000
  N   N23       1.0  0.1278728172248975  0.15190488416043024  0.973587132631245  1.0000
  N   N24       1.0  0.9798348308469401  0.8576578664066901  0.9456762913028669  1.0000
  N   N25       1.0  0.439829754481316  0.584836437228802  0.5889658736618062  1.0000
  N   N26       1.0  0.5327277509418665  0.45394846941593414  0.6819936607564189  1.0000
  N   N27       1.0  0.9498710757087138  0.09817745058145988  0.09205113149563722  1.0000
  N   N28       1.0  0.07141098552590823  0.9191393300363586  0.1608232858248613  1.0000
  N   N29       1.0  0.36165075984886386  0.5570447557329743  0.4631816198286955  1.0000
  N   N30       1.0  0.5427293074808405  0.5087953694584897  0.36276026009124257  1.0000
  N   N31       1.0  0.8778393173172104  0.07776377610804269  0.96213482707185  1.0000
  N   N32       1.0  0.060916190574715805  0.01964111225934321  0.8620512893446844  1.0000
  O   O1        1.0  0.7684161150327712  0.08642551836372553  0.5470984686517112  1.0000
  O   O2        1.0  0.6871695814315402  0.8996250361373581  0.6189821538853408  1.0000
  O   O3        1.0  0.26731728194994286  0.6083174662769577  0.04527567312627672  1.0000
  O   O4        1.0  0.19535951564856893  0.4141216758901081  0.12047677541239213  1.0000
  O   O5        1.0  0.649720849077397  0.09418983544274079  0.6126606442045671  1.0000
  O   O6        1.0  0.8028642813430266  0.8984449543543322  0.5541175049180255  1.0000
  O   O7        1.0  0.1548537430380321  0.6097632205757293  0.11413602857712853  1.0000
  O   O8        1.0  0.3091551387185588  0.4189330520481322  0.0543067064446348  1.0000
  O   O9        1.0  0.2398487452994118  0.526573707332119  0.6410930379692347  1.0000
  O   O10       1.0  0.7196920040996274  0.552892141376546  0.6963128605910002  1.0000
  O   O11       1.0  0.7515070738267794  0.031327240659393886  0.13930891458332442  1.0000
  O   O12       1.0  0.1770184321069195  0.0778936089540494  0.2231618086525344  1.0000
  O   O13       1.0  0.6092888271387551  0.754743477882677  0.596684940807002  1.0000
  O   O14       1.0  0.5116487614401136  0.24142299098070913  0.581812190173082  1.0000
  O   O15       1.0  0.114538490243298  0.2690059673842455  0.09864590791346471  1.0000
  O   O16       1.0  0.010024966708513711  0.7546118225580472  0.08129824227534502  1.0000
  O   O17       1.0  0.6080390416807048  0.7490668383482699  0.3924734778433959  1.0000
  O   O18       1.0  0.526024228524406  0.24087301979544407  0.376181538632096  1.0000
  O   O19       1.0  0.13076227791886194  0.25774530642791404  0.8943268588194186  1.0000
  O   O20       1.0  0.02931667260880029  0.75058328206336  0.875848491879829  1.0000
