data_image0
_chemical_formula_structural       Ag4H20C20O16
_chemical_formula_sum              "Ag4 H20 C20 O16"
_cell_length_a       5.39760541936756
_cell_length_b       9.670514727017785
_cell_length_c       12.723088412285882
_cell_angle_alpha    110.14397662842755
_cell_angle_beta     90.00290713549428
_cell_angle_gamma    89.99939891676506

_space_group_name_H-M_alt    "P 1"
_space_group_IT_number       1

loop_
  _space_group_symop_operation_xyz
  'x, y, z'

loop_
  _atom_site_type_symbol
  _atom_site_label
  _atom_site_symmetry_multiplicity
  _atom_site_fract_x
  _atom_site_fract_y
  _atom_site_fract_z
  _atom_site_occupancy
  Ag  Ag1       1.0  0.4712476875493579  0.32077160075617434  0.28615957760968047  1.0000
  Ag  Ag2       1.0  0.9712172900946214  0.6792381234637046  0.713849885119991  1.0000
  Ag  Ag3       1.0  0.0338348875568499  0.16828750278816776  0.2745359475189559  1.0000
  Ag  Ag4       1.0  0.5338014134076232  0.8317188568900065  0.7254616094084412  1.0000
  H   H1        1.0  0.8342254577237824  0.8559372544228409  0.1218658575951323  1.0000
  H   H2        1.0  0.33421800832434195  0.14406527092920374  0.8781608123424289  1.0000
  H   H3        1.0  0.17206533906124832  0.7496283152082056  0.9798524787133828  1.0000
  H   H4        1.0  0.6720898800207422  0.250392428976994  0.02017217196061688  1.0000
  H   H5        1.0  0.33778774904855163  0.59244869161315  0.8942906669030533  1.0000
  H   H6        1.0  0.8377940662181018  0.4075457950982795  0.10571516969903169  1.0000
  H   H7        1.0  0.3441790084491387  0.7462318260939964  0.32758179015823424  1.0000
  H   H8        1.0  0.8441788421427817  0.2537711710695518  0.6724129891093894  1.0000
  H   H9        1.0  0.21283059106702504  0.9240937822577776  0.365485982699944  1.0000
  H   H10       1.0  0.7128478129518427  0.07588735438367418  0.6345051020104862  1.0000
  H   H11       1.0  0.7948673990693464  0.8294372475262719  0.35355712821522894  1.0000
  H   H12       1.0  0.2948874654634963  0.17053772294172376  0.6464113699206917  1.0000
  H   H13       1.0  0.9304606571307088  0.6721038981794294  0.25150854349374896  1.0000
  H   H14       1.0  0.43044778161691255  0.3278752695403568  0.7484616025697122  1.0000
  H   H15       1.0  0.5363278091315208  0.8786039843791399  0.9480499438962012  1.0000
  H   H16       1.0  0.0363385007654671  0.12139702396966358  0.051960453481996176  1.0000
  H   H17       1.0  0.7264835574753262  0.7212530456481402  0.9300591595332932  1.0000
  H   H18       1.0  0.2264902858089357  0.2787556194167067  0.06995573494465647  1.0000
  H   H19       1.0  0.7085601223818259  0.6497161224533768  0.44322424699750224  1.0000
  H   H20       1.0  0.2085459619929537  0.35028806321326295  0.5567616081712145  1.0000
  C   C1        1.0  0.21253048347021775  0.8293712509031862  0.4950933119320452  1.0000
  C   C2        1.0  0.7125476555503101  0.17064074103167567  0.5049064070003197  1.0000
  C   C3        1.0  0.1920769589900715  0.8161998057229879  0.37431609600520926  1.0000
  C   C4        1.0  0.6921015607380453  0.18379587976101416  0.6256688106160836  1.0000
  C   C5        1.0  0.938685874689675  0.7449251830049094  0.33898762727517345  1.0000
  C   C6        1.0  0.4387002426996887  0.2550661774385716  0.661001521401701  1.0000
  C   C7        1.0  0.9013501029051268  0.6611380910251227  0.42093677659122614  1.0000
  C   C8        1.0  0.4013288115748423  0.33884396764221947  0.5790460507930176  1.0000
  C   C9        1.0  0.028388520140737197  0.5109931657563606  0.3756046714170224  1.0000
  C   C10       1.0  0.5283188606325666  0.4889991492233463  0.6244017680109977  1.0000
  C   C11       1.0  0.3747603258900796  0.6401316462027323  0.07161343553040916  1.0000
  C   C12       1.0  0.8747505692564417  0.3598742853119176  0.9283945434013033  1.0000
  C   C13       1.0  0.34709481480187776  0.6885959546439436  0.9712203662991568  1.0000
  C   C14       1.0  0.8471156311335548  0.3114048217047197  0.028776269064877576  1.0000
  C   C15       1.0  0.5722175702774875  0.7869955999654364  0.978100195943007  1.0000
  C   C16       1.0  0.0722213080182073  0.21300276484972608  0.021923668228431784  1.0000
  C   C17       1.0  0.6353173522474336  0.8409979649898673  0.10396981842905006  1.0000
  C   C18       1.0  0.1353182271171747  0.15898715569233696  0.8960504693360745  1.0000
  C   C19       1.0  0.49673118424648527  0.9846352789644112  0.16545403897487873  1.0000
  C   C20       1.0  0.9967341858223906  0.015360648181854198  0.8345430318388337  1.0000
  O   O1        1.0  0.2581822238582916  0.5076686848000164  0.3948419099172753  1.0000
  O   O2        1.0  0.7581326691629826  0.4923260194922392  0.6051567545996263  1.0000
  O   O3        1.0  0.8968195983138331  0.4032286584479933  0.31602668483930774  1.0000
  O   O4        1.0  0.39681271356715797  0.5967877114255273  0.6839710671115071  1.0000
  O   O5        1.0  0.36584110928573205  0.8976802257352077  0.5647476714058682  1.0000
  O   O6        1.0  0.8658415093266925  0.10234870281725249  0.4352455323264692  1.0000
  O   O7        1.0  0.028013414721911503  0.7521937873052523  0.5226280947305495  1.0000
  O   O8        1.0  0.5280214457909908  0.2478236880131419  0.4773721661803592  1.0000
  O   O9        1.0  0.2750139095460042  0.9737349953285489  0.19344682847263064  1.0000
  O   O10       1.0  0.7749770286428512  0.026277046995275596  0.8065574005548013  1.0000
  O   O11       1.0  0.6171049175486446  0.10314880488228788  0.17778923622840634  1.0000
  O   O12       1.0  0.11710895573286709  0.8968618340156239  0.8222277208917246  1.0000
  O   O13       1.0  0.2651721171686249  0.5443991210844102  0.09478867791576556  1.0000
  O   O14       1.0  0.7651638079115275  0.45560085624452995  0.9052036207058547  1.0000
  O   O15       1.0  0.5515150959677441  0.7242830440600727  0.14243047515829224  1.0000
  O   O16       1.0  0.05149800262687879  0.27568891776797944  0.8575626385522168  1.0000
