data_image0
_chemical_formula_structural       Nd2H38C68O16
_chemical_formula_sum              "Nd2 H38 C68 O16"
_cell_length_a       9.324651601361053
_cell_length_b       11.971230134599853
_cell_length_c       15.8071
_cell_angle_alpha    81.1879774666193
_cell_angle_beta     73.69863176691092
_cell_angle_gamma    71.15554096621337

_space_group_name_H-M_alt    "P 1"
_space_group_IT_number       1

loop_
  _space_group_symop_operation_xyz
  'x, y, z'

loop_
  _atom_site_type_symbol
  _atom_site_label
  _atom_site_symmetry_multiplicity
  _atom_site_fract_x
  _atom_site_fract_y
  _atom_site_fract_z
  _atom_site_occupancy
  Nd  Nd1       1.0  0.1842335002184612  0.0283560999345909  0.019761816942107695  1.0000
  Nd  Nd2       1.0  0.8157669036530066  0.9716445464606237  0.9802384207676909  1.0000
  H   H1        1.0  0.4761917636677353  0.1923534490757746  0.05247758769642986  1.0000
  H   H2        1.0  0.5238093306868876  0.807645427828021  0.9475227409766376  1.0000
  H   H3        1.0  0.6273935410793425  0.7178729350959543  0.5029624098456651  1.0000
  H   H4        1.0  0.3726072080336991  0.2821268265535579  0.4970378733457678  1.0000
  H   H5        1.0  0.8247532701162755  0.283681324762135  0.5207469901051383  1.0000
  H   H6        1.0  0.17524601641022744  0.7163193216330795  0.4792527999870657  1.0000
  H   H7        1.0  0.8554884074474387  0.23637131752961688  0.3802644381808378  1.0000
  H   H8        1.0  0.14451311376900117  0.7636293288655978  0.6197356145194491  1.0000
  H   H9        1.0  0.052987200718874285  0.1295506597541944  0.2540497922452829  1.0000
  H   H10       1.0  0.9470146657391393  0.8704491018953106  0.745949673309525  1.0000
  H   H11       1.0  0.29748417127967736  0.39008438256348643  0.2118886336785764  1.0000
  H   H12       1.0  0.7025162325917904  0.6099162638317281  0.7881109714041088  1.0000
  H   H13       1.0  0.10583629430644953  0.49352708122658123  0.3409699711683132  1.0000
  H   H14       1.0  0.894164109565018  0.5064735651686334  0.6590302665414854  1.0000
  H   H15       1.0  0.8142085434508176  0.5666982054977225  0.25685805983398063  1.0000
  H   H16       1.0  0.1857910883172593  0.4333015561517826  0.7431417757398578  1.0000
  H   H17       1.0  0.9023029707893995  0.7089016136189841  0.13817905823466967  1.0000
  H   H18       1.0  0.0976974330820681  0.2910990327762235  0.8618211794751289  1.0000
  H   H19       1.0  0.9844945746122914  0.8861843043083155  0.3284224631872946  1.0000
  H   H20       1.0  0.0155054023973591  0.1138145725954871  0.6715780504952773  1.0000
  H   H21       1.0  0.8866834132457766  0.7479073976382152  0.44934040010179643  1.0000
  H   H22       1.0  0.11331475593575387  0.2520932487569993  0.5506595749999192  1.0000
  H   H23       1.0  0.5979399612776104  0.77542829762465  0.6276246447864722  1.0000
  H   H24       1.0  0.40206044259386425  0.22457234877056456  0.372374960296213  1.0000
  H   H25       1.0  0.4170161317118327  0.8884439448460029  0.7538228260466369  1.0000
  H   H26       1.0  0.5829835000562439  0.1115558168035022  0.2461776421543078  1.0000
  H   H27       1.0  0.1842851339274034  0.6193821581593468  0.8325741397542997  1.0000
  H   H28       1.0  0.8157141525990994  0.3806184882358679  0.167425650337897  1.0000
  H   H29       1.0  0.36864153182872167  0.5027841755671574  0.7078743680609064  1.0000
  H   H30       1.0  0.6313580999393552  0.49721558608234767  0.2921254675129248  1.0000
  H   H31       1.0  0.7184750099446757  0.4345534713283  0.7514489853065598  1.0000
  H   H32       1.0  0.2815246218234008  0.565446290321205  0.24855148289438492  1.0000
  H   H33       1.0  0.6495942187685627  0.3052416929152102  0.8851420890809863  1.0000
  H   H34       1.0  0.35040653034448616  0.6947580687342949  0.11485756148334053  1.0000
  H   H35       1.0  0.45463380569682943  0.1377566761939235  0.7422359859581248  1.0000
  H   H36       1.0  0.5453669434162192  0.8622430854555816  0.2577636646062018  1.0000
  H   H37       1.0  0.5365133768272655  0.2604178211215711  0.6052535080525628  1.0000
  H   H38       1.0  0.4634877175273572  0.7395810557822243  0.3947468206205045  1.0000
  C   C1        1.0  0.8417950532490153  0.4422135996663243  0.43920527124627273  1.0000
  C   C2        1.0  0.15820492376063566  0.5577852772374783  0.5607952424363063  1.0000
  C   C3        1.0  0.7873936884765697  0.5676165715424091  0.43591362367699565  1.0000
  C   C4        1.0  0.21260594329150703  0.432383190107096  0.5640868445239491  1.0000
  C   C5        1.0  0.6735247375928493  0.6217214258107333  0.5082601942324559  1.0000
  C   C6        1.0  0.32647601152019934  0.3782783358387718  0.4917400889589771  1.0000
  C   C7        1.0  0.6136981162219753  0.5600281076067191  0.5858371213900854  1.0000
  C   C8        1.0  0.3863026328910736  0.4399716540427931  0.4141625291742344  1.0000
  C   C9        1.0  0.6708575405824817  0.43466406454177076  0.5895190902484798  1.0000
  C   C10       1.0  0.32914355377214116  0.5653348123620248  0.4104806057974741  1.0000
  C   C11       1.0  0.7793124868088057  0.3799505052264891  0.5157488913192694  1.0000
  C   C12       1.0  0.22068826230423613  0.620049256423016  0.4842507592450502  1.0000
  C   C13       1.0  0.9641690266198282  0.3748517157125093  0.3679412355356746  1.0000
  C   C14       1.0  0.03583172249322079  0.6251480459369958  0.6320590476557584  1.0000
  C   C15       1.0  0.9541461966445652  0.2690352443154254  0.3447814576209396  1.0000
  C   C16       1.0  0.045854552468483745  0.7309645173340799  0.6552188255704934  1.0000
  C   C17       1.0  0.0631640637961723  0.2093821497135622  0.2739610924109286  1.0000
  C   C18       1.0  0.9368370305584505  0.7906167271902333  0.7260386036350254  1.0000
  C   C19       1.0  0.18494526778734152  0.2549801740015099  0.2244950497904767  1.0000
  C   C20       1.0  0.8150580612572185  0.7450187029022856  0.7755042762364539  1.0000
  C   C21       1.0  0.20034915248668025  0.357209001553521  0.24949611468431943  1.0000
  C   C22       1.0  0.7996515966263685  0.6427907600959841  0.7505041685071064  1.0000
  C   C23       1.0  0.09245049466530021  0.41517577083634183  0.3210292119601945  1.0000
  C   C24       1.0  0.907550254447749  0.5848239908131703  0.6789710712312385  1.0000
  C   C25       1.0  0.2929531859287025  0.1958428861472896  0.14564313098774312  1.0000
  C   C26       1.0  0.7070475631843393  0.8041568755022154  0.8543571522036899  1.0000
  C   C27       1.0  0.842899626291732  0.6478559292730708  0.3616590568358474  1.0000
  C   C28       1.0  0.15709673506167116  0.3521464866135631  0.6383410123121179  1.0000
  C   C29       1.0  0.8489313674001053  0.637546872285931  0.273317667077947  1.0000
  C   C30       1.0  0.15106826436797144  0.3624528893635741  0.7266821684958841  1.0000
  C   C31       1.0  0.8991925373950946  0.7166493317820793  0.2064852253622931  1.0000
  C   C32       1.0  0.10080786647637302  0.2833513146131352  0.7935150123475124  1.0000
  C   C33       1.0  0.9483347454847787  0.8063333499433725  0.22633427861328667  1.0000
  C   C34       1.0  0.051664541041716895  0.1936672964518422  0.7736655114789173  1.0000
  C   C35       1.0  0.9430526660953121  0.8174271763733216  0.3142144002277973  1.0000
  C   C36       1.0  0.0569451578446447  0.1825743547676026  0.6857855293922838  1.0000
  C   C37       1.0  0.8888907054227387  0.7401490625266263  0.3810856840215139  1.0000
  C   C38       1.0  0.1111063464138198  0.2598515838685884  0.6189138434626003  1.0000
  C   C39       1.0  0.014460181821554815  0.8860330127922822  0.15562356159001917  1.0000
  C   C40       1.0  0.9855394499465218  0.11396674885722291  0.8443769066109255  1.0000
  C   C41       1.0  0.4984184900961777  0.6290356185770136  0.6588284693435823  1.0000
  C   C42       1.0  0.5015811416718987  0.3709641430724915  0.341171366230256  1.0000
  C   C43       1.0  0.5066586570144053  0.7406374421573219  0.6715129546264863  1.0000
  C   C44       1.0  0.4933409747536713  0.2593623194921832  0.32848751357445855  1.0000
  C   C45       1.0  0.4060662216515851  0.8043541737950548  0.7424755654527004  1.0000
  C   C46       1.0  0.5939334101164916  0.1956455878544574  0.2575249027482442  1.0000
  C   C47       1.0  0.29105508805768904  0.7600788443402422  0.8019121128926798  1.0000
  C   C48       1.0  0.7089453158137857  0.2399218020549725  0.1980874921900124  1.0000
  C   C49       1.0  0.2767111449810073  0.6520469696908577  0.7876782381677003  1.0000
  C   C50       1.0  0.7232870242005162  0.347953676704357  0.21232173693401532  1.0000
  C   C51       1.0  0.3798696814928063  0.5871774143958817  0.7177365505195255  1.0000
  C   C52       1.0  0.6201310676202354  0.4128223472536234  0.2822637326719075  1.0000
  C   C53       1.0  0.18652969335819589  0.8290067281968447  0.8789654724889145  1.0000
  C   C54       1.0  0.8134707105132719  0.17099391819837  0.12103476522088387  1.0000
  C   C55       1.0  0.6298350107627967  0.3574045303549411  0.6695563349448932  1.0000
  C   C56       1.0  0.3701657383502521  0.642595231294564  0.3304433156194264  1.0000
  C   C57       1.0  0.6620852986244684  0.368934536418827  0.7488387619789165  1.0000
  C   C58       1.0  0.33791433314360836  0.6310652252306781  0.2511610735949148  1.0000
  C   C59       1.0  0.6230705901432856  0.2971843137543857  0.8238460692389395  1.0000
  C   C60       1.0  0.37692904162479113  0.7028154478951194  0.1761537663348918  1.0000
  C   C61       1.0  0.5453410394999878  0.21523739680770146  0.8221700799922402  1.0000
  C   C62       1.0  0.454658592268089  0.7847623648418035  0.17782975558159106  1.0000
  C   C63       1.0  0.5152713685409082  0.2015008349485896  0.7430672701154108  1.0000
  C   C64       1.0  0.4847297258137147  0.7984980419552059  0.25693242593054316  1.0000
  C   C65       1.0  0.5607579082166083  0.2701438306872816  0.6668920977999873  1.0000
  C   C66       1.0  0.43924284089644056  0.7298559309622233  0.33310818539144554  1.0000
  C   C67       1.0  0.4908554806491949  0.1479170959021516  0.9057740485606443  1.0000
  C   C68       1.0  0.5091452684638539  0.8520826657473535  0.09422623463078851  1.0000
  O   O1        1.0  0.27736231096869096  0.10813538989719969  0.11988408939803459  1.0000
  O   O2        1.0  0.7226358582128398  0.891865256498015  0.8801171509579007  1.0000
  O   O3        1.0  0.4069803228018571  0.2423592764799238  0.10398122537919363  1.0000
  O   O4        1.0  0.5930204263111917  0.7576404851695813  0.8960190578122393  1.0000
  O   O5        1.0  0.09372296003709119  0.9442846701930065  0.17252448330427234  1.0000
  O   O6        1.0  0.9062774438343766  0.0557159762022081  0.8274757544055332  1.0000
  O   O7        1.0  0.9960499155147957  0.8919174564947738  0.07671542863131718  1.0000
  O   O8        1.0  0.003950833598253204  0.10808230515473129  0.9232842219330023  1.0000
  O   O9        1.0  0.2443901474133766  0.8930614326949424  0.9091177013623691  1.0000
  O   O10       1.0  0.755609139113119  0.1069392137002723  0.0908820887298347  1.0000
  O   O11       1.0  0.04777260709447255  0.8214377286667229  0.9080520457603639  1.0000
  O   O12       1.0  0.9522289141219673  0.1785629177284918  0.0919473743128094  1.0000
  O   O13       1.0  0.3658114176470661  0.120891653512075  0.9171097273776709  1.0000
  O   O14       1.0  0.6341882141210106  0.8791081081374301  0.08289074082327363  1.0000
  O   O15       1.0  0.5715361988267488  0.1255294905122994  0.9640458738567689  1.0000
  O   O16       1.0  0.42846455028629976  0.8744702711372057  0.03595440933466421  1.0000
