data_image0
_chemical_formula_structural       Zn8H72C96O26
_chemical_formula_sum              "Zn8 H72 C96 O26"
_cell_length_a       21.476469214890013
_cell_length_b       23.70348812903081
_cell_length_c       24.800849999653913
_cell_angle_alpha    91.98162055460763
_cell_angle_beta     113.32946569660398
_cell_angle_gamma    116.56350059290567

_space_group_name_H-M_alt    "P 1"
_space_group_IT_number       1

loop_
  _space_group_symop_operation_xyz
  'x, y, z'

loop_
  _atom_site_type_symbol
  _atom_site_label
  _atom_site_symmetry_multiplicity
  _atom_site_fract_x
  _atom_site_fract_y
  _atom_site_fract_z
  _atom_site_occupancy
  Zn  Zn1       1.0  0.8962547134727716  0.9033370149030162  0.04021968447216304  1.0000
  Zn  Zn2       1.0  0.9257587535785348  0.029688589236350496  0.9889269405229583  1.0000
  Zn  Zn3       1.0  0.8014176356198632  0.9759536614357601  0.04079051857165439  1.0000
  Zn  Zn4       1.0  0.7633957388810799  0.8965117780915648  0.9135542903052991  1.0000
  Zn  Zn5       1.0  0.7723466235376293  0.5021051402465417  0.4583107929347248  1.0000
  Zn  Zn6       1.0  0.7416820723233002  0.3687380618440343  0.4926659467328135  1.0000
  Zn  Zn7       1.0  0.9033646757404982  0.5010380974421195  0.5796326563363436  1.0000
  Zn  Zn8       1.0  0.8725560283168292  0.43991991413338377  0.4474905896030135  1.0000
  H   H1        1.0  0.1415581527074465  0.026261766078171402  0.024995387585484297  1.0000
  H   H2        1.0  0.1391779795536508  0.9707307678874741  0.07181440253208389  1.0000
  H   H3        1.0  0.2548014410980883  0.0203298356167636  0.16307985672882094  1.0000
  H   H4        1.0  0.3573444958442238  0.1128158369547734  0.25315029515570586  1.0000
  H   H5        1.0  0.247157556177477  0.22576660418105388  0.18239550342200056  1.0000
  H   H6        1.0  0.14727194539385377  0.13446674696743338  0.09103496957624198  1.0000
  H   H7        1.0  0.3719419387025766  0.3068856982246757  0.23253322747811464  1.0000
  H   H8        1.0  0.46731885468040707  0.39821358211768393  0.32500007127125485  1.0000
  H   H9        1.0  0.4813999179323218  0.26176345908403686  0.43247169097379157  1.0000
  H   H10       1.0  0.38330790492534567  0.1700663452667328  0.3407477412338763  1.0000
  H   H11       1.0  0.5342600936636613  0.4357750163870476  0.43632946578785675  1.0000
  H   H12       1.0  0.533804833283682  0.3786646751241989  0.4813805700523161  1.0000
  H   H13       1.0  0.8516578825251246  0.9431878936743561  0.22216491336074273  1.0000
  H   H14       1.0  0.947276372697736  0.9596101589824639  0.23756383037834866  1.0000
  H   H15       1.0  0.9634006347380505  0.8601452168067707  0.21330583920038737  1.0000
  H   H16       1.0  0.9298413139294012  0.7497982270315973  0.22836539340926978  1.0000
  H   H17       1.0  0.7230618152394045  0.7278058518811151  0.23523917389672266  1.0000
  H   H18       1.0  0.758318787075282  0.839082210644605  0.22216461748291028  1.0000
  H   H19       1.0  0.7569059503563552  0.6728601956551544  0.3034186007797785  1.0000
  H   H20       1.0  0.7260560110295415  0.5644499284503297  0.3223293428230746  1.0000
  H   H21       1.0  0.8210426950169847  0.5328951333303423  0.20834941579185073  1.0000
  H   H22       1.0  0.8486984185046538  0.6401515531515757  0.18696381873754578  1.0000
  H   H23       1.0  0.6906574393610683  0.4409053336772076  0.2571525296180041  1.0000
  H   H24       1.0  0.780411487493481  0.4540630365087424  0.25985722449109955  1.0000
  H   H25       1.0  0.6859621303132712  0.6833884538085472  0.9006969352093461  1.0000
  H   H26       1.0  0.7760918696160741  0.6918874727106399  0.9561358939368527  1.0000
  H   H27       1.0  0.8619757988168998  0.681793927168542  0.9234825599138359  1.0000
  H   H28       1.0  0.8994843520553389  0.6712839390710883  0.8430658735973819  1.0000
  H   H29       1.0  0.7261912076657354  0.7140400006084705  0.7227884441556608  1.0000
  H   H30       1.0  0.6875325515235815  0.7226979880764903  0.8028446078122042  1.0000
  H   H31       1.0  0.7235858919108509  0.6455678393429166  0.6537946007618841  1.0000
  H   H32       1.0  0.7660811883711105  0.6457467481756396  0.5746305612255964  1.0000
  H   H33       1.0  0.004734956741572284  0.7287381987249972  0.7130830380361386  1.0000
  H   H34       1.0  0.962962781759849  0.7309864294454086  0.7923415209126501  1.0000
  H   H35       1.0  0.8888880336067256  0.7082726649584072  0.5538746516703623  1.0000
  H   H36       1.0  0.978381551155593  0.7161993637627975  0.6096951908623112  1.0000
  H   H37       1.0  0.8651622019707261  0.1870239706379522  0.01102465383271321  1.0000
  H   H38       1.0  0.9627036947173477  0.22081112774282025  0.0673033171609489  1.0000
  H   H39       1.0  0.9939885026759044  0.27890288793252443  0.16242576326057187  1.0000
  H   H40       1.0  0.9585357248689873  0.2986674255731145  0.2415664568961445  1.0000
  H   H41       1.0  0.7242437139076047  0.13665530433216588  0.1341092632601359  1.0000
  H   H42       1.0  0.758837803732824  0.11913317166667532  0.05418601272520359  1.0000
  H   H43       1.0  0.6964252969883801  0.19431322597471734  0.18262523492528254  1.0000
  H   H44       1.0  0.6591879600032512  0.19640965895803217  0.26456428660385  1.0000
  H   H45       1.0  0.8969036384895972  0.26450681498086237  0.39807776969798414  1.0000
  H   H46       1.0  0.9337070412375611  0.25989228706530554  0.31632370792840436  1.0000
  H   H47       1.0  0.6877087211357704  0.19678236320159212  0.36929719055276405  1.0000
  H   H48       1.0  0.7795673182466912  0.2094007588859128  0.42230403289619284  1.0000
  H   H49       1.0  0.8133029997787703  0.9494793048291258  0.7593099751689179  1.0000
  H   H50       1.0  0.9160754135554254  0.0029368805790212973  0.804965274158732  1.0000
  H   H51       1.0  0.9263708382289408  0.11621919302019988  0.8712675707197517  1.0000
  H   H52       1.0  0.912623450020071  0.20989534977462646  0.8416364423700812  1.0000
  H   H53       1.0  0.7547860835452481  0.09382752545452182  0.6569233323646698  1.0000
  H   H54       1.0  0.7685335060134619  1.8442468956398014e-05  0.6867371132482913  1.0000
  H   H55       1.0  0.8263056487947296  0.1986937080231357  0.6444406645457831  1.0000
  H   H56       1.0  0.8109917117008862  0.291478321927606  0.614691138824625  1.0000
  H   H57       1.0  0.8095381563636722  0.3412992144504656  0.7826512161525583  1.0000
  H   H58       1.0  0.8216929169964189  0.24669955935990376  0.8112676969840534  1.0000
  H   H59       1.0  0.740105787633766  0.36978863197749234  0.6709443231331915  1.0000
  H   H60       1.0  0.8408223659954431  0.4240896594876347  0.7213109302863073  1.0000
  H   H61       1.0  0.5778531232577746  0.9568652843080939  0.8829951645629204  1.0000
  H   H62       1.0  0.556054491393823  0.9259689073568893  0.9409967188133093  1.0000
  H   H63       1.0  0.4393764863224021  0.8270382453386986  0.9117544062696791  1.0000
  H   H64       1.0  0.3234741615011388  0.7275219376994285  0.8344503304910585  1.0000
  H   H65       1.0  0.43063890839594876  0.7632824144268824  0.7153392277223742  1.0000
  H   H66       1.0  0.5451117204261563  0.8637490953399051  0.7920285728233762  1.0000
  H   H67       1.0  0.30368429895535354  0.7189957088875901  0.6457573649911408  1.0000
  H   H68       1.0  0.19339161088979037  0.6179135510576472  0.567117259408384  1.0000
  H   H69       1.0  0.16173615383645765  0.5227173162589622  0.7063245973632631  1.0000
  H   H70       1.0  0.2743352419492526  0.6226505834853243  0.7851997544847006  1.0000
  H   H71       1.0  0.1179966808571251  0.49570395209162393  0.5443496588444104  1.0000
  H   H72       1.0  0.0992091557037967  0.4581248719448754  0.6010209699816754  1.0000
  C   C1        1.0  0.049157266397884425  0.9956084637684841  0.04872735105104904  1.0000
  C   C2        1.0  0.13296774012475507  0.013713685347980205  0.06485634029978368  1.0000
  C   C3        1.0  0.19380034864465048  0.07079506735155411  0.12037126403212986  1.0000
  C   C4        1.0  0.2532348835721264  0.0656650380866992  0.1670304407489595  1.0000
  C   C5        1.0  0.3107495826571737  0.11770141057133543  0.21815436879725772  1.0000
  C   C6        1.0  0.3102808582344636  0.17657985520465763  0.22486856019639126  1.0000
  C   C7        1.0  0.25027979600363887  0.18126617557398111  0.17791264900008485  1.0000
  C   C8        1.0  0.1934589860770402  0.1296873918856178  0.12647988564171436  1.0000
  C   C9        1.0  0.3697009665677911  0.2313741480622866  0.2795951039583001  1.0000
  C   C10       1.0  0.3944916359259025  0.29646370623384405  0.27647270487508274  1.0000
  C   C11       1.0  0.4485429193659626  0.3479963289088914  0.3285090552509259  1.0000
  C   C12       1.0  0.4798664228667775  0.33625477701870216  0.3853375048509874  1.0000
  C   C13       1.0  0.45652773639466193  0.27158927768650903  0.3886459444317436  1.0000
  C   C14       1.0  0.40224532819894426  0.22008229439594376  0.3367511083001061  1.0000
  C   C15       1.0  0.5402576188367761  0.3924330419275606  0.4411727144312321  1.0000
  C   C16       1.0  0.6229829870779895  0.4101948418476482  0.45342772717052776  1.0000
  C   C17       1.0  0.8674378773245479  0.9289322696907545  0.14385562243425898  1.0000
  C   C18       1.0  0.8841183792471056  0.9254964147899404  0.20900853250741835  1.0000
  C   C19       1.0  0.8637511045509642  0.8577430841249197  0.2173866936962411  1.0000
  C   C20       1.0  0.9108157169444765  0.8312560702835797  0.2184259150710091  1.0000
  C   C21       1.0  0.8912637136260457  0.7687301956832044  0.22612686685634736  1.0000
  C   C22       1.0  0.8240183166200623  0.7303591801888488  0.23312490729365717  1.0000
  C   C23       1.0  0.7765755101070867  0.7568998788703283  0.23130482927432888  1.0000
  C   C24       1.0  0.796178885838316  0.8195277724764269  0.22356735561897517  1.0000
  C   C25       1.0  0.8050321672256261  0.6649818253717684  0.24362430658506176  1.0000
  C   C26       1.0  0.7696665181505367  0.6418381862352618  0.28129103582239157  1.0000
  C   C27       1.0  0.75277054794185  0.5808881906931163  0.29247219971017546  1.0000
  C   C28       1.0  0.7715963790689386  0.5408837837173409  0.26698380586294224  1.0000
  C   C29       1.0  0.8066230104667015  0.563519888560272  0.22922191596705935  1.0000
  C   C30       1.0  0.8227346462147267  0.6243182814460085  0.21747254490681903  1.0000
  C   C31       1.0  0.7545553631628579  0.4745229800494999  0.278937452344607  1.0000
  C   C32       1.0  0.7847662328417542  0.4764793634471758  0.3461490592872423  1.0000
  C   C33       1.0  0.7793605040624456  0.781863745430833  0.9425384251122111  1.0000
  C   C34       1.0  0.750018309118573  0.7100882906157223  0.9185021305613572  1.0000
  C   C35       1.0  0.7714370396944475  0.7021282045035165  0.8685949489634479  1.0000
  C   C36       1.0  0.8316732245745084  0.6884399727340877  0.8792056636204035  1.0000
  C   C37       1.0  0.8533156275792918  0.6831609536236201  0.8339946902560269  1.0000
  C   C38       1.0  0.8157944051952981  0.6919480936578353  0.7767154659804302  1.0000
  C   C39       1.0  0.7552171122154547  0.7055659819313078  0.7663787562717629  1.0000
  C   C40       1.0  0.7333714481097573  0.7105283280781336  0.8114119325810589  1.0000
  C   C41       1.0  0.8401386810192404  0.6887712809279094  0.729197684729385  1.0000
  C   C42       1.0  0.7856502791534794  0.6648967049252831  0.6671352310968073  1.0000
  C   C43       1.0  0.8095183368116635  0.6647162395571585  0.6224993319151009  1.0000
  C   C44       1.0  0.8886830991116669  0.6881685677038761  0.6382737886423582  1.0000
  C   C45       1.0  0.9429316291179647  0.7106925126694821  0.699933362966071  1.0000
  C   C46       1.0  0.9191779782495431  0.7112377269272657  0.7446235573769043  1.0000
  C   C47       1.0  0.9141576637742332  0.6876375813443333  0.5895522862756905  1.0000
  C   C48       1.0  0.8876949382431364  0.6180710238653333  0.56048045906563  1.0000
  C   C49       1.0  0.8937305833432703  0.11677896713062103  0.04385475920133084  1.0000
  C   C50       1.0  0.9021457222047928  0.18414195348820073  0.055729495962467034  1.0000
  C   C51       1.0  0.8792104801121496  0.19745741393499835  0.10263127034954782  1.0000
  C   C52       1.0  0.9343625086813816  0.24774481831285303  0.1559155933206497  1.0000
  C   C53       1.0  0.9144982903257741  0.2585870012896124  0.20087369261097623  1.0000
  C   C54       1.0  0.8386790712619145  0.21879733746586547  0.19425337270915577  1.0000
  C   C55       1.0  0.7831061311275319  0.16921615779759241  0.140030665171075  1.0000
  C   C56       1.0  0.8027385027085359  0.15902339301495516  0.09498326075174639  1.0000
  C   C57       1.0  0.817754816944266  0.22601395675202707  0.24308688186469857  1.0000
  C   C58       1.0  0.7406455804916517  0.20896795474264004  0.229834683810914  1.0000
  C   C59       1.0  0.7197202882192569  0.21049748230310433  0.27612488226201026  1.0000
  C   C60       1.0  0.7750176393060499  0.2294074197759244  0.3372251616767058  1.0000
  C   C61       1.0  0.8525764447391708  0.24866246922978524  0.3507336206181434  1.0000
  C   C62       1.0  0.8735640287854877  0.24692252463457018  0.30460526686288597  1.0000
  C   C63       1.0  0.7510955599961733  0.22879036624804167  0.38666308520905085  1.0000
  C   C64       1.0  0.7729515334914651  0.2954802167584988  0.419543962079558  1.0000
  C   C65       1.0  0.850862876305641  0.9795688039740472  0.8544844181912692  1.0000
  C   C66       1.0  0.8575305768736567  0.9931919661271988  0.7970566047579123  1.0000
  C   C67       1.0  0.8485388952035746  0.051272037628919506  0.7810738470532781  1.0000
  C   C68       1.0  0.8883818787020701  0.11095259198958728  0.8242513298749043  1.0000
  C   C69       1.0  0.8800708802816429  0.16359653919267464  0.8075134512745873  1.0000
  C   C70       1.0  0.8325944599523538  0.15900368249724292  0.7471438973988284  1.0000
  C   C71       1.0  0.7931269892854758  0.09924990414631912  0.7040010940097545  1.0000
  C   C72       1.0  0.8006580348192144  0.0462687314118924  0.7208917619996027  1.0000
  C   C73       1.0  0.8247364152843275  0.21533913824760015  0.7298609990399425  1.0000
  C   C74       1.0  0.8214755267756004  0.2293388306032683  0.6746316852458418  1.0000
  C   C75       1.0  0.8139571315321064  0.2824787451215514  0.6581731198263937  1.0000
  C   C76       1.0  0.8096148769481956  0.3236815750300508  0.6966267838326272  1.0000
  C   C77       1.0  0.8132384894173156  0.31003245305640087  0.752045377475653  1.0000
  C   C78       1.0  0.8205875763312137  0.2569403915443332  0.7684274285339184  1.0000
  C   C79       1.0  0.8003061624224728  0.38185900323956906  0.6815849928125033  1.0000
  C   C80       1.0  0.812163807192803  0.40191321656325846  0.6274890372933652  1.0000
  C   C81       1.0  0.6473936033475526  0.9185192359592451  0.9326200587386847  1.0000
  C   C82       1.0  0.5682851636852179  0.915451484983379  0.9041042258724158  1.0000
  C   C83       1.0  0.5001128544483604  0.8531373313375993  0.8572070503810278  1.0000
  C   C84       1.0  0.43746720701035696  0.8131454034409413  0.8684491033798235  1.0000
  C   C85       1.0  0.3722763503672439  0.7566227543291363  0.8249727292933425  1.0000
  C   C86       1.0  0.3676348747273366  0.737795902750328  0.7685620793359005  1.0000
  C   C87       1.0  0.4314495286004316  0.777564495136467  0.7579999119752754  1.0000
  C   C88       1.0  0.49626476107027173  0.8341935584900215  0.80126767150616  1.0000
  C   C89       1.0  0.2985035391600589  0.6783853005513619  0.7216377823070059  1.0000
  C   C90       1.0  0.27370147292225505  0.6757096615102256  0.659456805824142  1.0000
  C   C91       1.0  0.21109062562766212  0.6188621870228986  0.6151007115905995  1.0000
  C   C92       1.0  0.17055592106503786  0.5626669925780093  0.63111079664759  1.0000
  C   C93       1.0  0.1931623913149424  0.5656908971245188  0.6928846876160433  1.0000
  C   C94       1.0  0.2561370393574692  0.6223981490653047  0.7373626332993409  1.0000
  C   C95       1.0  0.10533210881198583  0.5007692268746312  0.5823766751079161  1.0000
  C   C96       1.0  0.024758347015300334  0.4949127799899031  0.5565085922754419  1.0000
  O   O1        1.0  0.8460798532161389  0.9507720645783875  0.9956084861053964  1.0000
  O   O2        1.0  0.029387135019419502  0.037531656550847003  0.03067125451045879  1.0000
  O   O3        1.0  0.005627836866466421  0.9404269016457859  0.05423065925583608  1.0000
  O   O4        1.0  0.6396665149847961  0.3649072766159165  0.46093684297706244  1.0000
  O   O5        1.0  0.6682604658475739  0.46852718564304047  0.4548728774361946  1.0000
  O   O6        1.0  0.8213013957784979  0.9504017790644209  0.1174918609731676  1.0000
  O   O7        1.0  0.9014847824816601  0.9106129171211709  0.12146755824209526  1.0000
  O   O8        1.0  0.8416850672499762  0.4658393757935214  0.370805059497826  1.0000
  O   O9        1.0  0.7500007705058708  0.48854592600102376  0.3724565241183269  1.0000
  O   O10       1.0  0.742165839092202  0.8062945201292776  0.9075505445972066  1.0000
  O   O11       1.0  0.8389912383146266  0.811401352731231  0.9946174362314362  1.0000
  O   O12       1.0  0.9211450945270698  0.5903947753096688  0.593873205005991  1.0000
  O   O13       1.0  0.8333140972582884  0.5932832189656524  0.5056743791474787  1.0000
  O   O14       1.0  0.8505730561369161  0.0722666799392826  0.06066543024017083  1.0000
  O   O15       1.0  0.9303575166581978  0.11083105301538151  0.01604778015047966  1.0000
  O   O16       1.0  0.8316191931388205  0.34521791083107445  0.4210294692831055  1.0000
  O   O17       1.0  0.7303472468067369  0.29471881017150997  0.4440559817985202  1.0000
  O   O18       1.0  0.7894038387706743  0.9288796672484454  0.8487169212390879  1.0000
  O   O19       1.0  0.9080655351980551  0.020704893743811698  0.9041400589069111  1.0000
  O   O20       1.0  0.8702238138304421  0.45785598812481954  0.6377096071879789  1.0000
  O   O21       1.0  0.7620869856643893  0.36088392702492195  0.5759445880594498  1.0000
  O   O22       1.0  0.6660065816868582  0.8968263997357653  0.8973912124052175  1.0000
  O   O23       1.0  0.6894304659171626  0.9449692503233112  0.9896520360965366  1.0000
  O   O24       1.0  0.0025599515028248074  0.5049667135748948  0.5945966757212273  1.0000
  O   O25       1.0  0.9858720622394372  0.4789071367896158  0.4986344479914492  1.0000
  O   O26       1.0  0.8237143530523171  0.45285346419738903  0.4953073240858571  1.0000
