data_image0
_chemical_formula_structural       Ni2H44C52S2N12O14
_chemical_formula_sum              "Ni2 H44 C52 S2 N12 O14"
_cell_length_a       9.912345178112247
_cell_length_b       10.860943869119252
_cell_length_c       13.040528356800868
_cell_angle_alpha    72.00791100245235
_cell_angle_beta     87.05473045377201
_cell_angle_gamma    77.14371061865113

_space_group_name_H-M_alt    "P 1"
_space_group_IT_number       1

loop_
  _space_group_symop_operation_xyz
  'x, y, z'

loop_
  _atom_site_type_symbol
  _atom_site_label
  _atom_site_symmetry_multiplicity
  _atom_site_fract_x
  _atom_site_fract_y
  _atom_site_fract_z
  _atom_site_occupancy
  Ni  Ni1       1.0  0.05778692721078469  0.07580493931880028  0.681933752960049  1.0000
  Ni  Ni2       1.0  0.9422162957523667  0.924194332478777  0.31806977892925653  1.0000
  H   H1        1.0  0.6976477186079677  0.3168632462603824  0.5856608084588117  1.0000
  H   H2        1.0  0.3023513293578474  0.6831369277375073  0.4143372468825818  1.0000
  H   H3        1.0  0.16921199994172306  0.665113595747087  0.6469819030826399  1.0000
  H   H4        1.0  0.8307872791925561  0.3348855864892144  0.35301640565130293  1.0000
  H   H5        1.0  0.2809181393778389  0.426912430194669  0.6819193951463944  1.0000
  H   H6        1.0  0.7190752924910981  0.5730857428636044  0.31808089303874704  1.0000
  H   H7        1.0  0.5397709476983081  0.44616569816137996  0.9294321349576362  1.0000
  H   H8        1.0  0.4602324184324687  0.5538334707417505  0.07056298343500346  1.0000
  H   H9        1.0  0.4303089636892636  0.6868670374493958  0.8915844010698207  1.0000
  H   H10       1.0  0.5696971974747173  0.3131331412775893  0.1084103657642714  1.0000
  H   H11       1.0  0.23611732228410184  0.17200561664833458  0.8512119049176403  1.0000
  H   H12       1.0  0.7638773794584496  0.8279866900267122  0.1487967873928682  1.0000
  H   H13       1.0  0.10265545935698127  0.07644031879909359  0.012870178921289697  1.0000
  H   H14       1.0  0.8973454218354319  0.9235511070711767  0.9871446893564694  1.0000
  H   H15       1.0  0.4257434259169485  0.07382232474616761  0.22147859984883667  1.0000
  H   H16       1.0  0.5742729686162918  0.9261810170963898  0.7785249900889679  1.0000
  H   H17       1.0  0.5660112342719117  0.15886059758518914  0.06177052448872188  1.0000
  H   H18       1.0  0.433994438524671  0.841141583373073  0.9382252652869167  1.0000
  H   H19       1.0  0.36755410592851945  0.10089953258624719  0.6799307799973775  1.0000
  H   H20       1.0  0.632447382796272  0.8990986979920663  0.320070011275142  1.0000
  H   H21       1.0  0.0836552938214012  0.19786263312006722  0.4228089503265266  1.0000
  H   H22       1.0  0.9163407919409392  0.8021455437821813  0.5771932295030382  1.0000
  H   H23       1.0  0.5545461296491966  0.21751739252352556  0.4193017446273188  1.0000
  H   H24       1.0  0.44545022035870846  0.7824857353636219  0.5806948511170446  1.0000
  H   H25       1.0  0.5817559938769818  0.15864078688031213  0.5616232773767109  1.0000
  H   H26       1.0  0.41824361350103356  0.8413613673074921  0.4383734735942254  1.0000
  H   H27       1.0  0.3096464760800187  0.45505759150407243  0.41012569610786187  1.0000
  H   H28       1.0  0.6903503102343223  0.5449435715679628  0.5898729361482893  1.0000
  H   H29       1.0  0.8789888869719108  0.20974730444613948  0.8416222196370382  1.0000
  H   H30       1.0  0.12101115671255509  0.7902528849265451  0.1583765678456857  1.0000
  H   H31       1.0  0.0756007975204582  0.38293687283766087  0.5560393428948132  1.0000
  H   H32       1.0  0.9244004860663539  0.6170623307941767  0.44395966525847547  1.0000
  H   H33       1.0  0.74555881562393  0.4321020592996517  0.8668927082466523  1.0000
  H   H34       1.0  0.2544382989341614  0.567902075723886  0.13310436624649213  1.0000
  H   H35       1.0  0.7805730587173086  0.5826119343333644  0.7777294642379644  1.0000
  H   H36       1.0  0.21942654866071365  0.4173902198544395  0.222267286732972  1.0000
  H   H37       1.0  0.8954851652646455  0.30392781657752715  0.03117410476122022  1.0000
  H   H38       1.0  0.10451094055955674  0.6960763124252554  0.9688230024539165  1.0000
  H   H39       1.0  0.9592744876859313  0.6819664418788136  0.8261157400711383  1.0000
  H   H40       1.0  0.04072232465888702  0.31803470248513577  0.17388136245834573  1.0000
  H   H41       1.0  0.8727033990896658  0.1258213281319058  0.4471837842987796  1.0000
  H   H42       1.0  0.12729051410004644  0.8741788812405177  0.5528197886959134  1.0000
  H   H43       1.0  0.8370017267237345  0.09623082270475439  0.5712725851900657  1.0000
  H   H44       1.0  0.16299883529939055  0.9037624837942674  0.4287333628059145  1.0000
  C   C1        1.0  0.6106324227576039  0.3972040094464687  0.5484702036104068  1.0000
  C   C2        1.0  0.38936515413740846  0.6027981420538708  0.4515273776678582  1.0000
  C   C3        1.0  0.23088154882687212  0.8352965881051447  0.7538595137872193  1.0000
  C   C4        1.0  0.769117389048418  0.16469963153368644  0.2461411175730746  1.0000
  C   C5        1.0  0.29160685487493515  0.6906801978679481  0.7689732979489958  1.0000
  C   C6        1.0  0.7083916857396347  0.3093179585238773  0.23102300230951303  1.0000
  C   C7        1.0  0.24851483817939624  0.6175807076989416  0.7100159464251872  1.0000
  C   C8        1.0  0.7514816329064403  0.38241747406754456  0.2899834787306403  1.0000
  C   C9        1.0  0.3110115701666346  0.4837508011507551  0.7291322759887889  1.0000
  C   C10       1.0  0.6889861538367938  0.5162463855208442  0.2708666049742661  1.0000
  C   C11       1.0  0.4153600290699941  0.4239754775917888  0.8078124187574217  1.0000
  C   C12       1.0  0.5846322019423128  0.5760236531452135  0.19218535416715812  1.0000
  C   C13       1.0  0.45850178393654045  0.4950831958429944  0.8680323030678065  1.0000
  C   C14       1.0  0.5414984589172888  0.5049119912847857  0.1319647246463802  1.0000
  C   C15       1.0  0.39712351502480187  0.6282132807301438  0.8475812961537769  1.0000
  C   C16       1.0  0.6028792916937675  0.3717839079830868  0.15241512660931278  1.0000
  C   C17       1.0  0.4053420407641397  0.1764801552541968  0.9481324438627466  1.0000
  C   C18       1.0  0.5946586573799807  0.8235170868958124  0.05186939838765879  1.0000
  C   C19       1.0  0.2763115276884989  0.1521698446664743  0.9322770768177762  1.0000
  C   C20       1.0  0.7236892394725986  0.8478224887790375  0.06773065429742078  1.0000
  C   C21       1.0  0.20227289825873376  0.09874907554856797  0.022276953099002107  1.0000
  C   C22       1.0  0.7977296611702939  0.9012482908914167  0.9777340020674143  1.0000
  C   C23       1.0  0.25549041289667673  0.07241861243926448  0.1263845088444668  1.0000
  C   C24       1.0  0.7445145052591114  0.9275817286396945  0.8736240582516215  1.0000
  C   C25       1.0  0.38520041608146016  0.09666652067816268  0.14014237081367037  1.0000
  C   C26       1.0  0.6148116282877256  0.9033338157758453  0.8598621429117868  1.0000
  C   C27       1.0  0.4618890114491165  0.1471765060831061  0.050851431724630906  1.0000
  C   C28       1.0  0.5381158187058406  0.8528247238630086  0.9491484684822281  1.0000
  C   C29       1.0  0.1782772872394958  0.014279056193387898  0.22511658219090688  1.0000
  C   C30       1.0  0.8217340805803275  0.9857193842570737  0.7748961196749988  1.0000
  C   C31       1.0  0.3195983935987385  0.13519621861183137  0.6005092067507362  1.0000
  C   C32       1.0  0.680401392886786  0.8648049812305345  0.3994908570660982  1.0000
  C   C33       1.0  0.17716421285617662  0.1870951071236604  0.467015831536628  1.0000
  C   C34       1.0  0.8228348671087243  0.8129090773575315  0.5329842369658593  1.0000
  C   C35       1.0  0.5132280078246653  0.22963202289812304  0.4962609302361116  1.0000
  C   C36       1.0  0.48677003140726777  0.7703681450790185  0.5037371578272669  1.0000
  C   C37       1.0  0.5039891514778106  0.37000020933278677  0.49844243510587916  1.0000
  C   C38       1.0  0.49600739065283506  0.6300019548548831  0.5015567086210452  1.0000
  C   C39       1.0  0.3933694259953811  0.4741746335941599  0.4499952974240031  1.0000
  C   C40       1.0  0.6066271291505032  0.5258275212394636  0.550003081439584  1.0000
  C   C41       1.0  0.921558672400977  0.27872976416464473  0.7764807843789399  1.0000
  C   C42       1.0  0.07844013138113579  0.7212714109488941  0.22351778243321968  1.0000
  C   C43       1.0  0.0198832663175423  0.36962761555810897  0.6310022973109426  1.0000
  C   C44       1.0  0.9801159998014909  0.6303715760322246  0.3689967762863374  1.0000
  C   C45       1.0  0.8279335966599534  0.48389197739050627  0.831324965395268  1.0000
  C   C46       1.0  0.17206524616787533  0.5161091696609077  0.16867130682689438  1.0000
  C   C47       1.0  0.9176357618896989  0.49203210045724427  0.9184170144396973  1.0000
  C   C48       1.0  0.08236259257073904  0.507971048825439  0.08158028072401187  1.0000
  C   C49       1.0  0.9413982970289749  0.3901811278291802  0.016873730308368855  1.0000
  C   C50       1.0  0.058600044416223844  0.6098220308075496  0.9831243297186701  1.0000
  C   C51       1.0  0.9769144391582362  0.6019786531952747  0.9023690921017007  1.0000
  C   C52       1.0  0.023081640635488995  0.39802549451559344  0.09762954484010318  1.0000
  S   S1        1.0  0.49732840813606327  0.2539239756744323  0.8356196327281536  1.0000
  S   S2        1.0  0.5026718276711364  0.7460752499987748  0.1643817027371313  1.0000
  N   N1        1.0  0.19071687603103982  0.1315913521874492  0.5768310811679385  1.0000
  N   N2        1.0  0.8092836619894331  0.8684108641453393  0.4231702262610071  1.0000
  N   N3        1.0  0.2902951887238885  0.22556564106007224  0.422836562422212  1.0000
  N   N4        1.0  0.7097018737732487  0.774438531379623  0.5771635715242595  1.0000
  N   N5        1.0  0.37913210647343487  0.1921126573990009  0.508594737714084  1.0000
  N   N6        1.0  0.6208656755595569  0.8078885210478222  0.4914046266834048  1.0000
  N   N7        1.0  0.9960613525793816  0.249918473206705  0.6945330515566396  1.0000
  N   N8        1.0  0.0039388962430634885  0.7500807431124558  0.3054675190453153  1.0000
  N   N9        1.0  0.9649994118416104  0.46893806563199564  0.6695985616565139  1.0000
  N   N10       1.0  0.03499763167167199  0.5310620869703584  0.3303987942655268  1.0000
  N   N11       1.0  0.9031335965299406  0.40916933471049083  0.7616095636258037  1.0000
  N   N12       1.0  0.09686444270198541  0.5908308332666508  0.23838852443758182  1.0000
  O   O1        1.0  0.12742922414283697  0.8916369216657714  0.6845254396587991  1.0000
  O   O2        1.0  0.8725703572047081  0.10836525123010432  0.31547284103881174  1.0000
  O   O3        1.0  0.27914163417850085  0.8942116589628314  0.8065768813626446  1.0000
  O   O4        1.0  0.720857713972748  0.10578261456895895  0.19342731623610376  1.0000
  O   O5        1.0  0.47083690955447105  0.2112519762094465  0.7451299828393303  1.0000
  O   O6        1.0  0.5291642639418156  0.788743273063325  0.2548716013328658  1.0000
  O   O7        1.0  0.6388763104771159  0.2390767822432878  0.8700841133904474  1.0000
  O   O8        1.0  0.3611184193237377  0.7609243968493687  0.12991687889969233  1.0000
  O   O9        1.0  0.0626868926183732  0.9874819538394914  0.20492144612336466  1.0000
  O   O10       1.0  0.9373247324003984  0.0125154761412958  0.7950899794084306  1.0000
  O   O11       1.0  0.22793057024546215  0.9955112305471657  0.31639169407585405  1.0000
  O   O12       1.0  0.7720887513863204  0.004479274518850201  0.683619779145225  1.0000
  O   O13       1.0  0.8729642214059935  0.159434845525908  0.5090939520115043  1.0000
  O   O14       1.0  0.12702542567971153  0.8405663315251106  0.490909498478608  1.0000
