data_image0
_chemical_formula_structural       CdH24C24N12Cl2
_chemical_formula_sum              "Cd1 H24 C24 N12 Cl2"
_cell_length_a       7.5617996634814615
_cell_length_b       8.82938594776239
_cell_length_c       11.334438854541999
_cell_angle_alpha    105.64199461300817
_cell_angle_beta     90.41255733988193
_cell_angle_gamma    111.59211688390745

_space_group_name_H-M_alt    "P 1"
_space_group_IT_number       1

loop_
  _space_group_symop_operation_xyz
  'x, y, z'

loop_
  _atom_site_type_symbol
  _atom_site_label
  _atom_site_symmetry_multiplicity
  _atom_site_fract_x
  _atom_site_fract_y
  _atom_site_fract_z
  _atom_site_occupancy
  Cd  Cd1       1.0  0.9999988077720801  0.5000009033037285  0.49999983480986987  1.0000
  H   H1        1.0  0.23190891056517424  0.006537575313601  0.8682778745609808  1.0000
  H   H2        1.0  0.7680948301702911  0.9934588229908595  0.1317219651720761  1.0000
  H   H3        1.0  0.6993121053105326  0.40456045600733853  0.7839295106465726  1.0000
  H   H4        1.0  0.3006903721173231  0.5954422873816654  0.21607254827762998  1.0000
  H   H5        1.0  0.815170035549947  0.5381697086183478  0.007818326348072403  1.0000
  H   H6        1.0  0.18482979298038774  0.46183302413652433  0.9921828345312844  1.0000
  H   H7        1.0  0.6345484243862956  0.40535928077453315  0.16220349408966678  1.0000
  H   H8        1.0  0.36544851175525384  0.5946459754397891  0.8377990685558172  1.0000
  H   H9        1.0  0.2178156254288766  0.9819585721411952  0.07203205004370257  1.0000
  H   H10       1.0  0.7821799271614155  0.018040331690208695  0.9279665138124568  1.0000
  H   H11       1.0  0.4130783465562615  0.11633527003191088  0.1906923112527039  1.0000
  H   H12       1.0  0.5869161118252889  0.8836610727063883  0.8093092338668126  1.0000
  H   H13       1.0  0.48520887569654997  0.16777869245982655  0.6170204046300894  1.0000
  H   H14       1.0  0.5147949353540114  0.8322240712571727  0.3829781363264786  1.0000
  H   H15       1.0  0.3205350633625628  0.9824981040302063  0.6491732566013011  1.0000
  H   H16       1.0  0.6794631422025575  0.017500817106856904  0.3508244421930015  1.0000
  H   H17       1.0  0.8705461799610462  0.3437326554210003  0.18128440928274608  1.0000
  H   H18       1.0  0.12945364245332774  0.6562700673265881  0.8187193962566468  1.0000
  H   H19       1.0  0.32518961642588823  0.2982903549940659  0.3664044884140906  1.0000
  H   H20       1.0  0.6748093675029453  0.7017072925813962  0.633594709257636  1.0000
  H   H21       1.0  0.7904994211481053  0.1397275913894873  0.6317447450498719  1.0000
  H   H22       1.0  0.20950328957774647  0.8602726012271233  0.36825942183009625  1.0000
  H   H23       1.0  0.3675193572462803  0.3941650832039372  0.5908848557513763  1.0000
  H   H24       1.0  0.632478076071088  0.6058351215020108  0.40910869950545947  1.0000
  C   C1        1.0  0.4258639952779646  0.19427101072582784  0.024201103140377697  1.0000
  C   C2        1.0  0.5741366177320515  0.80573045847472  0.9757989119563817  1.0000
  C   C3        1.0  0.36108549591826744  0.12187711953977498  0.8985693059963251  1.0000
  C   C4        1.0  0.63891667993515  0.8781218125448477  0.10143106219525325  1.0000
  C   C5        1.0  0.4572355683695051  0.19770007811166576  0.8116221380536004  1.0000
  C   C6        1.0  0.5427652820158214  0.8022988469880088  0.18837822189222914  1.0000
  C   C7        1.0  0.6230125225112105  0.34608858751540345  0.8516913706813583  1.0000
  C   C8        1.0  0.37698887090117955  0.6539116114592999  0.14830926173947737  1.0000
  C   C9        1.0  0.6887609011379539  0.4200858150600411  0.9774779895131829  1.0000
  C   C10       1.0  0.3112397118720621  0.5799156541405067  0.022522025583569406  1.0000
  C   C11       1.0  0.5888622068876332  0.3454923023814942  0.0634125076865146  1.0000
  C   C12       1.0  0.41113894507213183  0.6545104340225618  0.9365895429919389  1.0000
  C   C13       1.0  0.31619574722859783  0.11387756353926898  0.11682038162933846  1.0000
  C   C14       1.0  0.6838037797272989  0.8861213579112217  0.8831790885174016  1.0000
  C   C15       1.0  0.3766717329276971  0.12237148561111869  0.6770655631834046  1.0000
  C   C16       1.0  0.6233341819546611  0.8776300115292271  0.3229344848963435  1.0000
  C   C17       1.0  0.990092461369507  0.3110656084630888  0.20068786328934607  1.0000
  C   C18       1.0  0.009907604536138656  0.6889345801909101  0.7993136424390952  1.0000
  C   C19       1.0  0.21682414176258646  0.28959699579102244  0.29838393594916107  1.0000
  C   C20       1.0  0.7831753851933102  0.710401925659461  0.7016155341975788  1.0000
  C   C21       1.0  0.9441138749286963  0.17545363464731165  0.6328732350011987  1.0000
  C   C22       1.0  0.05588534841410104  0.8245414721630338  0.3671254259662575  1.0000
  C   C23       1.0  0.23469991293985976  0.307491726639384  0.6111924426727455  1.0000
  C   C24       1.0  0.7653014845498377  0.6925084790068469  0.388806426641402  1.0000
  N   N1        1.0  0.2020312166642171  0.20799717046875094  0.1779231052003425  1.0000
  N   N2        1.0  0.797967527850659  0.7920030178718206  0.8220766291756547  1.0000
  N   N3        1.0  0.058043431727306014  0.2204925522537522  0.1133835773023222  1.0000
  N   N4        1.0  0.9419550733735991  0.7795101768519289  0.8866166937779525  1.0000
  N   N5        1.0  0.0832735642645801  0.35653426466626564  0.3158512408280528  1.0000
  N   N6        1.0  0.916726503679719  0.64346592732349  0.6841493833470408  1.0000
  N   N7        1.0  0.22023179767991516  0.1725943020014853  0.6495940775848651  1.0000
  N   N8        1.0  0.7797733306841154  0.8274084553574212  0.3504079978308283  1.0000
  N   N9        1.0  0.0352172718339574  0.08652335727151689  0.664916425773697  1.0000
  N   N10       1.0  0.9647880959440371  0.9134768593222728  0.3350851129377332  1.0000
  N   N11       1.0  0.061338555929005174  0.3132237899402312  0.5995088587280647  1.0000
  N   N12       1.0  0.9386601305026973  0.6867700530023696  0.4004868851043568  1.0000
  Cl  Cl1       1.0  0.36857836946626327  0.7018720777232802  0.5628194727009017  1.0000
  Cl  Cl2       1.0  0.6314195926075783  0.29812937750737223  0.4371805259043666  1.0000
