data_image0
_chemical_formula_structural       Zn8Cd4H72C108O48
_chemical_formula_sum              "Zn8 Cd4 H72 C108 O48"
_cell_length_a       7.35044134648628
_cell_length_b       18.459956448264023
_cell_length_c       23.486713940490112
_cell_angle_alpha    89.9994154912311
_cell_angle_beta     90.00047680215849
_cell_angle_gamma    90.00121340908856

_space_group_name_H-M_alt    "P 1"
_space_group_IT_number       1

loop_
  _space_group_symop_operation_xyz
  'x, y, z'

loop_
  _atom_site_type_symbol
  _atom_site_label
  _atom_site_symmetry_multiplicity
  _atom_site_fract_x
  _atom_site_fract_y
  _atom_site_fract_z
  _atom_site_occupancy
  Zn  Zn1       1.0  0.16312706525825144  0.5578541417439098  0.08020929103654592  1.0000
  Zn  Zn2       1.0  0.3368813965856461  0.05785475263382268  0.9197900305993303  1.0000
  Zn  Zn3       1.0  0.8368640367949849  0.4421476307679343  0.5802125053958351  1.0000
  Zn  Zn4       1.0  0.6631115119861235  0.942146405963541  0.41979318623717193  1.0000
  Zn  Zn5       1.0  0.8368765038573187  0.44214542790396644  0.9197870419181061  1.0000
  Zn  Zn6       1.0  0.6631235330410232  0.9421448169949542  0.08021013431085323  1.0000
  Zn  Zn7       1.0  0.16313545109247937  0.55785735598522  0.41978510484941733  1.0000
  Zn  Zn8       1.0  0.33687709228021834  0.057859122423416016  0.5802095332626609  1.0000
  Cd  Cd1       1.0  0.5000036094510135  0.499997340469676  8.050026139000003e-07  1.0000
  Cd  Cd2       1.0  1.4965165014799998e-05  1.0834647597e-06  3.831969735300001e-06  1.0000
  Cd  Cd3       1.0  0.4999909009641995  0.5000033059059632  0.4999992308799507  1.0000
  Cd  Cd4       1.0  6.3379349626e-06  2.7152219316999994e-06  0.5000009805521161  1.0000
  H   H1        1.0  0.2529249520164782  0.30406696569737335  0.97573715559048  1.0000
  H   H2        1.0  0.9947376064740466  0.348426148679053  0.1362412395527528  1.0000
  H   H3        1.0  0.09390767135338507  0.1279405576034378  0.08540577279249113  1.0000
  H   H4        1.0  0.06855315330302149  0.1908737530924185  0.20204419515205538  1.0000
  H   H5        1.0  0.8777944455647455  0.24922081465345508  0.19464215527966647  1.0000
  H   H6        1.0  0.8720220012283021  0.15968284059171367  0.16666668998768597  1.0000
  H   H7        1.0  0.8009728666009434  0.4596600102760532  0.15791916867048175  1.0000
  H   H8        1.0  0.0896620109045898  0.44025302218081913  0.21211274649337505  1.0000
  H   H9        1.0  0.24707068480694966  0.8040618336588494  0.02425763648897571  1.0000
  H   H10       1.0  0.5052506707023312  0.8484302845294494  0.8637524306573854  1.0000
  H   H11       1.0  0.4061072187741671  0.627940931874967  0.9145925609022002  1.0000
  H   H12       1.0  0.4314569031430365  0.6908796476610846  0.7979506533047458  1.0000
  H   H13       1.0  0.6222171538136861  0.7492294083754771  0.805356142645451  1.0000
  H   H14       1.0  0.6279875827290906  0.659690578570924  0.8333306230509978  1.0000
  H   H15       1.0  0.6990430616139278  0.9596481937717131  0.8420821248631472  1.0000
  H   H16       1.0  0.4103517132652783  0.9402366581511854  0.7878881914127691  1.0000
  H   H17       1.0  0.7470775375392121  0.6959296750641427  0.4757395346133821  1.0000
  H   H18       1.0  0.0052589973361563  0.6515705631534274  0.6362456166141117  1.0000
  H   H19       1.0  0.906108050601972  0.8720578973498547  0.5854031728053217  1.0000
  H   H20       1.0  0.9314478395456474  0.8091210215841045  0.7020460010230851  1.0000
  H   H21       1.0  0.12220772008399187  0.7507729726320918  0.6946452038209616  1.0000
  H   H22       1.0  0.1279848971023227  0.8403129348245882  0.6666694618307007  1.0000
  H   H23       1.0  0.1990038798692452  0.5403380453515253  0.6579232629863869  1.0000
  H   H24       1.0  0.9103365168566524  0.5597594983224567  0.7121237332128846  1.0000
  H   H25       1.0  0.7529189986664804  0.1959330807845276  0.5242651515885799  1.0000
  H   H26       1.0  0.49473945685274134  0.15157160109002626  0.36376019142151267  1.0000
  H   H27       1.0  0.5938937208507723  0.37206029417122727  0.4145988233274594  1.0000
  H   H28       1.0  0.5685574049485494  0.30912038326317776  0.2979556484115947  1.0000
  H   H29       1.0  0.37779462109271816  0.2507710681739539  0.30536023428045683  1.0000
  H   H30       1.0  0.3720235408720214  0.3403095350319347  0.333332703429882  1.0000
  H   H31       1.0  0.30095876028440927  0.0403398885618031  0.34208343721721957  1.0000
  H   H32       1.0  0.5896555369027182  0.059745626789954515  0.287889709209999  1.0000
  H   H33       1.0  0.4923973468630435  0.8638378298899596  0.7500020835642902  1.0000
  H   H34       1.0  0.7470786172051687  0.6959331456166353  0.024266415496732904  1.0000
  H   H35       1.0  0.005240113898565799  0.6515728791157687  0.8637597768677882  1.0000
  H   H36       1.0  0.9061027002508552  0.8720611788648539  0.9145999271606303  1.0000
  H   H37       1.0  0.9314368111804113  0.8091231078991965  0.7979572470664922  1.0000
  H   H38       1.0  0.12220096082443628  0.7507771297735957  0.8053614158051093  1.0000
  H   H39       1.0  0.12796932377683126  0.8403156455366413  0.833336029544093  1.0000
  H   H40       1.0  0.19905519126677257  0.5403520188269225  0.8420848281749401  1.0000
  H   H41       1.0  0.9103456399859836  0.5597562982536388  0.7878938049708852  1.0000
  H   H42       1.0  0.007620498743165199  0.36385192332144817  0.2499994671680669  1.0000
  H   H43       1.0  0.7529151981217977  0.19593340223973144  0.9757340129600041  1.0000
  H   H44       1.0  0.494763782059671  0.1515676600308282  0.13624305077335216  1.0000
  H   H45       1.0  0.5938990712000205  0.3720575543775979  0.08540079165208435  1.0000
  H   H46       1.0  0.5685725147551322  0.3091199220991285  0.20204525391249464  1.0000
  H   H47       1.0  0.37780954318641585  0.25077016135939084  0.19464189343123917  1.0000
  H   H48       1.0  0.3720391142172374  0.3403073660302027  0.16666656148694875  1.0000
  H   H49       1.0  0.30097411174937594  0.04033404107360639  0.15792059476903836  1.0000
  H   H50       1.0  0.5896586578734143  0.05974666006108717  0.2121192117047457  1.0000
  H   H51       1.0  0.2529069853501511  0.3040774784613518  0.5242606302385726  1.0000
  H   H52       1.0  0.9947309672438461  0.3484311732725444  0.36375327094909704  1.0000
  H   H53       1.0  0.0938941582053374  0.12794546425623568  0.4145974178585804  1.0000
  H   H54       1.0  0.0685570900936838  0.19087800631777438  0.2979562927524314  1.0000
  H   H55       1.0  0.8777944885549188  0.2492244301355626  0.3053545353215697  1.0000
  H   H56       1.0  0.8720186720690817  0.1596860930742849  0.3333324061703281  1.0000
  H   H57       1.0  0.8009806427499482  0.45965664874257334  0.3420815854144836  1.0000
  H   H58       1.0  0.08966977367894197  0.4402530723737074  0.28788452132701553  1.0000
  H   H59       1.0  0.9923898730797163  0.6361568554004078  0.7500087873926023  1.0000
  H   H60       1.0  0.24707776827620614  0.8040713642467735  0.47573203288250465  1.0000
  H   H61       1.0  0.505258670604384  0.8484350108021487  0.6362365672701034  1.0000
  H   H62       1.0  0.40610576709585894  0.6279463177129117  0.5854000642291697  1.0000
  H   H63       1.0  0.43144888528019715  0.6908856869449949  0.7020419618385818  1.0000
  H   H64       1.0  0.622211669155746  0.7492355437445468  0.6946378017401786  1.0000
  H   H65       1.0  0.6279868307353665  0.6596959934776905  0.6666653326006584  1.0000
  H   H66       1.0  0.6990339249540157  0.9596499301629251  0.6579192823511735  1.0000
  H   H67       1.0  0.41034531094452115  0.9402360662482112  0.7121168423557904  1.0000
  H   H68       1.0  0.5076089428772832  0.13614548831053236  0.25000446800240184  1.0000
  H   H69       1.0  0.34234667038968064  0.5443559350271555  0.2500000509659586  1.0000
  H   H70       1.0  0.15766107752213535  0.0443599379180242  0.7499989531547372  1.0000
  H   H71       1.0  0.6576541777848418  0.45564200945610617  0.7499984108546516  1.0000
  H   H72       1.0  0.8423248056648872  0.9556417984934101  0.24999950863027465  1.0000
  C   C1        1.0  0.19133908516111117  0.28459401817396923  0.014972691277840502  1.0000
  C   C2        1.0  0.12488502756056616  0.3339570803893181  0.05522920504492392  1.0000
  C   C3        1.0  0.045831247189902086  0.3088382650506817  0.10575435891237821  1.0000
  C   C4        1.0  0.1492256610711847  0.4131264535364281  0.04457906986816341  1.0000
  C   C5        1.0  0.24906697284902884  0.15631085180412896  0.9851341191294696  1.0000
  C   C6        1.0  0.1774401373114286  0.21049512293665623  0.02575438409255781  1.0000
  C   C7        1.0  0.10017811187987749  0.1859944049927975  0.07702464002813512  1.0000
  C   C8        1.0  0.0345593654525018  0.23470632936432878  0.11762858801240132  1.0000
  C   C9        1.0  0.9585283553414569  0.20745142591234614  0.17305618618351565  1.0000
  C   C10       1.0  0.4634516448248788  0.5180721338370091  0.14397144031894984  1.0000
  C   C11       1.0  0.5611480986348596  0.5024930674647833  0.19851736777071247  1.0000
  C   C12       1.0  0.7349517994162013  0.47110911416621076  0.19862076748562177  1.0000
  C   C13       1.0  0.30865688214895204  0.7845915690349372  0.98502353430591  1.0000
  C   C14       1.0  0.3751094696141379  0.833957342123824  0.9447679018920783  1.0000
  C   C15       1.0  0.4541592004280871  0.808842019429612  0.8942420979432699  1.0000
  C   C16       1.0  0.3507798262128857  0.9131247456194489  0.9554186793749867  1.0000
  C   C17       1.0  0.25094261551884495  0.656306416161854  0.014861858149878103  1.0000
  C   C18       1.0  0.3225627941189444  0.7104945566990821  0.9742415843111022  1.0000
  C   C19       1.0  0.39982760495179537  0.6859946173280349  0.9229723764470068  1.0000
  C   C20       1.0  0.46544076542176777  0.7347097916970283  0.8823688892585014  1.0000
  C   C21       1.0  0.5414810344355772  0.7074568882131871  0.8269394663840048  1.0000
  C   C22       1.0  0.0365615150019067  0.0180742759956232  0.8560269230993572  1.0000
  C   C23       1.0  0.9388626934166735  0.0024901191437223  0.8014833350287209  1.0000
  C   C24       1.0  0.7650633740648302  0.9711016357931824  0.8013795826485862  1.0000
  C   C25       1.0  0.8086653279998682  0.7154037254108443  0.5149732111225733  1.0000
  C   C26       1.0  0.8751176852404257  0.6660412243080316  0.5552290246535352  1.0000
  C   C27       1.0  0.9541713860311275  0.6911593840958048  0.6057554698357493  1.0000
  C   C28       1.0  0.8507767818920013  0.5868746978637844  0.5445854189709182  1.0000
  C   C29       1.0  0.7509411968024509  0.8436872922095446  0.48513489771352186  1.0000
  C   C30       1.0  0.8225699909464406  0.7895003139440959  0.5257530701577267  1.0000
  C   C31       1.0  0.8998319557766619  0.8140041586669254  0.5770237659217374  1.0000
  C   C32       1.0  0.9654435688286539  0.7652927908633416  0.6176291350259222  1.0000
  C   C33       1.0  0.04147870496073839  0.792544266608246  0.6730582538526095  1.0000
  C   C34       1.0  0.536513864215017  0.481923394178466  0.6439701107892051  1.0000
  C   C35       1.0  0.4388255955959365  0.4975033779951303  0.6985190531741241  1.0000
  C   C36       1.0  0.26502869987739064  0.5288911219579688  0.6986247078153627  1.0000
  C   C37       1.0  0.6913308777586377  0.21540332600579154  0.48503089311600445  1.0000
  C   C38       1.0  0.6248827117146972  0.16604132550953923  0.44477590130865263  1.0000
  C   C39       1.0  0.5458303395770584  0.191158928893401  0.3942484031070423  1.0000
  C   C40       1.0  0.649216706411309  0.08687270045381719  0.4554209935473283  1.0000
  C   C41       1.0  0.7490536321504775  0.34369187049905753  0.5148686032856846  1.0000
  C   C42       1.0  0.6774260529649395  0.28950156165388563  0.4742504397293035  1.0000
  C   C43       1.0  0.6001694656931702  0.3140043331107237  0.4229808247442009  1.0000
  C   C44       1.0  0.5345620781144617  0.2652886021790621  0.38237329175187557  1.0000
  C   C45       1.0  0.4585244852846841  0.29254168313134  0.3269442945603417  1.0000
  C   C46       1.0  0.9634297771190532  0.9819293350491595  0.35602759781422594  1.0000
  C   C47       1.0  0.06113401794737429  0.9975022819241982  0.3014827026974843  1.0000
  C   C48       1.0  0.23494013686541138  0.028885891225407096  0.3013799553801421  1.0000
  C   C49       1.0  0.8086590421620484  0.7154044679804697  0.9850304540358368  1.0000
  C   C50       1.0  0.8751090184144698  0.6660424891684614  0.9447747918041148  1.0000
  C   C51       1.0  0.9541532755204684  0.6911613044805377  0.8942475090605202  1.0000
  C   C52       1.0  0.8507765476574177  0.5868731160670038  0.9554232239014769  1.0000
  C   C53       1.0  0.7509365963832194  0.843690884665712  0.014866897315435805  1.0000
  C   C54       1.0  0.8225593504420698  0.7895017380787619  0.9742496127747561  1.0000
  C   C55       1.0  0.89982137596499  0.8140057062983813  0.9229797825987804  1.0000
  C   C56       1.0  0.9654292386705662  0.7652937818917634  0.8823741315091529  1.0000
  C   C57       1.0  0.04146705101180709  0.7925459768126685  0.8269456818129088  1.0000
  C   C58       1.0  0.5365736918200595  0.4819323113209252  0.8560248926458062  1.0000
  C   C59       1.0  0.4388568311475537  0.4975130027293276  0.801481519795509  1.0000
  C   C60       1.0  0.26506537462049806  0.5288985811942197  0.8013819520444516  1.0000
  C   C61       1.0  0.6913344426568884  0.215403666872902  0.014970244013639404  1.0000
  C   C62       1.0  0.6248900180349607  0.16604006066544488  0.05522672797516751  1.0000
  C   C63       1.0  0.5458457291070288  0.1911559250847645  0.10575423501975224  1.0000
  C   C64       1.0  0.6492305451528039  0.086871032046318  0.04458063401256141  1.0000
  C   C65       1.0  0.7490527906924311  0.3436899031949849  0.9851310686256272  1.0000
  C   C66       1.0  0.6774285306885659  0.2895017626487403  0.025750065140947208  1.0000
  C   C67       1.0  0.6001759640203089  0.31400116035032255  0.07702055034179273  1.0000
  C   C68       1.0  0.5345696058972109  0.2652854442722159  0.11762786949542914  1.0000
  C   C69       1.0  0.4585347787943447  0.29254105635009603  0.17305644082121324  1.0000
  C   C70       1.0  0.9634434144868889  0.9819198764995177  0.14397366760518085  1.0000
  C   C71       1.0  0.06114087546817609  0.9974980744934001  0.19851853301576486  1.0000
  C   C72       1.0  0.23494835746269868  0.028881140742150497  0.19862313697401396  1.0000
  C   C73       1.0  0.19132463669475183  0.2846023447198363  0.48502567642324845  1.0000
  C   C74       1.0  0.12487091896115028  0.3339643041120723  0.444768585574714  1.0000
  C   C75       1.0  0.04582129947392839  0.30884235234170626  0.3942434177311613  1.0000
  C   C76       1.0  0.14921046189189718  0.41313191396844223  0.45541346856902737  1.0000
  C   C77       1.0  0.24906101205676376  0.15631823625166422  0.5148652671690572  1.0000
  C   C78       1.0  0.17742677601615503  0.21050304763616617  0.4742479462713904  1.0000
  C   C79       1.0  0.1001661716843856  0.1859997446211494  0.4229789535975856  1.0000
  C   C80       1.0  0.0345518376695537  0.23471111243253517  0.382370604081274  1.0000
  C   C81       1.0  0.9585235037660025  0.2074558447165629  0.3269427625969571  1.0000
  C   C82       1.0  0.4634556932300383  0.5180712998963911  0.3560279252291637  1.0000
  C   C83       1.0  0.5611534851191918  0.5024913161035228  0.3014815374930181  1.0000
  C   C84       1.0  0.7349544623436585  0.47110682241993374  0.3013784374800964  1.0000
  C   C85       1.0  0.30866588919483456  0.7846011190199816  0.5149671429003393  1.0000
  C   C86       1.0  0.37511949713540094  0.8339652863971734  0.55522128316116  1.0000
  C   C87       1.0  0.4541705087710638  0.8088465995869001  0.6057479298199981  1.0000
  C   C88       1.0  0.35078822329220566  0.9131312028990025  0.5445761909370577  1.0000
  C   C89       1.0  0.25093089069590485  0.6563136578871749  0.4851315615727857  1.0000
  C   C90       1.0  0.3225625512492981  0.7105034250393201  0.5257492993642716  1.0000
  C   C91       1.0  0.39982866177307835  0.6860011953359476  0.5770189143601885  1.0000
  C   C92       1.0  0.4654414911068016  0.7347147594576597  0.617623466960197  1.0000
  C   C93       1.0  0.5414790839760286  0.7074627619260311  0.6730533156926486  1.0000
  C   C94       1.0  0.036557466469659496  0.0180696927970843  0.6439717155287641  1.0000
  C   C95       1.0  0.938861388237491  0.002489161962373  0.6985183137775767  1.0000
  C   C96       1.0  0.7650579901460759  0.9711012189597169  0.698622338433893  1.0000
  C   C97       1.0  0.47564139505514186  0.5189225289445005  0.249998631540315  1.0000
  C   C98       1.0  0.8245602716120074  0.45584260251384734  0.24999808273732074  1.0000
  C   C99       1.0  0.012949648443459697  0.4235324767608403  0.249997957757735  1.0000
  C   C100      1.0  0.024370449261851897  0.0189226931136091  0.7500014281534606  1.0000
  C   C101      1.0  0.6754527337131718  0.9558306972842204  0.750000686777142  1.0000
  C   C102      1.0  0.4870699935590607  0.9235167130114802  0.7500009854100116  1.0000
  C   C103      1.0  0.5243567322121904  0.4810764989589273  0.7499989787269785  1.0000
  C   C104      1.0  0.17544465815087307  0.5441613008085824  0.7500037852460084  1.0000
  C   C105      1.0  0.9870580024936257  0.576479010531486  0.7500077421525692  1.0000
  C   C106      1.0  0.9756222360857902  0.9810714593185783  0.25000086562492646  1.0000
  C   C107      1.0  0.32455899778216946  0.04415045410632961  0.2500028843972332  1.0000
  C   C108      1.0  0.5129417379292106  0.0764633549418434  0.2500042888592305  1.0000
  O   O1        1.0  0.24394508964995507  0.43151504059302676  0.001960987882988301  1.0000
  O   O2        1.0  0.07453109503851607  0.4576552634489913  0.08017678765881443  1.0000
  O   O3        1.0  0.21739509756890388  0.0882200230691339  0.9956083557862958  1.0000
  O   O4        1.0  0.3444161915062622  0.17123085894334616  0.9415431614507032  1.0000
  O   O5        1.0  0.5279825755480658  0.4928955065319798  0.09799031389783154  1.0000
  O   O6        1.0  0.31604113085757024  0.5554269320685493  0.14827735399945405  1.0000
  O   O7        1.0  0.256064091267902  0.931514143516864  0.998035336545222  1.0000
  O   O8        1.0  0.4254821897483935  0.9576595261283668  0.9198244363495082  1.0000
  O   O9        1.0  0.2826231331683643  0.588215991888063  0.004388593447068002  1.0000
  O   O10       1.0  0.15558466268772966  0.6712207155668537  0.058451844617771115  1.0000
  O   O11       1.0  0.9720323902960002  0.9929031035838916  0.9020090098770129  1.0000
  O   O12       1.0  0.1839780863045774  0.0554287548157646  0.8517202840248645  1.0000
  O   O13       1.0  0.7560562727836666  0.5684823300499178  0.5019672263204527  1.0000
  O   O14       1.0  0.9254640875624387  0.5423443426283044  0.5801832717562478  1.0000
  O   O15       1.0  0.7826514304454687  0.9117769018294336  0.49560186222256436  1.0000
  O   O16       1.0  0.6555663849436397  0.8287732676371675  0.44154848325698753  1.0000
  O   O17       1.0  0.4719681632112297  0.5071011597190065  0.5979890322761819  1.0000
  O   O18       1.0  0.6839231268520648  0.4445696235290058  0.648271616621699  1.0000
  O   O19       1.0  0.7439403240192984  0.06848112450958148  0.4980389079553761  1.0000
  O   O20       1.0  0.5745134406100688  0.04234217375996959  0.4198256267916778  1.0000
  O   O21       1.0  0.7173442792879213  0.4117808053711727  0.5043993895285723  1.0000
  O   O22       1.0  0.8444262946351697  0.3287775473277962  0.5584555631417276  1.0000
  O   O23       1.0  0.0279655095382552  0.0071064114498611  0.4020094190218801  1.0000
  O   O24       1.0  0.8160144572629378  0.9445792457916156  0.35172468849084754  1.0000
  O   O25       1.0  0.7560598399679817  0.568482362158541  0.9980430089895693  1.0000
  O   O26       1.0  0.9254724742153185  0.5423464730098003  0.9198259318766165  1.0000
  O   O27       1.0  0.7826452042181697  0.9117811718019053  0.004399047300317702  1.0000
  O   O28       1.0  0.6555601685307194  0.8287752111462224  0.05845317144078882  1.0000
  O   O29       1.0  0.4720563657545184  0.5071089386670592  0.9020085737212613  1.0000
  O   O30       1.0  0.6839896476767322  0.4445802216944656  0.8517164243260711  1.0000
  O   O31       1.0  0.7439462800548  0.06848000900963308  0.0019639768488418003  1.0000
  O   O32       1.0  0.5745336236754355  0.0423416686581888  0.08017998629530612  1.0000
  O   O33       1.0  0.7173532264813927  0.4117787022708654  0.995600927127946  1.0000
  O   O34       1.0  0.8444216272758567  0.3287761455298792  0.9415440625788138  1.0000
  O   O35       1.0  0.027976620671729794  0.0070942992043185995  0.09799200659269053  1.0000
  O   O36       1.0  0.8160186805577325  0.9445708147728878  0.14828073241945824  1.0000
  O   O37       1.0  0.24392280820888598  0.43152428175599056  0.4980303838904734  1.0000
  O   O38       1.0  0.0745190747747131  0.45766064405564316  0.41981433846675753  1.0000
  O   O39       1.0  0.21736030164790066  0.08822808495353482  0.5043991542204297  1.0000
  O   O40       1.0  0.3444344634619866  0.17123280253412074  0.5584512558489367  1.0000
  O   O41       1.0  0.5279755454423025  0.49289299252765767  0.40200985525439864  1.0000
  O   O42       1.0  0.31604915158037267  0.55543048772968  0.35172003278918873  1.0000
  O   O43       1.0  0.25607276849156335  0.9315244040226176  0.5019574249883549  1.0000
  O   O44       1.0  0.4254806054096178  0.9576601043770551  0.5801762411833382  1.0000
  O   O45       1.0  0.28264160399940147  0.5882247230318783  0.4955990722412269  1.0000
  O   O46       1.0  0.15555414685768912  0.6712290644645477  0.4415450274794709  1.0000
  O   O47       1.0  0.9720217340683204  0.9928936998280803  0.5979890427715022  1.0000
  O   O48       1.0  0.1839646237244068  0.05542574085569639  0.6482759021350193  1.0000
