data_image0
_chemical_formula_structural       Cd2H34C46N4O12
_chemical_formula_sum              "Cd2 H34 C46 N4 O12"
_cell_length_a       10.356602430417857
_cell_length_b       11.497968434932611
_cell_length_c       12.37823154249865
_cell_angle_alpha    113.28607941308158
_cell_angle_beta     107.80932789586741
_cell_angle_gamma    100.7472784641371

_space_group_name_H-M_alt    "P 1"
_space_group_IT_number       1

loop_
  _space_group_symop_operation_xyz
  'x, y, z'

loop_
  _atom_site_type_symbol
  _atom_site_label
  _atom_site_symmetry_multiplicity
  _atom_site_fract_x
  _atom_site_fract_y
  _atom_site_fract_z
  _atom_site_occupancy
  Cd  Cd1       1.0  0.9302313334474801  0.30708704880598253  0.431958604890376  1.0000
  Cd  Cd2       1.0  0.06976670066281801  0.6929113187169023  0.5680397157844865  1.0000
  H   H1        1.0  0.7047261919160234  0.36121738088975525  0.06370780904271808  1.0000
  H   H2        1.0  0.29527339864223723  0.6387850594775202  0.9362956149676265  1.0000
  H   H3        1.0  0.12113841196229909  0.7457379056907526  0.17041552389491701  1.0000
  H   H4        1.0  0.878867714030086  0.25426040976533665  0.8295856668836377  1.0000
  H   H5        1.0  0.1402922419574324  0.6370010204357045  0.3093621587169154  1.0000
  H   H6        1.0  0.8597100755801035  0.36299530822396514  0.6906389505836897  1.0000
  H   H7        1.0  0.5142945317745884  0.3768078338231291  0.9506350868948914  1.0000
  H   H8        1.0  0.4857057572396854  0.6231884682922768  0.04936064379352704  1.0000
  H   H9        1.0  0.5575490299005351  0.26282100685186544  0.8321017536654549  1.0000
  H   H10       1.0  0.44244899841559965  0.7371773193900069  0.16789170326721603  1.0000
  H   H11       1.0  0.26779523447594034  0.1673369285372175  0.7418158510527205  1.0000
  H   H12       1.0  0.7322051304435178  0.83266752073159  0.25818688213058033  1.0000
  H   H13       1.0  0.04828396300233347  0.15781790926574493  0.5778233675325096  1.0000
  H   H14       1.0  0.9517131366142946  0.8421886196590763  0.42218250882592656  1.0000
  H   H15       1.0  0.2785375336819769  0.4964771495853668  0.5814585516147943  1.0000
  H   H16       1.0  0.721460029318706  0.503525271117816  0.41854030440706674  1.0000
  H   H17       1.0  0.5093830480247303  0.5218154414352297  0.7481142655241653  1.0000
  H   H18       1.0  0.49061552247772516  0.4781869443789048  0.2518816054378945  1.0000
  H   H19       1.0  0.9649355697491087  0.7830997304604068  0.8879470314039396  1.0000
  H   H20       1.0  0.0350626984674562  0.2168966001520758  0.11204980566187568  1.0000
  H   H21       1.0  0.0986945645432016  0.770031048560007  0.0075551460262986815  1.0000
  H   H22       1.0  0.9013082893864919  0.2299692983909267  0.9924435135615112  1.0000
  H   H23       1.0  0.7518237365981975  0.8308408503120789  0.0011812637159068502  1.0000
  H   H24       1.0  0.2481793572319262  0.16915750100945812  0.9988207760050472  1.0000
  H   H25       1.0  0.7475724028633691  0.03893909827518631  0.1728865000210504  1.0000
  H   H26       1.0  0.2524299137084681  0.9610572235043192  0.8271137986558512  1.0000
  H   H27       1.0  0.19480979095363432  0.20272556300326974  0.35577206306249554  1.0000
  H   H28       1.0  0.8051916634652158  0.7972737799850975  0.6442258738801385  1.0000
  H   H29       1.0  0.21884443479815013  0.005072678702561  0.19004553732710144  1.0000
  H   H30       1.0  0.7811591925270491  0.994929670269727  0.8099516208099614  1.0000
  H   H31       1.0  0.7345885094513631  0.9629266887386617  0.5311466733290259  1.0000
  H   H32       1.0  0.26541030191722104  0.037073708326254  0.4688533883898812  1.0000
  H   H33       1.0  0.45133020935061546  0.1645140270898935  0.4236099884332489  1.0000
  H   H34       1.0  0.548669226201916  0.8354853581558855  0.5763906761341743  1.0000
  C   C1        1.0  0.9281572256216034  0.4279134109972063  0.27695555488322293  1.0000
  C   C2        1.0  0.07184259807721821  0.572086985579503  0.7230455748943783  1.0000
  C   C3        1.0  0.9230140996877552  0.4928758425205401  0.19376518043909388  1.0000
  C   C4        1.0  0.07698611408875417  0.5071255791474413  0.8062380357960776  1.0000
  C   C5        1.0  0.7937701701477378  0.4449196703015872  0.08322854556501366  1.0000
  C   C6        1.0  0.20623004266307987  0.5550817444862232  0.9167738600464544  1.0000
  C   C7        1.0  0.7815002637153794  0.5046567334509575  0.00445289337062602  1.0000
  C   C8        1.0  0.2185039916565472  0.49534463122287065  0.9955481101097517  1.0000
  C   C9        1.0  0.9014166538681182  0.6129177759411988  0.034084738156771474  1.0000
  C   C10       1.0  0.09858682810830287  0.3870815867112682  0.9659177667743534  1.0000
  C   C11       1.0  0.02887076860929482  0.6612448094919827  0.1450304455760475  1.0000
  C   C12       1.0  0.9711296763763925  0.3387545546250905  0.8549688551789886  1.0000
  C   C13       1.0  0.040018677500185645  0.6010653172742196  0.22427223220329046  1.0000
  C   C14       1.0  0.9599827807814378  0.39893405323481795  0.7757289472341354  1.0000
  C   C15       1.0  0.5368061510977995  0.3591616106878064  0.8647350609906397  1.0000
  C   C16       1.0  0.46319289051427137  0.6408367219460301  0.13526027462442156  1.0000
  C   C17       1.0  0.4064240494142125  0.3483451382020135  0.7604255375489402  1.0000
  C   C18       1.0  0.5935761595338249  0.6516562490651197  0.23957362556774356  1.0000
  C   C19       1.0  0.2755900163259212  0.2439319370998305  0.7107809652377882  1.0000
  C   C20       1.0  0.7244109747088742  0.7560715141101824  0.28922399204142824  1.0000
  C   C21       1.0  0.15295832883604274  0.23660342353279154  0.6185211345205771  1.0000
  C   C22       1.0  0.8470410266502525  0.7634010468647218  0.3814829624751113  1.0000
  C   C23       1.0  0.28120037073607307  0.4258132318670603  0.6198730197108303  1.0000
  C   C24       1.0  0.7187951705012096  0.5741892104530278  0.3801261320647241  1.0000
  C   C25       1.0  0.40916126846433076  0.44012633944650753  0.7128583435849549  1.0000
  C   C26       1.0  0.5908415854653626  0.559874007504419  0.28714031600285483  1.0000
  C   C27       1.0  0.9908808650798874  0.7787704644018163  0.9788952401332691  1.0000
  C   C28       1.0  0.009120828273694289  0.22122687607699015  0.021105266318805598  1.0000
  C   C29       1.0  0.9862323339365417  0.9022958539166553  0.0814962148454229  1.0000
  C   C30       1.0  0.013769122413698705  0.0977035028320472  0.9185033433446108  1.0000
  C   C31       1.0  0.8523273405448393  0.912371006397919  0.07753019068169927  1.0000
  C   C32       1.0  0.14767334337558677  0.08762635520959351  0.9224716795827774  1.0000
  C   C33       1.0  0.8495666854519823  0.026508182459785704  0.17301536044786298  1.0000
  C   C34       1.0  0.15043375953370494  0.9734911816572877  0.8269839403071727  1.0000
  C   C35       1.0  0.09907325773176719  0.1187845854531417  0.2745534653222848  1.0000
  C   C36       1.0  0.900927187253927  0.8812147786639317  0.725445835432744  1.0000
  C   C37       1.0  0.1118667437332093  0.008517435677155998  0.18199770422256728  1.0000
  C   C38       1.0  0.8881350997976296  0.9914829255223125  0.8180015085539408  1.0000
  C   C39       1.0  0.7140978898197047  0.14487646952049  0.4489134350369568  1.0000
  C   C40       1.0  0.28589975710999493  0.8551208935516288  0.5510852310514239  1.0000
  C   C41       1.0  0.6022890806024606  0.0694626356224148  0.4739041558909634  1.0000
  C   C42       1.0  0.39770934261982654  0.930536750111564  0.5260954406177731  1.0000
  C   C43       1.0  0.6312038411107251  0.9778637292519433  0.5180214228590927  1.0000
  C   C44       1.0  0.3687949702578592  0.0221366678129655  0.4819786388598076  1.0000
  C   C45       1.0  0.4704994188302436  0.09148725111669621  0.456339953867598  1.0000
  C   C46       1.0  0.5294993935040322  0.9085131528283835  0.5436609184750053  1.0000
  N   N1        1.0  0.155123386116891  0.3265905892729394  0.5741916037780824  1.0000
  N   N2        1.0  0.8448717679397928  0.6734108485963831  0.42580789341099756  1.0000
  N   N3        1.0  0.970696934328565  0.1278541541133933  0.2705534974845634  1.0000
  N   N4        1.0  0.029303746694779514  0.872143186853613  0.7294459409088179  1.0000
  O   O1        1.0  0.8222456186271926  0.3233098278169066  0.23868557046878894  1.0000
  O   O2        1.0  0.17775319370709036  0.6766905761281734  0.7613153018738145  1.0000
  O   O3        1.0  0.038970120831855616  0.4803673213261065  0.3871008016295505  1.0000
  O   O4        1.0  0.961027291991577  0.5196320786564144  0.6128993480678773  1.0000
  O   O5        1.0  0.6589519193285794  0.4673492784872692  0.8968962960382213  1.0000
  O   O6        1.0  0.3410495360559621  0.5326500713812691  0.10310245152810883  1.0000
  O   O7        1.0  0.8806342597939291  0.659354044352959  0.9462720965585658  1.0000
  O   O8        1.0  0.11936782074025834  0.3406443005766134  0.05372806447999067  1.0000
  O   O9        1.0  0.8277637463059687  0.11415734866887557  0.4581615573583306  1.0000
  O   O10       1.0  0.1722328873277874  0.8858400080112787  0.5418352300476599  1.0000
  O   O11       1.0  0.6935454466404066  0.23821107803255606  0.42213883662617485  1.0000
  O   O12       1.0  0.3064515761053456  0.7617872968586993  0.5778592266136825  1.0000
