data_image0
_chemical_formula_structural       CdH28C46N8O6
_chemical_formula_sum              "Cd1 H28 C46 N8 O6"
_cell_length_a       8.659897495420042
_cell_length_b       10.557795000814693
_cell_length_c       11.255942105502509
_cell_angle_alpha    62.68089809458598
_cell_angle_beta     80.50735106514504
_cell_angle_gamma    77.42049556069524

_space_group_name_H-M_alt    "P 1"
_space_group_IT_number       1

loop_
  _space_group_symop_operation_xyz
  'x, y, z'

loop_
  _atom_site_type_symbol
  _atom_site_label
  _atom_site_symmetry_multiplicity
  _atom_site_fract_x
  _atom_site_fract_y
  _atom_site_fract_z
  _atom_site_occupancy
  Cd  Cd1       1.0  0.5000016585605066  0.4999992847014314  0.49999942194844504  1.0000
  H   H1        1.0  0.2085972093472819  0.8864254170305943  0.11371994222581339  1.0000
  H   H2        1.0  0.7914012562582399  0.11357423908452804  0.8862808613707929  1.0000
  H   H3        1.0  0.6431782832503572  0.673880011256472  0.6273082130186084  1.0000
  H   H4        1.0  0.35681860911655855  0.3261217945550713  0.37269097326610273  1.0000
  H   H5        1.0  0.8751620927356426  0.6397870199781652  0.49413152664597254  1.0000
  H   H6        1.0  0.12483655413324604  0.3602180320381053  0.5058659979302719  1.0000
  H   H7        1.0  0.055990685746721176  0.7588169984429458  0.29577351882632996  1.0000
  H   H8        1.0  0.9440081811745031  0.24118698999829752  0.7042262192038181  1.0000
  H   H9        1.0  0.6261834179776925  0.055321368097168026  0.455929010806699  1.0000
  H   H10       1.0  0.37381090150753943  0.944681487714924  0.5440673991396422  1.0000
  H   H11       1.0  0.26962691005910955  0.6992719947651695  0.9572191019747011  1.0000
  H   H12       1.0  0.730371605010113  0.3007276948740768  0.04278523423693053  1.0000
  H   H13       1.0  0.6689780752278054  0.15288580559995785  0.583580250964957  1.0000
  H   H14       1.0  0.3310246699888707  0.8471095285759489  0.4164209776595129  1.0000
  H   H15       1.0  0.18427543943341357  0.7223733297177761  0.5390048496864923  1.0000
  H   H16       1.0  0.8157278653216693  0.2776252313040573  0.4609931110566451  1.0000
  H   H17       1.0  0.9270643740807003  0.4915869606334413  0.9141613460114827  1.0000
  H   H18       1.0  0.07293895540623647  0.5084116171504578  0.08583838103917418  1.0000
  H   H19       1.0  0.808784624827581  0.17496767847484315  0.2580426178834045  1.0000
  H   H20       1.0  0.19121304713007697  0.8250362906076065  0.7419555139738776  1.0000
  H   H21       1.0  0.5999236929534033  0.3648676598120702  0.22715691292500398  1.0000
  H   H22       1.0  0.40007362715225986  0.6351320104683896  0.7728458171137617  1.0000
  H   H23       1.0  0.6386572200393488  0.9059292763444236  0.7594802064634792  1.0000
  H   H24       1.0  0.361342989393421  0.09406713297511973  0.24052089528389337  1.0000
  H   H25       1.0  0.4244448911289851  0.8777939567598314  0.9457806101443894  1.0000
  H   H26       1.0  0.5755553183037846  0.12220245255971214  0.054220491602983055  1.0000
  H   H27       1.0  0.9637462840802586  0.725458384065654  0.7106389761283366  1.0000
  H   H28       1.0  0.036257020674831573  0.2745401769561796  0.2893589846148005  1.0000
  C   C1        1.0  0.1681989297912452  0.6235163325843873  0.629251657496461  1.0000
  C   C2        1.0  0.831805569927404  0.3764822477962399  0.3707479094195491  1.0000
  C   C3        1.0  0.04266279107233119  0.6248465314650603  0.7252186387830977  1.0000
  C   C4        1.0  0.9573419039668067  0.37515096857847413  0.2747813752793035  1.0000
  C   C5        1.0  0.022977380804149974  0.4969844800640575  0.8368378244113972  1.0000
  C   C6        1.0  0.97702809382573  0.5030151832503835  0.16316113522357506  1.0000
  C   C7        1.0  0.12782308761016736  0.3694659012276632  0.8502436691030442  1.0000
  C   C8        1.0  0.8721835696173486  0.630533773064535  0.14975601355104118  1.0000
  C   C9        1.0  0.11299049681524309  0.2318142488412606  0.9597543164217232  1.0000
  C   C10       1.0  0.8870138075829246  0.7681854118764523  0.040244803347896055  1.0000
  C   C11       1.0  0.2124522699782716  0.10616336879198945  0.9638962337236879  1.0000
  C   C12       1.0  0.7875497063223945  0.8938362951133032  0.03610408946897776  1.0000
  C   C13       1.0  0.3383869737247025  0.10808468548205505  0.8649203193733261  1.0000
  C   C14       1.0  0.661614210619298  0.8919128067713094  0.13508017509300863  1.0000
  C   C15       1.0  0.4408954316608699  0.9840270518405135  0.8657079923840599  1.0000
  C   C16       1.0  0.5591034122196986  0.01597043521939411  0.13429282235156856  1.0000
  C   C17       1.0  0.5596553308717133  0.9993468746906801  0.7641209947307814  1.0000
  C   C18       1.0  0.44034485382920246  0.0006495178667976009  0.23587834070907837  1.0000
  C   C19       1.0  0.5753176746367289  0.13858644237812007  0.6637980037871362  1.0000
  C   C20       1.0  0.4246811568779163  0.8614110363007585  0.3362019277947325  1.0000
  C   C21       1.0  0.3603733604966592  0.24604111446473115  0.7569838157629365  1.0000
  C   C22       1.0  0.6396289940790466  0.7539563803853543  0.2430165185687512  1.0000
  C   C23       1.0  0.2526300796790224  0.3766722532536236  0.7485723717775417  1.0000
  C   C24       1.0  0.7473744200396267  0.6233263271270036  0.25142719513846856  1.0000
  C   C25       1.0  0.036377200171671085  0.05551878852621432  0.13969047469347373  1.0000
  C   C26       1.0  0.9636243731221015  0.9444830276722346  0.8603080710526498  1.0000
  C   C27       1.0  0.9451802113657448  0.976545443014544  0.2631976772060654  1.0000
  C   C28       1.0  0.054816277994277116  0.023458515090155212  0.7367997316321041  1.0000
  C   C29       1.0  0.8245846507988543  0.057770083264692615  0.31229794030690533  1.0000
  C   C30       1.0  0.17541320411336875  0.9422327970996348  0.6876997555430081  1.0000
  C   C31       1.0  0.7247671561566164  0.9914734502408327  0.4237290073438513  1.0000
  C   C32       1.0  0.27522795528528127  0.008531577223195105  0.5762672313288209  1.0000
  C   C33       1.0  0.7422246214638264  0.8398978646524501  0.49085733915832447  1.0000
  C   C34       1.0  0.2577708806190415  0.16010500213739226  0.5091397938071296  1.0000
  C   C35       1.0  0.8631512159010482  0.7573150345207442  0.44346357893093097  1.0000
  C   C36       1.0  0.13684529819082056  0.24268894034601382  0.5565355962147508  1.0000
  C   C37       1.0  0.9637739691501822  0.8248679135031199  0.33140514697852563  1.0000
  C   C38       1.0  0.036225080725593294  0.17513498622000165  0.6685941550442538  1.0000
  C   C39       1.0  0.35383149688195903  0.5818641548643343  0.21208552593481758  1.0000
  C   C40       1.0  0.6461662262305907  0.4181333631229692  0.7879189815504832  1.0000
  C   C41       1.0  0.4281012523275933  0.53731898219511  0.10351335273325903  1.0000
  C   C42       1.0  0.571894909912281  0.46268069386965754  0.8964904205939067  1.0000
  C   C43       1.0  0.3721538001983546  0.6134356307641797  0.9749522744538553  1.0000
  C   C44       1.0  0.6278427279506359  0.38656186786433744  0.02505062685857937  1.0000
  C   C45       1.0  0.5562235240994441  0.4235161682941283  0.1275077432984161  1.0000
  C   C46       1.0  0.44377323646780537  0.5764802751403907  0.8724982546216752  1.0000
  N   N1        1.0  0.4791795378513584  0.2575367032889773  0.6595355790331683  1.0000
  N   N2        1.0  0.5208241699106253  0.7424597054397072  0.34046415915651085  1.0000
  N   N3        1.0  0.27021283083282543  0.5046655677339091  0.6407184678079504  1.0000
  N   N4        1.0  0.7297904862881879  0.49533300166896066  0.3592803760889467  1.0000
  N   N5        1.0  0.005398656831388786  0.19962672648782137  0.06884525286464076  1.0000
  N   N6        1.0  0.9946052692917321  0.8003751032851057  0.931153855765949  1.0000
  N   N7        1.0  0.1607507797906748  0.9950284451646144  0.07845439275239816  1.0000
  N   N8        1.0  0.8392484654055892  0.004973374221414403  0.921545356416779  1.0000
  O   O1        1.0  0.3662949929730885  0.4851322491589727  0.3354204753632857  1.0000
  O   O2        1.0  0.6337021441780095  0.5148685098396087  0.6645826906828419  1.0000
  O   O3        1.0  0.28552072036016085  0.7095810317099166  0.17896844524282332  1.0000
  O   O4        1.0  0.7144738686411073  0.29042079405127214  0.8210337107724471  1.0000
  O   O5        1.0  0.6394333132000938  0.7815948692569851  0.5976664555117991  1.0000
  O   O6        1.0  0.3605622012486974  0.21840800591389362  0.40233156060740793  1.0000
