data_image0
_chemical_formula_structural       Cd2H16C24S4N4O6
_chemical_formula_sum              "Cd2 H16 C24 S4 N4 O6"
_cell_length_a       6.501799729811905
_cell_length_b       9.163122142193489
_cell_length_c       10.62332885615981
_cell_angle_alpha    76.37545182749633
_cell_angle_beta     82.44306484334719
_cell_angle_gamma    83.07236841690555

_space_group_name_H-M_alt    "P 1"
_space_group_IT_number       1

loop_
  _space_group_symop_operation_xyz
  'x, y, z'

loop_
  _atom_site_type_symbol
  _atom_site_label
  _atom_site_symmetry_multiplicity
  _atom_site_fract_x
  _atom_site_fract_y
  _atom_site_fract_z
  _atom_site_occupancy
  Cd  Cd1       1.0  0.6975958481604676  0.35687669754752704  0.6895179852687361  1.0000
  Cd  Cd2       1.0  0.30240290409654585  0.6431252718135739  0.3104828765102992  1.0000
  H   H1        1.0  0.7057868162576779  0.1840105750491503  0.454610782129343  1.0000
  H   H2        1.0  0.2942025408343908  0.8159925281970357  0.5453867876858068  1.0000
  H   H3        1.0  0.748390530110839  0.9170429001019544  0.4197649559122707  1.0000
  H   H4        1.0  0.25160987376766286  0.0829579410572876  0.580238834965243  1.0000
  H   H5        1.0  0.811745348500686  0.7040136095958972  0.6059705974868236  1.0000
  H   H6        1.0  0.1882578574505303  0.29598948509536877  0.3940334683114342  1.0000
  H   H7        1.0  0.8502315646615841  0.6138075266989134  0.8459585543692042  1.0000
  H   H8        1.0  0.1497657081918432  0.38619444250214496  0.1540377113590452  1.0000
  H   H9        1.0  0.8223624767135503  0.6713375128356701  0.06534104841686876  1.0000
  H   H10       1.0  0.17764124589134409  0.3286621967698977  0.9346580165244587  1.0000
  H   H11       1.0  0.759023276034533  0.8615421413589672  0.20423437246788703  1.0000
  H   H12       1.0  0.24097682404362789  0.13844967652704546  0.7957646802169974  1.0000
  H   H13       1.0  0.7001433215076106  0.13644164799090666  0.21610496666251314  1.0000
  H   H14       1.0  0.29985680640281487  0.8635490442346452  0.7839018429819544  1.0000
  H   H15       1.0  0.6809197323064706  0.3325308827174211  0.011220364976033204  1.0000
  H   H16       1.0  0.31907480857731935  0.6674665813605428  0.9887901973594492  1.0000
  C   C1        1.0  0.7315888452510393  0.08622166506268769  0.5343417322762816  1.0000
  C   C2        1.0  0.2684158411486378  0.9137825549087993  0.465657287830801  1.0000
  C   C3        1.0  0.7560205654942462  0.938360420865159  0.5154180588069861  1.0000
  C   C4        1.0  0.24398189592088212  0.0616494385946353  0.48457716088135055  1.0000
  C   C5        1.0  0.789725473002015  0.8189799972697074  0.6197090117642574  1.0000
  C   C6        1.0  0.21027477414202878  0.1810230971014732  0.3802858619324212  1.0000
  C   C7        1.0  0.7942463430752937  0.8474342399659136  0.7444040289706988  1.0000
  C   C8        1.0  0.20575190801147863  0.1525722393309223  0.25559124953212375  1.0000
  C   C9        1.0  0.8194980630638257  0.7295570726410716  0.8582946155017052  1.0000
  C   C10       1.0  0.18049629325324895  0.2704437703092921  0.14169927269335147  1.0000
  C   C11       1.0  0.8065272328079728  0.7615485885959146  0.9785816114170697  1.0000
  C   C12       1.0  0.19347330101759747  0.23845225013204194  0.021413697939742283  1.0000
  C   C13       1.0  0.7714094398935387  0.9139886987141778  0.9937699376175501  1.0000
  C   C14       1.0  0.22859564765130355  0.0860121383327623  0.0062316207621150935  1.0000
  C   C15       1.0  0.7509237171229515  0.9518340193356066  0.11667246653510686  1.0000
  C   C16       1.0  0.24907861166487064  0.04816456336887849  0.8833259897502469  1.0000
  C   C17       1.0  0.7176645795763292  0.10164402409586157  0.12381252414406417  1.0000
  C   C18       1.0  0.28233416895557883  0.8983455409584592  0.8761927344532477  1.0000
  C   C19       1.0  0.7065997288000078  0.21335924914537688  0.008232578804715668  1.0000
  C   C20       1.0  0.2934018795588712  0.786632568360389  0.9917691851485841  1.0000
  C   C21       1.0  0.7549599870765888  0.0343704731132348  0.8823145550562328  1.0000
  C   C22       1.0  0.24504380772113174  0.9656292351416125  0.11767979792914209  1.0000
  C   C23       1.0  0.7648063648071426  0.00040246214030760003  0.7553428785430893  1.0000
  C   C24       1.0  0.2351910225099232  0.999598379779428  0.2446554897976014  1.0000
  S   S1        1.0  0.4055422566061892  0.5453537393814472  0.7451748418033615  1.0000
  S   S2        1.0  0.5944568534803094  0.45464484786553777  0.25483138542182343  1.0000
  S   S3        1.0  0.20896204942295765  0.46533859359422536  0.6436565002695859  1.0000
  S   S4        1.0  0.7910417587684504  0.5346599892703026  0.3563465520665614  1.0000
  N   N1        1.0  0.7378134311713679  0.11578316808445517  0.650588141428713  1.0000
  N   N2        1.0  0.2621854077170341  0.884218799655784  0.349407066003188  1.0000
  N   N3        1.0  0.7246230660107996  0.1806691534598031  0.8915505848132735  1.0000
  N   N4        1.0  0.2753738190911576  0.8193350732754823  0.1084518419931655  1.0000
  O   O1        1.0  0.3147532120685739  0.32622741949093376  0.6104219294675273  1.0000
  O   O2        1.0  0.6852462280151456  0.673768911302389  0.3895819062442241  1.0000
  O   O3        1.0  0.1662129529125025  0.5862303795584153  0.5276416140484486  1.0000
  O   O4        1.0  0.833792105755215  0.4137704580288073  0.4723618291135948  1.0000
  O   O5        1.0  0.012816471439478486  0.43822634036450125  0.7322445442550672  1.0000
  O   O6        1.0  0.9871837179503088  0.5617767550872514  0.26775409900636754  1.0000
