data_image0
_chemical_formula_structural       Zn2H14C24N10O16
_chemical_formula_sum              "Zn2 H14 C24 N10 O16"
_cell_length_a       9.599850110460409
_cell_length_b       10.983704218313306
_cell_length_c       11.051030892953754
_cell_angle_alpha    84.39260693211388
_cell_angle_beta     90.13146553017076
_cell_angle_gamma    95.54992174624978

_space_group_name_H-M_alt    "P 1"
_space_group_IT_number       1

loop_
  _space_group_symop_operation_xyz
  'x, y, z'

loop_
  _atom_site_type_symbol
  _atom_site_label
  _atom_site_symmetry_multiplicity
  _atom_site_fract_x
  _atom_site_fract_y
  _atom_site_fract_z
  _atom_site_occupancy
  Zn  Zn1       1.0  0.639837597875264  0.5109085655424366  0.4940848458208506  1.0000
  Zn  Zn2       1.0  0.3497333246456336  0.48347544328495234  0.4982680282937009  1.0000
  H   H1        1.0  0.2875123275540048  0.8623733322152989  0.49498897320998475  1.0000
  H   H2        1.0  0.2863771363765224  0.09635127861432119  0.49041999470341585  1.0000
  H   H3        1.0  0.1486527081643843  0.6064812161155189  0.3402640721441728  1.0000
  H   H4        1.0  0.10414719467118519  0.37040118613557377  0.6590650786843496  1.0000
  H   H5        1.0  0.8878983483913601  0.6333871746747306  0.3458824218212725  1.0000
  H   H6        1.0  0.8412397059775429  0.38847696167748325  0.6578135800677812  1.0000
  H   H7        1.0  0.028535947413658398  0.8714196786372241  0.5965380766233891  1.0000
  H   H8        1.0  0.10080853591026082  0.0211525947243416  0.5539614208931241  1.0000
  H   H9        1.0  0.018909990855711104  0.23103547825073184  0.3283857494489908  1.0000
  H   H10       1.0  0.0935196527981077  0.09500572284972722  0.36725556450711133  1.0000
  H   H11       1.0  0.8258202334115551  0.5269212048240491  0.0634212275001929  1.0000
  H   H12       1.0  0.7395843284100252  0.5406184098285607  0.1986296765186353  1.0000
  H   H13       1.0  0.7323975138217873  0.5527281251407601  0.7757124564581516  1.0000
  H   H14       1.0  0.7951519743405058  0.6238749702728371  0.8988803763101743  1.0000
  C   C1        1.0  0.48598816321287325  0.46724143977254323  0.7349809585054103  1.0000
  C   C2        1.0  0.4865818554651682  0.5157350128254167  0.25645548953621494  1.0000
  C   C3        1.0  0.5079176237142917  0.7355981569415204  0.5057036814952198  1.0000
  C   C4        1.0  0.49898702185070926  0.2627587963142092  0.4755102782397174  1.0000
  C   C5        1.0  0.7719779365912346  0.9121643282045611  0.5405706023594732  1.0000
  C   C6        1.0  0.7630759919964659  0.1421452966211945  0.4088268473281573  1.0000
  C   C7        1.0  0.8975459046512596  0.981815817473418  0.5066113501225188  1.0000
  C   C8        1.0  0.8930049243973456  0.0961083489691816  0.42779987405233305  1.0000
  C   C9        1.0  0.6349141545389542  0.076232735523142  0.45759692024494564  1.0000
  C   C10       1.0  0.6380240642787599  0.9507406832492652  0.501878429248208  1.0000
  C   C11       1.0  0.5101104171583231  0.8723923453543704  0.5061290981933055  1.0000
  C   C12       1.0  0.5050957900125965  0.1283286621181503  0.46542132443885004  1.0000
  C   C13       1.0  0.38354632417341605  0.9239424536937049  0.4941104569432539  1.0000
  C   C14       1.0  0.3821037745079251  0.051491057627203005  0.48432316277403226  1.0000
  C   C15       1.0  0.36949934679998364  0.43348899637340577  0.9423844914808226  1.0000
  C   C16       1.0  0.36515284761553357  0.46010987376917006  0.062205697680226976  1.0000
  C   C17       1.0  0.487635082296599  0.502855346867932  0.12334117456131109  1.0000
  C   C18       1.0  0.4920168569445167  0.46560149567447706  0.8697798884620055  1.0000
  C   C19       1.0  0.6145082844170773  0.5214866800467705  0.05609142684855328  1.0000
  C   C20       1.0  0.6141588273727409  0.5130345929103087  0.9266053474823082  1.0000
  C   C21       1.0  0.0793280802185876  0.5603464957168071  0.4119665790032627  1.0000
  C   C22       1.0  0.054402864472926596  0.4266761588046323  0.5878683764606478  1.0000
  C   C23       1.0  0.9368487428514104  0.5734671923341568  0.4144072749469955  1.0000
  C   C24       1.0  0.9112114079867552  0.4378716494864463  0.5881793100457243  1.0000
  N   N1        1.0  0.8541066573978995  0.5113587214054219  0.5015821963384894  1.0000
  N   N2        1.0  0.1364402853027897  0.4871916649449732  0.4989227696612772  1.0000
  N   N3        1.0  0.7752719439545854  0.8167427344104966  0.6402568599425678  1.0000
  N   N4        1.0  0.7546460803228713  0.24430720988164015  0.31627057153591653  1.0000
  N   N5        1.0  0.027285369364591392  0.9509026994999416  0.540429648876774  1.0000
  N   N6        1.0  0.0179942201665355  0.1503453622419073  0.38272888257949234  1.0000
  N   N7        1.0  0.2488106308051243  0.3620025037190188  0.8933285751226876  1.0000
  N   N8        1.0  0.23006989660640187  0.4314986075995293  0.12964426812929017  1.0000
  N   N9        1.0  0.7412114227048648  0.5530228886976617  0.10580108313381939  1.0000
  N   N10       1.0  0.7385483355773701  0.5501891693049076  0.8680163668465396  1.0000
  O   O1        1.0  0.6031804781029991  0.4837320361009318  0.6772934307664329  1.0000
  O   O2        1.0  0.6053134797605609  0.5253219639385946  0.30986406003486877  1.0000
  O   O3        1.0  0.3673605896701773  0.45750768019190957  0.683767585929516  1.0000
  O   O4        1.0  0.3698635498249915  0.5153834167226634  0.310463447992582  1.0000
  O   O5        1.0  0.6250025326229718  0.6932497109152537  0.48939543155137943  1.0000
  O   O6        1.0  0.6149987354790342  0.32499554812227427  0.49278116927916926  1.0000
  O   O7        1.0  0.3900147655095267  0.6719514879509562  0.5150105242188232  1.0000
  O   O8        1.0  0.37929498865236166  0.3035588944645441  0.474309446324959  1.0000
  O   O9        1.0  0.8821419388841746  0.7584061364648135  0.6532376086708495  1.0000
  O   O10       1.0  0.676254237995771  0.8002841830451857  0.7136317707999993  1.0000
  O   O11       1.0  0.8591832156730916  0.3224233442254345  0.299894939254294  1.0000
  O   O12       1.0  0.6479960081523332  0.2476322015966588  0.2531329086614562  1.0000
  O   O13       1.0  0.27122692515158064  0.265232416427338  0.8510617207661467  1.0000
  O   O14       1.0  0.1317540985234231  0.4009763656946106  0.899402635707176  1.0000
  O   O15       1.0  0.15547051673267023  0.5162869342282762  0.13427448616992166  1.0000
  O   O16       1.0  0.2007172630188876  0.32388495466341993  0.17317201295285398  1.0000
