data_image0
_chemical_formula_structural       Ag6Mo4H24C24N12O8F14
_chemical_formula_sum              "Ag6 Mo4 H24 C24 N12 O8 F14"
_cell_length_a       7.09185084502878
_cell_length_b       7.781506730503537
_cell_length_c       19.022387989785354
_cell_angle_alpha    101.04483477251955
_cell_angle_beta     89.99986894431994
_cell_angle_gamma    90.00031961545474

_space_group_name_H-M_alt    "P 1"
_space_group_IT_number       1

loop_
  _space_group_symop_operation_xyz
  'x, y, z'

loop_
  _atom_site_type_symbol
  _atom_site_label
  _atom_site_symmetry_multiplicity
  _atom_site_fract_x
  _atom_site_fract_y
  _atom_site_fract_z
  _atom_site_occupancy
  Ag  Ag1       1.0  0.5597378917855664  0.31450247946374776  0.9281016972787057  1.0000
  Ag  Ag2       1.0  0.5597498155971437  0.18549678829835156  0.5718941944090616  1.0000
  Ag  Ag3       1.0  0.44025369065943926  0.685491553126539  0.0718941530873636  1.0000
  Ag  Ag4       1.0  0.4402530473859302  0.8144946837104287  0.42810409297438673  1.0000
  Ag  Ag5       1.0  0.4915416296808246  0.24999877492839317  0.7499960714416503  1.0000
  Ag  Ag6       1.0  0.5084499527664122  0.7499992551469815  0.25000323228667304  1.0000
  Mo  Mo1       1.0  0.514436919264  0.8119120115433275  0.8617072609393261  1.0000
  Mo  Mo2       1.0  0.5144343702112408  0.6880977025505287  0.638295214485261  1.0000
  Mo  Mo3       1.0  0.48556876389410775  0.18809657414464445  0.1382965124895748  1.0000
  Mo  Mo4       1.0  0.48557131292960076  0.3119043250437699  0.3617075426016783  1.0000
  H   H1        1.0  0.24401696273648812  0.09377374662351913  0.9718967967867513  1.0000
  H   H2        1.0  0.2440319146883638  0.4062398098276531  0.5281046461252643  1.0000
  H   H3        1.0  0.7559774398700441  0.9062321508514374  0.028103621234265606  1.0000
  H   H4        1.0  0.7559794087252883  0.5937582318930481  0.4718951841826069  1.0000
  H   H5        1.0  0.8857365881828799  0.0823243310130337  0.9661812842376492  1.0000
  H   H6        1.0  0.8857417069023726  0.4176962572316042  0.533821174129514  1.0000
  H   H7        1.0  0.1142578144273898  0.9176855523490629  0.03382206056097909  1.0000
  H   H8        1.0  0.11426397624448728  0.5823057239709328  0.4661794766188478  1.0000
  H   H9        1.0  0.8781436209270624  0.552751561465243  0.8930635865808796  1.0000
  H   H10       1.0  0.8781640053924562  0.9472584618654591  0.6069328105310703  1.0000
  H   H11       1.0  0.12184796154720352  0.44725428961118024  0.1069347251022918  1.0000
  H   H12       1.0  0.1218459079490657  0.05273692645973679  0.3930652441203009  1.0000
  H   H13       1.0  0.23281280944867433  0.5645583838784843  0.8988047876431297  1.0000
  H   H14       1.0  0.23282751433519175  0.9354472320793547  0.6011918449557712  1.0000
  H   H15       1.0  0.7671815931526069  0.435443539307272  0.1011932301849257  1.0000
  H   H16       1.0  0.7671795788635477  0.0645455144448945  0.398804960624112  1.0000
  H   H17       1.0  0.8135176600002508  0.5042730161053797  0.7297765852827709  1.0000
  H   H18       1.0  0.8135120076921043  0.995730138817258  0.770218828885632  1.0000
  H   H19       1.0  0.1864696922320732  0.4957223953615398  0.2702225225437189  1.0000
  H   H20       1.0  0.1864711143245543  0.004261321546195501  0.2297789319182755  1.0000
  H   H21       1.0  0.16974354559644667  0.5007782541855903  0.725954209800463  1.0000
  H   H22       1.0  0.1697393025579714  0.9992218565453967  0.7740436433387644  1.0000
  H   H23       1.0  0.8302452167185167  0.49922240607924817  0.2740458164161623  1.0000
  H   H24       1.0  0.8302522798772715  0.0007682365495114008  0.2259513865882639  1.0000
  C   C1        1.0  0.16064840087297227  0.1964957237954934  0.9551805301104892  1.0000
  C   C2        1.0  0.16066262124416403  0.3035134697325644  0.5448190822692212  1.0000
  C   C3        1.0  0.8393431815832815  0.8035049132802285  0.044818442936112014  1.0000
  C   C4        1.0  0.8393472920875882  0.6964806556852493  0.4551809807692706  1.0000
  C   C5        1.0  0.9647924889858289  0.1905896731586409  0.9522858640037342  1.0000
  C   C6        1.0  0.9647996784877436  0.30940909452137083  0.5477175212637279  1.0000
  C   C7        1.0  0.0352061438175966  0.8094136289240621  0.047715411282560204  1.0000
  C   C8        1.0  0.03521023484925221  0.69058900518565  0.45228494196772573  1.0000
  C   C9        1.0  0.9600485296599359  0.451059868541975  0.911334722086167  1.0000
  C   C10       1.0  0.9600679732241416  0.0489414717953807  0.5886678083629278  1.0000
  C   C11       1.0  0.0399458729443438  0.548944708035897  0.08866507139874359  1.0000
  C   C12       1.0  0.0399419401211176  0.951057902416963  0.4113331730660619  1.0000
  C   C13       1.0  0.15592136215188654  0.4573329957754382  0.9146937207776772  1.0000
  C   C14       1.0  0.15593373632790267  0.0426722007657361  0.585303493851967  1.0000
  C   C15       1.0  0.8440772706395308  0.5426650459147949  0.0853061095334695  1.0000
  C   C16       1.0  0.8440761770031032  0.9573205921570531  0.4146954180657687  1.0000
  C   C17       1.0  0.893581009312662  0.39001463135780773  0.7379070077310175  1.0000
  C   C18       1.0  0.8935772545720229  0.10999798795638328  0.7620880132761343  1.0000
  C   C19       1.0  0.1064176235072907  0.6099912197355408  0.262091303950335  1.0000
  C   C20       1.0  0.10641573797589392  0.890007828329601  0.23790871865274002  1.0000
  C   C21       1.0  0.0899868385419254  0.3887723635862129  0.7365484964570115  1.0000
  C   C22       1.0  0.08998590361933621  0.11122860008956079  0.7634489849741329  1.0000
  C   C23       1.0  0.9099976935588714  0.6112270105652016  0.2634524849785365  1.0000
  C   C24       1.0  0.9100014486220048  0.8887667417897163  0.2365469633444874  1.0000
  N   N1        1.0  0.25576931297039357  0.33094849297749107  0.9368983105075871  1.0000
  N   N2        1.0  0.2557840068344959  0.16904419430249365  0.5631026122780369  1.0000
  N   N3        1.0  0.7442264996729977  0.6690456092105989  0.0631006993652576  1.0000
  N   N4        1.0  0.7442259065047596  0.8309525497136149  0.4368976466633755  1.0000
  N   N5        1.0  0.8645610009342163  0.31815844363064383  0.9307933723695925  1.0000
  N   N6        1.0  0.8645715078563115  0.1818449872858992  0.5692062438144632  1.0000
  N   N7        1.0  0.13543481172118282  0.6818409189499093  0.0692070824783926  1.0000
  N   N8        1.0  0.13543699539879836  0.818146519530245  0.43079362332146337  1.0000
  N   N9        1.0  0.7962618003730598  0.2500008504612552  0.7499976704238877  1.0000
  N   N10       1.0  0.20372273172473856  0.7499958702980506  0.250001535354798  1.0000
  N   N11       1.0  0.18775915497437978  0.2500033177297211  0.7499981214823492  1.0000
  N   N12       1.0  0.8122366577208168  0.7500051055633816  0.24999827976407835  1.0000
  O   O1        1.0  0.5612657084684187  0.171338291173285  0.0511316650642044  1.0000
  O   O2        1.0  0.5612706714512115  0.3286656132158186  0.4488735999866691  1.0000
  O   O3        1.0  0.43874420495040306  0.8286872806199096  0.94887180197869  1.0000
  O   O4        1.0  0.4387462922449786  0.6713377353026501  0.5511297816334633  1.0000
  O   O5        1.0  0.48123586247957206  0.023244338974024  0.8465880113054921  1.0000
  O   O6        1.0  0.4812406465378274  0.4767636938018923  0.6534075534364021  1.0000
  O   O7        1.0  0.5187627703246207  0.9767549424277108  0.153408757449256  1.0000
  O   O8        1.0  0.5187777272357792  0.5232382526372845  0.3465915175547423  1.0000
  F   F1        1.0  0.6132772610097418  0.7499992082557866  0.7500010346877204  1.0000
  F   F2        1.0  0.38672137178016197  0.2500015216203906  0.2500021510342236  1.0000
  F   F3        1.0  0.7819693675326889  0.8408466329143279  0.8816662728220948  1.0000
  F   F4        1.0  0.7819752170060211  0.6591513073535608  0.6183366646078882  1.0000
  F   F5        1.0  0.21803067534213486  0.159155313480845  0.11833279817379601  1.0000
  F   F6        1.0  0.2180361064091088  0.34085207594518613  0.38166829676763575  1.0000
  F   F7        1.0  0.5846928567844785  0.5548526684255821  0.8494391934738773  1.0000
  F   F8        1.0  0.5847172034122322  0.9451534899091314  0.6505645315426634  1.0000
  F   F9        1.0  0.41530295588439975  0.4451572961254867  0.15056783741690796  1.0000
  F   F10       1.0  0.41529270993527934  0.05484720520029641  0.3494370744224256  1.0000
  F   F11       1.0  0.28020594184652475  0.7192748882729348  0.8196554084819213  1.0000
  F   F12       1.0  0.28021640915640234  0.7807284757734508  0.6803473227432519  1.0000
  F   F13       1.0  0.7197969211290102  0.28072199490154764  0.1803511694770492  1.0000
  F   F14       1.0  0.7197935041633342  0.21926306583989688  0.31965412414623984  1.0000
