data_image0
_chemical_formula_structural       Zn2H20C48N10O16
_chemical_formula_sum              "Zn2 H20 C48 N10 O16"
_cell_length_a       13.899369298288223
_cell_length_b       15.251763307094729
_cell_length_c       19.46449074512479
_cell_angle_alpha    89.53774572089064
_cell_angle_beta     89.98534789054766
_cell_angle_gamma    89.94796208385398

_space_group_name_H-M_alt    "P 1"
_space_group_IT_number       1

loop_
  _space_group_symop_operation_xyz
  'x, y, z'

loop_
  _atom_site_type_symbol
  _atom_site_label
  _atom_site_symmetry_multiplicity
  _atom_site_fract_x
  _atom_site_fract_y
  _atom_site_fract_z
  _atom_site_occupancy
  Zn  Zn1       1.0  0.3979610521826587  0.5000116684024505  0.5001768349998913  1.0000
  Zn  Zn2       1.0  0.6020388202891953  0.49998552211263114  0.4998261940104669  1.0000
  H   H1        1.0  0.3451513580254755  0.4984540922600474  0.2786419592125284  1.0000
  H   H2        1.0  0.6548513888217541  0.501548342890395  0.7213610499067755  1.0000
  H   H3        1.0  0.3451822390928143  0.497733234634069  0.7214836639081739  1.0000
  H   H4        1.0  0.6548190717899587  0.5022659309540742  0.278517302582145  1.0000
  H   H5        1.0  0.3466729221881622  0.7775983440505246  0.5125263242665882  1.0000
  H   H6        1.0  0.6533276700648117  0.22240017027657905  0.48747361717052934  1.0000
  H   H7        1.0  0.2569241094329158  0.9187684304525946  0.521246195560444  1.0000
  H   H8        1.0  0.7430743227573657  0.0812320473009791  0.4787547658961842  1.0000
  H   H9        1.0  0.2568826554882975  0.08102510415713482  0.5212531501337737  1.0000
  H   H10       1.0  0.7431157765760049  0.9189740516919614  0.47875038514153806  1.0000
  H   H11       1.0  0.2468128453289467  0.5963098790673272  0.424382939484218  1.0000
  H   H12       1.0  0.7531877445675903  0.40369191155131295  0.5756175032572699  1.0000
  H   H13       1.0  0.24701866332769384  0.4037772223067435  0.5755937316281887  1.0000
  H   H14       1.0  0.7529826492100185  0.5962206403566911  0.424405184780099  1.0000
  H   H15       1.0  0.08914148880280949  0.34237518853329624  0.6249779890753402  1.0000
  H   H16       1.0  0.9108583818343449  0.6576266043955245  0.375021939887219  1.0000
  H   H17       1.0  0.0888851384117189  0.6575689780123569  0.3749572218889909  1.0000
  H   H18       1.0  0.9111154514848183  0.34243281260627617  0.6250432208525041  1.0000
  H   H19       1.0  0.653385808209201  0.7777379632345004  0.4871602283032317  1.0000
  H   H20       1.0  0.3466155007488468  0.22226382296508967  0.5128412419839351  1.0000
  C   C1        1.0  0.4999773120522948  0.32926626337521725  0.5010093874418331  1.0000
  C   C2        1.0  0.5000247178560286  0.6707335576916833  0.49899157656820137  1.0000
  C   C3        1.0  0.5001404664925247  0.5011868120654273  0.36474410515133127  1.0000
  C   C4        1.0  0.49985796954720746  0.4988084244652384  0.6352558487116013  1.0000
  C   C5        1.0  0.413301748962276  0.499614529129886  0.2511797667433342  1.0000
  C   C6        1.0  0.5866995619204972  0.5003846364582573  0.7488211997469918  1.0000
  C   C7        1.0  0.41334837348258463  0.4983785586508277  0.7489087890460908  1.0000
  C   C8        1.0  0.5866536600413641  0.50161667898211  0.2510906511110207  1.0000
  C   C9        1.0  0.4145291252817743  0.49798211829129013  0.1798053807018647  1.0000
  C   C10       1.0  0.5854729050582678  0.502017047095528  0.82019558580064  1.0000
  C   C11       1.0  0.41467652276590883  0.49671482802254024  0.82029060784199  1.0000
  C   C12       1.0  0.585325510326328  0.503281065290473  0.1797088298226512  1.0000
  C   C13       1.0  0.4999059026326692  0.5005641050402829  0.141411437128653  1.0000
  C   C14       1.0  0.5000961287686678  0.49943375109524624  0.8585890205920564  1.0000
  C   C15       1.0  0.49998517374302764  0.5007434842033406  0.2873079615801402  1.0000
  C   C16       1.0  0.5000190173252506  0.4992524042879938  0.7126925036545445  1.0000
  C   C17       1.0  0.5000455602712537  0.49967182592797604  0.9347682597544562  1.0000
  C   C18       1.0  0.49995287443739056  0.5003260375407309  0.0652306566050811  1.0000
  C   C19       1.0  0.5866678688762337  0.8146925725089887  0.49240647981612545  1.0000
  C   C20       1.0  0.41333128296919613  0.18530790715212936  0.5075939678859456  1.0000
  C   C21       1.0  0.49996409260276664  0.7689429539694647  0.4993380236070735  1.0000
  C   C22       1.0  0.5000350596384209  0.23105752990937842  0.5006613965614974  1.0000
  C   C23       1.0  0.4132875490175394  0.8146090993271076  0.5068278214463362  1.0000
  C   C24       1.0  0.5867116036913133  0.1853900689738452  0.4931726312406824  1.0000
  C   C25       1.0  0.4115848648768933  0.9064872051825291  0.5074808771548547  1.0000
  C   C26       1.0  0.5884135677810536  0.09351195699316155  0.49252111682022093  1.0000
  C   C27       1.0  0.499986726391434  0.9534532913424558  0.4999056202384935  1.0000
  C   C28       1.0  0.500011704773492  0.046547835764606305  0.5000968800259002  1.0000
  C   C29       1.0  0.5884016335153888  0.9065638925495493  0.49224222572299675  1.0000
  C   C30       1.0  0.4115982372296188  0.09343592068585595  0.5077607933174662  1.0000
  C   C31       1.0  0.3239946449418554  0.9551900512680761  0.5152807299051929  1.0000
  C   C32       1.0  0.6760045059501254  0.04480975795092231  0.48472331665657714  1.0000
  C   C33       1.0  0.32400118636424224  0.04468156586020201  0.5153438883558366  1.0000
  C   C34       1.0  0.6759986826898725  0.9553202101977051  0.4846601507407016  1.0000
  C   C35       1.0  0.2026444836629437  0.5543285515337503  0.45728880563505203  1.0000
  C   C36       1.0  0.7973589853937497  0.44567061134156927  0.5427126746585742  1.0000
  C   C37       1.0  0.20272331944579491  0.4457177082957885  0.5426932953832448  1.0000
  C   C38       1.0  0.7972779913650785  0.5542827770879627  0.45730561105514766  1.0000
  C   C39       1.0  0.10199315794609022  0.44273036258044846  0.5451136083775481  1.0000
  C   C40       1.0  0.8980081541239572  0.5572688156608693  0.454884275512299  1.0000
  C   C41       1.0  0.10190078481114993  0.5572641264343475  0.45485572996955886  1.0000
  C   C42       1.0  0.8980998067762871  0.4427357013617766  0.5451436927158682  1.0000
  C   C43       1.0  0.05091227714628841  0.4999987244869005  0.4999874497699964  1.0000
  C   C44       1.0  0.9490868759223691  0.5000011079295917  0.5000109453575661  1.0000
  C   C45       1.0  0.04928498429502781  0.38566112740250713  0.5903329216854019  1.0000
  C   C46       1.0  0.9507163267496781  0.614338700192299  0.40966650101221097  1.0000
  C   C47       1.0  0.04909050669787261  0.6143229186680801  0.40962810256987575  1.0000
  C   C48       1.0  0.9509115236062159  0.3856769066165456  0.5903718339066657  1.0000
  N   N1        1.0  0.5461318399962495  0.43351241172944566  0.03450469225283111  1.0000
  N   N2        1.0  0.4538673131083613  0.5664867607892391  0.9654947329006944  1.0000
  N   N3        1.0  0.5462108163929145  0.4331536962403106  0.9667094621862803  1.0000
  N   N4        1.0  0.45378977629177103  0.5668441624067173  0.0332904817433146  1.0000
  N   N5        1.0  0.2503687873964395  0.5000372799717568  0.5000027994489146  1.0000
  N   N6        1.0  0.7496310839062517  0.499963199488043  0.4999976482653423  1.0000
  N   N7        1.0  0.3205537077964991  0.4890319010912947  0.144758979333389  1.0000
  N   N8        1.0  0.6794476009636696  0.510969882999433  0.8552430047205278  1.0000
  N   N9        1.0  0.32075714493656454  0.48693862939315846  0.8554827898723759  1.0000
  N   N10       1.0  0.6792477633944715  0.5130611971950644  0.14451663288615887  1.0000
  O   O1        1.0  0.4183566795802208  0.3675350060127443  0.5017986874992532  1.0000
  O   O2        1.0  0.581648945132038  0.6324667684346184  0.4982053516947644  1.0000
  O   O3        1.0  0.4184525059085758  0.6324667391997282  0.4995909374379295  1.0000
  O   O4        1.0  0.581553843063837  0.36753046426554203  0.500408495314872  1.0000
  O   O5        1.0  0.41836159222963687  0.5009426528578018  0.3938589563584145  1.0000
  O   O6        1.0  0.5816375635552617  0.49905456738269305  0.6061368799053071  1.0000
  O   O7        1.0  0.4179053439618699  0.49825118411970243  0.6064794981902679  1.0000
  O   O8        1.0  0.5820959706084212  0.5017420782388626  0.3935220044990686  1.0000
  O   O9        1.0  0.31801063784188  0.44296699293335007  0.0927428392250533  1.0000
  O   O10       1.0  0.25120393359282644  0.5265601564755045  0.1714447291757892  1.0000
  O   O11       1.0  0.6819921127829007  0.5570315207897991  0.9072571022486215  1.0000
  O   O12       1.0  0.748801692828444  0.47344295674724185  0.8285526260655729  1.0000
  O   O13       1.0  0.31895239459379354  0.44117499818203504  0.9082810317121144  1.0000
  O   O14       1.0  0.2507507668369798  0.5231158619730538  0.828147824124855  1.0000
  O   O15       1.0  0.6810553894077531  0.5588281060013074  0.09171837863279111  1.0000
  O   O16       1.0  0.7492548615449623  0.4768839707404382  0.1718500573456296  1.0000
