data_image0
_chemical_formula_structural       Cu12H24C72N84
_chemical_formula_sum              "Cu12 H24 C72 N84"
_cell_length_a       31.913236473359788
_cell_length_b       32.59426967195573
_cell_length_c       32.620244035243125
_cell_angle_alpha    90.05052837172377
_cell_angle_beta     89.99366024326463
_cell_angle_gamma    89.77988038093658

_space_group_name_H-M_alt    "P 1"
_space_group_IT_number       1

loop_
  _space_group_symop_operation_xyz
  'x, y, z'

loop_
  _atom_site_type_symbol
  _atom_site_label
  _atom_site_symmetry_multiplicity
  _atom_site_fract_x
  _atom_site_fract_y
  _atom_site_fract_z
  _atom_site_occupancy
  Cu  Cu1       1.0  0.1245833351076442  0.8362802584896303  0.9138795510703018  1.0000
  Cu  Cu2       1.0  0.16422691747708734  0.9166846900425656  0.8754801999854323  1.0000
  Cu  Cu3       1.0  0.08499328193505559  0.8745640260940493  0.833028112484051  1.0000
  Cu  Cu4       1.0  0.8751250876101506  0.33652421880727706  0.5861108684510158  1.0000
  Cu  Cu5       1.0  0.8342931422012255  0.4166280344881629  0.6252881454306233  1.0000
  Cu  Cu6       1.0  0.9152339135344151  0.3754285272592385  0.6662105391148218  1.0000
  Cu  Cu7       1.0  0.6258212236975639  0.6639438257537481  0.08726329318546527  1.0000
  Cu  Cu8       1.0  0.6650163676518588  0.5823770494508693  0.12470807333219373  1.0000
  Cu  Cu9       1.0  0.5844004705412688  0.624108557234955  0.1660450665053119  1.0000
  Cu  Cu10      1.0  0.3758466239847563  0.1633350144073162  0.4143926731035918  1.0000
  Cu  Cu11      1.0  0.3349660296723086  0.08411951191716582  0.37466413664897397  1.0000
  Cu  Cu12      1.0  0.4145775702038179  0.12582522465953622  0.33260701109563223  1.0000
  H   H1        1.0  0.19048388763414437  0.8177653066692232  0.9848733332619446  1.0000
  H   H2        1.0  0.23495559335517405  0.9358595100690225  0.9421292539944375  1.0000
  H   H3        1.0  0.014228153440903698  0.8079626779515298  0.8139839738798142  1.0000
  H   H4        1.0  0.058784060022311686  0.7656626906726915  0.9323513741450711  1.0000
  H   H5        1.0  0.18199329886748222  0.9885197114158902  0.8119931556762409  1.0000
  H   H6        1.0  0.06759456060139969  0.9382511883737764  0.7609921328855833  1.0000
  H   H7        1.0  0.8111402939038398  0.31932172642479634  0.5135909709141018  1.0000
  H   H8        1.0  0.7616064204528287  0.43443787179979426  0.5601305791169793  1.0000
  H   H9        1.0  0.9877067434954228  0.3099897690519455  0.6844077782474969  1.0000
  H   H10       1.0  0.9397776371262339  0.26404280963839005  0.5687450959724673  1.0000
  H   H11       1.0  0.8167214947322916  0.4885661051380837  0.689170357511081  1.0000
  H   H12       1.0  0.9328514226793841  0.43909033158325883  0.737952367103162  1.0000
  H   H13       1.0  0.6917924399961846  0.6825225560938861  0.016778711337082097  1.0000
  H   H14       1.0  0.7359342113626324  0.5633866940912712  0.05783927144795341  1.0000
  H   H15       1.0  0.5114426452943023  0.6893006733601795  0.1839186885419366  1.0000
  H   H16       1.0  0.5615892473368544  0.7367839988516067  0.069864143404196  1.0000
  H   H17       1.0  0.6827353909335301  0.5107229658924768  0.18868240731617902  1.0000
  H   H18       1.0  0.5668022295450112  0.5604879547342351  0.23770810760048994  1.0000
  H   H19       1.0  0.3117018920742041  0.1805354777916506  0.48723446787106883  1.0000
  H   H20       1.0  0.2627233195808785  0.06590073780376571  0.4398814096102655  1.0000
  H   H21       1.0  0.48516242688030087  0.1924575408442379  0.31359746453502874  1.0000
  H   H22       1.0  0.4417664775581684  0.23388027010025075  0.4327620967185056  1.0000
  H   H23       1.0  0.31737581666291703  0.012136106129865702  0.3112492601612685  1.0000
  H   H24       1.0  0.432057073412487  0.06206277747642733  0.2605557231220388  1.0000
  C   C1        1.0  0.6533310738074006  0.3758590856745556  0.40244018521084274  1.0000
  C   C2        1.0  0.6246853184116291  0.4036900658177842  0.3458460242691643  1.0000
  C   C3        1.0  0.5964458477087007  0.3470670509674392  0.37372797879123  1.0000
  C   C4        1.0  0.3460124356198691  0.8764210385420202  0.097400917510079  1.0000
  C   C5        1.0  0.4030433237952096  0.8475720691083738  0.1261269129912392  1.0000
  C   C6        1.0  0.3744352776340988  0.9042966488465256  0.1539919977626099  1.0000
  C   C7        1.0  0.15407339152677926  0.12339484381186594  0.5977715683019653  1.0000
  C   C8        1.0  0.1254265605403404  0.09560910617414463  0.6542649094564438  1.0000
  C   C9        1.0  0.09703614033915639  0.15239110955203475  0.6264151857503037  1.0000
  C   C10       1.0  0.8468036504396322  0.6240040006956209  0.9028887100670316  1.0000
  C   C11       1.0  0.9036570196073299  0.6527054708720214  0.8740458362660916  1.0000
  C   C12       1.0  0.8751833299098306  0.5961521347207538  0.8461219325289375  1.0000
  C   C13       1.0  0.1959754912212617  0.8464220037261329  0.9689136333133205  1.0000
  C   C14       1.0  0.22602646935283127  0.8768327600942528  0.9768974906322825  1.0000
  C   C15       1.0  0.21861834348542428  0.9071797247243226  0.947128220231157  1.0000
  C   C16       1.0  0.030567129413356  0.8030435753684275  0.842732720822468  1.0000
  C   C17       1.0  0.023208935389398295  0.7734037775043632  0.8731766640881985  1.0000
  C   C18       1.0  0.05324903865383129  0.7814928027160593  0.9036202691158123  1.0000
  C   C19       1.0  0.1542216433858172  0.9708008206412659  0.8048733266086928  1.0000
  C   C20       1.0  0.12484267113879348  0.9766115141796803  0.7732790546135035  1.0000
  C   C21       1.0  0.09534272824848242  0.9451853140333386  0.7788717327406686  1.0000
  C   C22       1.0  0.8043797991053196  0.3472633845196285  0.5304614448953586  1.0000
  C   C23       1.0  0.7730428170524634  0.3768761986548626  0.5234031131571157  1.0000
  C   C24       1.0  0.7791495887955548  0.40648759270160195  0.5541929414129712  1.0000
  C   C25       1.0  0.9705332757869911  0.3042181720689499  0.6563054436992743  1.0000
  C   C26       1.0  0.9771192386665036  0.2735912207836862  0.6265812605206804  1.0000
  C   C27       1.0  0.9461247011627305  0.2807941028920028  0.5967932369236876  1.0000
  C   C28       1.0  0.8449177407562443  0.4710774495939277  0.6957505740545284  1.0000
  C   C29       1.0  0.8748116129311398  0.47709233401342754  0.7268296512750538  1.0000
  C   C30       1.0  0.9046490103668958  0.44584965576142127  0.7206244106035484  1.0000
  C   C31       1.0  0.6972265822106677  0.6535946540767767  0.0323310438307658  1.0000
  C   C32       1.0  0.7271806657700706  0.6229926647248123  0.0238814978872313  1.0000
  C   C33       1.0  0.7196884228225001  0.592312339231171  0.0532460378498314  1.0000
  C   C34       1.0  0.5291479661157581  0.6954439021326382  0.15622068972523812  1.0000
  C   C35       1.0  0.5231619249312445  0.7264976763057266  0.12686314129245344  1.0000
  C   C36       1.0  0.554716608485421  0.7196563766262616  0.09753264540350409  1.0000
  C   C37       1.0  0.6545817119863029  0.5282745247033918  0.19530504095913406  1.0000
  C   C38       1.0  0.6247595364407201  0.522407233607531  0.2264753707437279  1.0000
  C   C39       1.0  0.5949230188522634  0.5536329666472782  0.2202861559466385  1.0000
  C   C40       1.0  0.3050988713932624  0.15272891036158856  0.4701637500405838  1.0000
  C   C41       1.0  0.2739281734019414  0.12314070738828063  0.47701547468260225  1.0000
  C   C42       1.0  0.2801574049599225  0.09373804510657643  0.4460147945761648  1.0000
  C   C43       1.0  0.4690768997067423  0.19718396991298456  0.3425297912355347  1.0000
  C   C44       1.0  0.4767805850854073  0.2265496941174021  0.373195161716012  1.0000
  C   C45       1.0  0.4470076185412637  0.21827029907253606  0.40383420040167545  1.0000
  C   C46       1.0  0.3452087487401698  0.029765720376673205  0.3041929169062314  1.0000
  C   C47       1.0  0.3747022556446566  0.0238069746063587  0.27271038213739723  1.0000
  C   C48       1.0  0.4042287287196515  0.055221698872863115  0.2783435593769639  1.0000
  C   C49       1.0  0.31342932517102884  0.8766449069322635  0.06484060543808572  1.0000
  C   C50       1.0  0.25746397647549196  0.87681631261205  0.008612968881607199  1.0000
  C   C51       1.0  0.6858667093098277  0.3762392787888161  0.4351228202845049  1.0000
  C   C52       1.0  0.741673944528678  0.37673529402368194  0.49155769663043003  1.0000
  C   C53       1.0  0.8143835342170435  0.6236620393520698  0.9356397012331713  1.0000
  C   C54       1.0  0.7586017784357891  0.6231790756640619  0.9921062313843901  1.0000
  C   C55       1.0  0.1867164240517667  0.12312074168914929  0.5652152360262264  1.0000
  C   C56       1.0  0.24257099883616462  0.12304392711668298  0.5088480250598623  1.0000
  C   C57       1.0  0.9361128262875338  0.6853254118278188  0.8737137238754968  1.0000
  C   C58       1.0  0.9918719705745005  0.741643188830459  0.8732805050427146  1.0000
  C   C59       1.0  0.5640339818748997  0.3144274516646988  0.3735079798272097  1.0000
  C   C60       1.0  0.5082338551040662  0.2581748844968033  0.37326370550808724  1.0000
  C   C61       1.0  0.0644883000546983  0.1851843839327003  0.6265827662690244  1.0000
  C   C62       1.0  0.008616117708406501  0.2417463339321486  0.6266340006833531  1.0000
  C   C63       1.0  0.4356847838673943  0.8148423834007874  0.12643112669287854  1.0000
  C   C64       1.0  0.4916875583803062  0.7583831175257602  0.1268004918707248  1.0000
  C   C65       1.0  0.12529654731829956  0.06333076399267411  0.6865013042056134  1.0000
  C   C66       1.0  0.12499689616335269  0.007872911755569603  0.7420082831783574  1.0000
  C   C67       1.0  0.6246674570759224  0.43589767637228516  0.31352256553083885  1.0000
  C   C68       1.0  0.6247437299239778  0.4912561727253291  0.25786935617040996  1.0000
  C   C69       1.0  0.37447786667119937  0.936661552086868  0.1861999654517064  1.0000
  C   C70       1.0  0.3746499570274436  0.9923760499273514  0.24155854175442218  1.0000
  C   C71       1.0  0.8751034448869106  0.5638838916117876  0.8137827587869991  1.0000
  C   C72       1.0  0.8749037623199811  0.5083690015266813  0.7581740329957397  1.0000
  N   N1        1.0  0.6549643099493566  0.40575395689473487  0.3742721059969795  1.0000
  N   N2        1.0  0.5944726898610001  0.37530757791293484  0.3438906553488151  1.0000
  N   N3        1.0  0.6250377642951009  0.3456079867106185  0.40382812913313165  1.0000
  N   N4        1.0  0.3746438616117871  0.8462307697525588  0.0958985921041347  1.0000
  N   N5        1.0  0.4047354148349882  0.8757600183078157  0.1560540503741734  1.0000
  N   N6        1.0  0.34413148861197124  0.9063293146724691  0.12561592896123128  1.0000
  N   N7        1.0  0.15577109911532014  0.0934531958506284  0.625901649443648  1.0000
  N   N8        1.0  0.09516634191793828  0.1241930105755316  0.6562656735969199  1.0000
  N   N9        1.0  0.1256071171451936  0.15371019443015405  0.5963168352632451  1.0000
  N   N10       1.0  0.8752495627230559  0.6541431786185611  0.9043014815329399  1.0000
  N   N11       1.0  0.9054462729427825  0.624486199368228  0.8441174886698944  1.0000
  N   N12       1.0  0.8449528827492826  0.59418277047331  0.874584780136132  1.0000
  N   N13       1.0  0.18671074551910752  0.8955007028751398  0.9230763066576486  1.0000
  N   N14       1.0  0.17231103597413977  0.858002464056064  0.9369457557464571  1.0000
  N   N15       1.0  0.07685169756459229  0.8133898614328104  0.8919816271799518  1.0000
  N   N16       1.0  0.0624356724704072  0.8271190160469288  0.8543875532064786  1.0000
  N   N17       1.0  0.10653625265356229  0.9222524737354478  0.8112404077826056  1.0000
  N   N18       1.0  0.14286038501204953  0.9384628127856021  0.8276756453639467  1.0000
  N   N19       1.0  0.8115477798681994  0.3951691274646194  0.5779006516613804  1.0000
  N   N20       1.0  0.8274747068757333  0.3585841388681885  0.5628783672914608  1.0000
  N   N21       1.0  0.9227505470497164  0.3131633860218699  0.6081057799798231  1.0000
  N   N22       1.0  0.9381851511512664  0.32799657611972327  0.6448565176777733  1.0000
  N   N23       1.0  0.8931890974841891  0.4228748787529001  0.6884002426661979  1.0000
  N   N24       1.0  0.8562966305814185  0.4388044089297125  0.6726719647311938  1.0000
  N   N25       1.0  0.6878148427269437  0.6039729497323593  0.0774806668173511  1.0000
  N   N26       1.0  0.6735402204269292  0.6418236236799472  0.0641524686096702  1.0000
  N   N27       1.0  0.5778474153234967  0.687114946094802  0.1087754267613263  1.0000
  N   N28       1.0  0.5616971612170047  0.6717879934313377  0.14500025094331187  1.0000
  N   N29       1.0  0.6063140091733317  0.5764946687338794  0.1879884011970177  1.0000
  N   N30       1.0  0.6431445202261585  0.5604565661968836  0.1721874715648752  1.0000
  N   N31       1.0  0.3124659825616617  0.10516022505225922  0.4223702338902059  1.0000
  N   N32       1.0  0.32823614967529824  0.14157700349473154  0.43765232018423456  1.0000
  N   N33       1.0  0.4232441918360763  0.18650346114529984  0.39210452318132377  1.0000
  N   N34       1.0  0.4372772901420134  0.1730734318963982  0.35423990645881526  1.0000
  N   N35       1.0  0.3929396001843485  0.07826770443340082  0.3106375164718073  1.0000
  N   N36       1.0  0.3565218478208365  0.06218228940447552  0.3269650761695999  1.0000
  N   N37       1.0  0.2941360617582091  0.84072661624176  0.0570238136638892  1.0000
  N   N38       1.0  0.30586405303211  0.9126691047990434  0.045880638098353195  1.0000
  N   N39       1.0  0.27736761881106986  0.9127605377265554  0.016626880736275492  1.0000
  N   N40       1.0  0.26501660966226126  0.8408168019973845  0.028389607518768404  1.0000
  N   N41       1.0  0.691060837596119  0.4116277785067056  0.4558989822046087  1.0000
  N   N42       1.0  0.7074899708967307  0.3411270258131367  0.44116879201079934  1.0000
  N   N43       1.0  0.7365920861575858  0.34144927367650985  0.469837337030043  1.0000
  N   N44       1.0  0.7194092800471522  0.41182786304113966  0.48532012279303427  1.0000
  N   N45       1.0  0.8070984988720794  0.5875232177096664  0.9543828609091419  1.0000
  N   N46       1.0  0.7949593347633979  0.6595720466790028  0.9438615809750958  1.0000
  N   N47       1.0  0.7659542731139907  0.6593259043691476  0.9726153766190606  1.0000
  N   N48       1.0  0.7786990756112927  0.5872650309405287  0.9837405789574803  1.0000
  N   N49       1.0  0.19245481176215407  0.08776940245558512  0.5444443373598061  1.0000
  N   N50       1.0  0.20784493906295853  0.15837255512349205  0.5592375225861731  1.0000
  N   N51       1.0  0.23697541090682245  0.15826921238223696  0.5305974568718099  1.0000
  N   N52       1.0  0.22083831665297987  0.08778248067407193  0.5150525886386887  1.0000
  N   N53       1.0  0.9433413841253326  0.7042806964996587  0.837680802239042  1.0000
  N   N54       1.0  0.9556867071439539  0.6931704487489938  0.9095113163738445  1.0000
  N   N55       1.0  0.984682159570994  0.7218452613996293  0.9092830685360765  1.0000
  N   N56       1.0  0.9717222065090211  0.7335743529220623  0.8374519450520381  1.0000
  N   N57       1.0  0.5565656622956396  0.2955249095283889  0.3374540426246995  1.0000
  N   N58       1.0  0.5448400012978138  0.3064125937666234  0.409447156082841  1.0000
  N   N59       1.0  0.5158257852879443  0.2777568734073769  0.40932838013559086  1.0000
  N   N60       1.0  0.52816544836935  0.26626138261352844  0.3373245334883848  1.0000
  N   N61       1.0  0.058542982225908695  0.20568130113046124  0.6620330444654597  1.0000
  N   N62       1.0  0.043708631035237  0.19165166491771402  0.5911611623917352  1.0000
  N   N63       1.0  0.014571655833918796  0.22041308297026063  0.5912361349963646  1.0000
  N   N64       1.0  0.030145353108053996  0.23517788429553127  0.6620133019603784  1.0000
  N   N65       1.0  0.4410146480365853  0.7939880847447899  0.1617317193295804  1.0000
  N   N66       1.0  0.45726283070690954  0.8089029606785731  0.0913704074282435  1.0000
  N   N67       1.0  0.48647965397040577  0.7802078233091125  0.0916320368343122  1.0000
  N   N68       1.0  0.4694692825340994  0.764538337701872  0.1618624366808774  1.0000
  N   N69       1.0  0.08941812220611212  0.04223614657849592  0.6915968260395857  1.0000
  N   N70       1.0  0.1610298558189669  0.057957219398176114  0.7079004041180852  1.0000
  N   N71       1.0  0.16079146461432  0.029785124325123008  0.7368867122941578  1.0000
  N   N72       1.0  0.0893457773097523  0.013276443413587904  0.7197952719071309  1.0000
  N   N73       1.0  0.6606399403594309  0.44119434979807454  0.292535202815678  1.0000
  N   N74       1.0  0.5887664407518755  0.4571209655560226  0.30801254768661585  1.0000
  N   N75       1.0  0.5888833046643782  0.48601970308767056  0.2797435929826122  1.0000
  N   N76       1.0  0.660612315807029  0.46931119228219154  0.2634943254329016  1.0000
  N   N77       1.0  0.4102738735599231  0.9579284471379454  0.19116078084900318  1.0000
  N   N78       1.0  0.3388120839050329  0.9418854679432443  0.2077585607031551  1.0000
  N   N79       1.0  0.3389957961454612  0.9701855510468108  0.23667313041281798  1.0000
  N   N80       1.0  0.4102791967336897  0.9870178711101476  0.2192816789839185  1.0000
  N   N81       1.0  0.8392134177860483  0.5588081893049195  0.7926085595008627  1.0000
  N   N82       1.0  0.9108905201972773  0.5424324690077071  0.8084203799018326  1.0000
  N   N83       1.0  0.91070751445487  0.5134543252845845  0.7801811506568515  1.0000
  N   N84       1.0  0.839189502078696  0.5306160566862984  0.7635873094431742  1.0000
