data_image0
_chemical_formula_structural       Zn4H28C44N24Cl4O8
_chemical_formula_sum              "Zn4 H28 C44 N24 Cl4 O8"
_cell_length_a       5.913919387945977
_cell_length_b       13.970736380719517
_cell_length_c       15.702993479224592
_cell_angle_alpha    90.00045845286621
_cell_angle_beta     90.0003313956263
_cell_angle_gamma    100.98885291924601

_space_group_name_H-M_alt    "P 1"
_space_group_IT_number       1

loop_
  _space_group_symop_operation_xyz
  'x, y, z'

loop_
  _atom_site_type_symbol
  _atom_site_label
  _atom_site_symmetry_multiplicity
  _atom_site_fract_x
  _atom_site_fract_y
  _atom_site_fract_z
  _atom_site_occupancy
  Zn  Zn1       1.0  0.7347161066257756  0.2086858650979408  0.5194356275551114  1.0000
  Zn  Zn2       1.0  0.26527547266224627  0.2913103070592413  0.0194276161602787  1.0000
  Zn  Zn3       1.0  0.2652523320994646  0.7913160041993946  0.48056644482731753  1.0000
  Zn  Zn4       1.0  0.734694915869291  0.7086762892135283  0.9805731825232297  1.0000
  H   H1        1.0  0.9564331059354456  0.31584487535697997  0.7791523486297719  1.0000
  H   H2        1.0  0.04354110586434251  0.18415597688220234  0.2791608974633135  1.0000
  H   H3        1.0  0.04357153388429675  0.6841586131065396  0.22085354472321936  1.0000
  H   H4        1.0  0.9564407178183885  0.8158415865822803  0.7208144284236082  1.0000
  H   H5        1.0  0.7345755534246622  0.31186641685873434  0.8950357448511069  1.0000
  H   H6        1.0  0.26545777837297624  0.18814167349882632  0.3950314025759026  1.0000
  H   H7        1.0  0.26546085331850844  0.6881481309320351  0.1049803377165688  1.0000
  H   H8        1.0  0.7345012295648203  0.8118499651546924  0.6049509282989404  1.0000
  H   H9        1.0  0.7410718588362356  0.5881992783710427  0.7201924381215645  1.0000
  H   H10       1.0  0.25895706653997047  0.9118162720955069  0.22017005153008273  1.0000
  H   H11       1.0  0.2590598212489398  0.4118404425435216  0.279861853914575  1.0000
  H   H12       1.0  0.7410154407947546  0.0881594181404211  0.7798262893651111  1.0000
  H   H13       1.0  0.23009511708907834  0.48753671255649056  0.918305988479929  1.0000
  H   H14       1.0  0.769886743732414  0.012456821644462901  0.4183051506567423  1.0000
  H   H15       1.0  0.7698630459373562  0.5124330911934649  0.08169926787571308  1.0000
  H   H16       1.0  0.23009019401721537  0.987553090912314  0.5817064740839013  1.0000
  H   H17       1.0  0.29401856545195665  0.5055190700240643  0.5806341996098678  1.0000
  H   H18       1.0  0.7059917467009953  0.9944979232632034  0.0806286390056812  1.0000
  H   H19       1.0  0.7060208917245419  0.4944867590504883  0.4193748778937802  1.0000
  H   H20       1.0  0.2940433623586429  0.005497698070726598  0.9193435028217747  1.0000
  H   H21       1.0  0.4051474065050655  0.36498466154711895  0.5338204081912961  1.0000
  H   H22       1.0  0.5948267401594691  0.13500575280991708  0.0338233352409176  1.0000
  H   H23       1.0  0.5948531686408033  0.6350013435819475  0.4661867587332153  1.0000
  H   H24       1.0  0.4050920571588676  0.8649827931991252  0.9661691847212308  1.0000
  H   H25       1.0  0.5165598254579038  0.15917521179395067  0.7158455378542286  1.0000
  H   H26       1.0  0.4834733239581369  0.3408354670578858  0.21583834924897619  1.0000
  H   H27       1.0  0.48339376182217114  0.8408076699841088  0.28416099218926405  1.0000
  H   H28       1.0  0.5166182586511212  0.6591895180058956  0.7841427082457955  1.0000
  C   C1        1.0  0.9696454870609373  0.3826365933067705  0.7419896395259968  1.0000
  C   C2        1.0  0.030330291945148205  0.11737335766382269  0.2419931930067918  1.0000
  C   C3        1.0  0.03035178208212132  0.6173734112038574  0.25802134841444496  1.0000
  C   C4        1.0  0.9696710731293122  0.882618472592348  0.7579942324819198  1.0000
  C   C5        1.0  0.1353143654406352  0.40323720296829885  0.6777851870677691  1.0000
  C   C6        1.0  0.8646774684730687  0.0967692731368217  0.1777921919030305  1.0000
  C   C7        1.0  0.864690443402587  0.5967706524956993  0.322220069480842  1.0000
  C   C8        1.0  0.13532053544967232  0.9032305466447494  0.822186318115257  1.0000
  C   C9        1.0  0.829295077355866  0.45076213741148763  0.7569213050891574  1.0000
  C   C10       1.0  0.1706922245436573  0.049238553500281085  0.25691316052589025  1.0000
  C   C11       1.0  0.17074116036382492  0.5492480433788032  0.24309541428290518  1.0000
  C   C12       1.0  0.8292968560076447  0.9507641368046506  0.7430768122768612  1.0000
  C   C13       1.0  0.6294734944934461  0.3670554546707407  0.8848237832549939  1.0000
  C   C14       1.0  0.3705484127667091  0.13296194292087898  0.38481668565032107  1.0000
  C   C15       1.0  0.37055257753949183  0.6329546801474065  0.11519420974904895  1.0000
  C   C16       1.0  0.6294384939055889  0.8670356435998058  0.6151720134881984  1.0000
  C   C17       1.0  0.8496201853290161  0.5353172651973634  0.7081462355737286  1.0000
  C   C18       1.0  0.15036582121167905  0.9646972440959728  0.2081450474475304  1.0000
  C   C19       1.0  0.15043209110856992  0.46469880980255596  0.2918736679434559  1.0000
  C   C20       1.0  0.8496126141037336  0.03530030413796939  0.7918493830735045  1.0000
  C   C21       1.0  0.014515119862615248  0.5536839534199486  0.6438487978834644  1.0000
  C   C22       1.0  0.9854379195421147  0.9463152151067291  0.1438606319931637  1.0000
  C   C23       1.0  0.985491355755947  0.44631590481093036  0.3561564586362635  1.0000
  C   C24       1.0  0.01456728623985271  0.053673721726070794  0.8561331617009387  1.0000
  C   C25       1.0  0.3750818277589404  0.45768253330631126  0.8947372672939051  1.0000
  C   C26       1.0  0.6249049345388542  0.04231151704866679  0.39473508898072396  1.0000
  C   C27       1.0  0.6248890128469642  0.54230115418504  0.10526353137894517  1.0000
  C   C28       1.0  0.3750969377123639  0.9576934142599284  0.6052606152349043  1.0000
  C   C29       1.0  0.16063367269948264  0.48792480204713223  0.6288706592874431  1.0000
  C   C30       1.0  0.8393420057302238  0.012069472616040898  0.1288744176420096  1.0000
  C   C31       1.0  0.8393649524872444  0.5120764760331936  0.37112313444714556  1.0000
  C   C32       1.0  0.16065797557326536  0.9879230790690413  0.8711091869205345  1.0000
  C   C33       1.0  0.4060623478776577  0.3246588681348967  0.5926657229231012  1.0000
  C   C34       1.0  0.5939279923996565  0.17533948002169097  0.09266131466615239  1.0000
  C   C35       1.0  0.5939276094605788  0.6753299997811338  0.40733825989528316  1.0000
  C   C36       1.0  0.4060394869481955  0.824652196944065  0.9073203793962035  1.0000
  C   C37       1.0  0.4592902336942473  0.2208445966849623  0.6869779710824631  1.0000
  C   C38       1.0  0.5407114780780661  0.27915692125011293  0.18697297470195198  1.0000
  C   C39       1.0  0.5406783191049341  0.7791456298523227  0.3130298326468548  1.0000
  C   C40       1.0  0.4593258324748959  0.7208518088152686  0.8130106299604447  1.0000
  C   C41       1.0  0.03512830059307244  0.6468636988229972  0.5935326542018515  1.0000
  C   C42       1.0  0.9648596064203476  0.8531438608233088  0.09352208196605008  1.0000
  C   C43       1.0  0.964895625048932  0.3531493370975411  0.4064821547048324  1.0000
  C   C44       1.0  0.035105247126992416  0.14684562121293246  0.906472985331575  1.0000
  N   N1        1.0  0.28393056162676084  0.33613217778459153  0.6632610994222502  1.0000
  N   N2        1.0  0.7160645266550034  0.1638785352103511  0.16325939938720066  1.0000
  N   N3        1.0  0.7160762245573338  0.6638684095637897  0.3367454307430862  1.0000
  N   N4        1.0  0.2839379665545038  0.8361278542503638  0.8367222947670425  1.0000
  N   N5        1.0  0.6614169250863284  0.43494255132268467  0.822559514032548  1.0000
  N   N6        1.0  0.3385901008445202  0.06506615675235139  0.3225511954116342  1.0000
  N   N7        1.0  0.3386131566044881  0.5650690570375118  0.17745720533870465  1.0000
  N   N8        1.0  0.6614079031380343  0.9349336630579115  0.6774330459979365  1.0000
  N   N9        1.0  0.520760871244228  0.2527075967077934  0.6063018180810359  1.0000
  N   N10       1.0  0.47923819757593134  0.24728292138936325  0.1063002737991141  1.0000
  N   N11       1.0  0.4792122848026708  0.7472775566943991  0.3937040751698078  1.0000
  N   N12       1.0  0.5207627155105571  0.7527118176896579  0.8936954303765672  1.0000
  N   N13       1.0  0.4482445714917488  0.3797931755169372  0.9311791402225464  1.0000
  N   N14       1.0  0.5517774581080772  0.12020285110141765  0.4311710404116695  1.0000
  N   N15       1.0  0.5517593921676324  0.6201928449128005  0.068822932135447  1.0000
  N   N16       1.0  0.4481949901421345  0.879800491674217  0.5688170219128847  1.0000
  N   N17       1.0  0.5004573148391884  0.4932046490368477  0.8283998606838592  1.0000
  N   N18       1.0  0.49953577168267316  0.0067909552134465985  0.3283965187082813  1.0000
  N   N19       1.0  0.4995388260558542  0.5067907962150356  0.1716060326297253  1.0000
  N   N20       1.0  0.5004847376653531  0.9932140603795359  0.6715972750628791  1.0000
  N   N21       1.0  0.3162865624848835  0.2699723869723343  0.7240747618780998  1.0000
  N   N22       1.0  0.683730578541585  0.230036117988405  0.2240735019033053  1.0000
  N   N23       1.0  0.6837043540513077  0.7300266731892078  0.27593240508650035  1.0000
  N   N24       1.0  0.31632167004242717  0.7699719519495571  0.7759132868780367  1.0000
  Cl  Cl1       1.0  0.9845678502512528  0.1259552853811243  0.5727056634522681  1.0000
  Cl  Cl2       1.0  0.015443336465665444  0.3740451422404547  0.0726990497483087  1.0000
  Cl  Cl3       1.0  0.015389463469659794  0.8740363456411867  0.42728303563335857  1.0000
  Cl  Cl4       1.0  0.9845596364524739  0.6259663433956174  0.927294744029737  1.0000
  O   O1        1.0  0.19909814786090874  0.6618127848881202  0.5377619832840494  1.0000
  O   O2        1.0  0.8008374561637196  0.8381932574864376  0.037758604743928  1.0000
  O   O3        1.0  0.8009051632570278  0.33820743482221616  0.4622451837740725  1.0000
  O   O4        1.0  0.1991494230205149  0.1617963241476019  0.9622320048277188  1.0000
  O   O5        1.0  0.8964286343911783  0.7023501049590022  0.6077832553888669  1.0000
  O   O6        1.0  0.10356451121106859  0.7976612581467248  0.10775649549359659  1.0000
  O   O7        1.0  0.10362271060898108  0.2976637828127266  0.3922576632203913  1.0000
  O   O8        1.0  0.8963613739656681  0.2023280477086615  0.8922525818312792  1.0000
