data_image0
_chemical_formula_structural       Ag4H24C28S16N8O12
_chemical_formula_sum              "Ag4 H24 C28 S16 N8 O12"
_cell_length_a       5.41478986308215
_cell_length_b       14.009228736123118
_cell_length_c       15.73371881826701
_cell_angle_alpha    90.0003684916788
_cell_angle_beta     89.99944602284158
_cell_angle_gamma    89.99969213913269

_space_group_name_H-M_alt    "P 1"
_space_group_IT_number       1

loop_
  _space_group_symop_operation_xyz
  'x, y, z'

loop_
  _atom_site_type_symbol
  _atom_site_label
  _atom_site_symmetry_multiplicity
  _atom_site_fract_x
  _atom_site_fract_y
  _atom_site_fract_z
  _atom_site_occupancy
  Ag  Ag1       1.0  0.9708242240745976  0.39350464158447823  0.2089939712366515  1.0000
  Ag  Ag2       1.0  0.9708219163479798  0.6064963461567601  0.7910095570776151  1.0000
  Ag  Ag3       1.0  0.029180080901625195  0.8935020312221555  0.2910093577004104  1.0000
  Ag  Ag4       1.0  0.029172292324823  0.10649662100360763  0.7089909357151498  1.0000
  H   H1        1.0  0.5249572508864092  0.6770415428763386  0.1467940781569652  1.0000
  H   H2        1.0  0.5249460662461943  0.3229603669522377  0.8532083855934757  1.0000
  H   H3        1.0  0.4750463824168278  0.17704122566392752  0.3532061070535519  1.0000
  H   H4        1.0  0.4750451205509521  0.8229586459100203  0.6467914374721886  1.0000
  H   H5        1.0  0.692311749708665  0.7761237610951072  0.1050385391967765  1.0000
  H   H6        1.0  0.6923081577362495  0.22387780261668408  0.8949614631469416  1.0000
  H   H7        1.0  0.3076849600168998  0.27612337840003687  0.394960305507901  1.0000
  H   H8        1.0  0.30768810587670714  0.7238761254705396  0.6050377936926382  1.0000
  H   H9        1.0  0.49243186975949277  0.795571471149195  0.1942511469722206  1.0000
  H   H10       1.0  0.4924255252371593  0.20442907830214108  0.8057495178316926  1.0000
  H   H11       1.0  0.5075664152511622  0.2955714569923771  0.3057484444445393  1.0000
  H   H12       1.0  0.507569163105643  0.7044269196931341  0.6942489922896868  1.0000
  H   H13       1.0  0.8799429870233408  0.8071033816349814  0.5647687901489817  1.0000
  H   H14       1.0  0.8799454075373987  0.19289850785445847  0.4352318614779449  1.0000
  H   H15       1.0  0.12005580830892634  0.307102964635348  0.9352309422913834  1.0000
  H   H16       1.0  0.12004692359642631  0.6928997825491409  0.0647703211051009  1.0000
  H   H17       1.0  0.78501648084373  0.8915475249938397  0.4847811061647889  1.0000
  H   H18       1.0  0.7850159772793502  0.10845384700110833  0.5152204956564789  1.0000
  H   H19       1.0  0.21498046431177195  0.39154672685887  0.0152190337172584  1.0000
  H   H20       1.0  0.2149782040202979  0.6084529687534613  0.9847838217852782  1.0000
  H   H21       1.0  0.0874190148663985  0.8977785887230425  0.529981384421248  1.0000
  H   H22       1.0  0.08742356684956581  0.10221994304504281  0.4700180803755529  1.0000
  H   H23       1.0  0.9125748210102672  0.39777821216594605  0.970019501778161  1.0000
  H   H24       1.0  0.9125681833835557  0.6022243236697736  0.029982948447432996  1.0000
  C   C1        1.0  0.4722428874247129  0.5763496835104859  0.42187633288538257  1.0000
  C   C2        1.0  0.4722491368949234  0.42365090767790303  0.578123763232135  1.0000
  C   C3        1.0  0.5277566112069607  0.07634726621454752  0.0781232769117111  1.0000
  C   C4        1.0  0.5277720397139732  0.9236524963379082  0.9218753640447375  1.0000
  C   C5        1.0  0.745447155011824  0.679198386539767  0.32253856552929255  1.0000
  C   C6        1.0  0.7454409575713897  0.3208037811040613  0.6774618962923357  1.0000
  C   C7        1.0  0.2545564482057117  0.179195825628625  0.1774609964227238  1.0000
  C   C8        1.0  0.25455395290192234  0.8207995052421283  0.8225404567464096  1.0000
  C   C9        1.0  0.8279994137874244  0.6983152764092041  0.4029873597193756  1.0000
  C   C10       1.0  0.8279920587889222  0.30169028958032135  0.5970109217793791  1.0000
  C   C11       1.0  0.1720039226150192  0.19830873484186645  0.09700976915661388  1.0000
  C   C12       1.0  0.17200127180235114  0.8016860529158836  0.9029856018372016  1.0000
  C   C13       1.0  0.29561181901130607  0.51374482438149  0.45441675112726193  1.0000
  C   C14       1.0  0.2956218059959498  0.4862547044409952  0.5455788457652347  1.0000
  C   C15       1.0  0.7043867068393438  0.013742520078608302  0.04558059417673381  1.0000
  C   C16       1.0  0.7043966499001401  0.9862525943084037  0.9544187325286515  1.0000
  C   C17       1.0  0.12379089900625928  0.4767263375984997  0.39647195149900943  1.0000
  C   C18       1.0  0.12378211359472861  0.5232792571083067  0.6035254860604056  1.0000
  C   C19       1.0  0.876215937849665  0.9767213323278058  0.1035261328073673  1.0000
  C   C20       1.0  0.8762132569700896  0.02327199906739001  0.8964675398019253  1.0000
  C   C21       1.0  0.6162250948482823  0.7445170283478649  0.1632072768920239  1.0000
  C   C22       1.0  0.6162134683488106  0.25548469273221747  0.8367948843711233  1.0000
  C   C23       1.0  0.3837757497013143  0.24451606726767494  0.3367920227617702  1.0000
  C   C24       1.0  0.38378420082629827  0.7554825654137076  0.6632039175081132  1.0000
  C   C25       1.0  0.9385311470623989  0.8496422240969893  0.5099940973276631  1.0000
  C   C26       1.0  0.9385344632775486  0.1503566889636971  0.4900057245338658  1.0000
  C   C27       1.0  0.06146520761978281  0.3496416109136645  0.9900058782088976  1.0000
  C   C28       1.0  0.0614584617564589  0.650359115992991  0.009995579364115801  1.0000
  S   S1        1.0  0.4997393091108577  0.5991756476080212  0.3143906386059427  1.0000
  S   S2        1.0  0.4997391518462423  0.4008277419921528  0.6856119087098519  1.0000
  S   S3        1.0  0.5002598708731797  0.0991690684663666  0.18561037277646622  1.0000
  S   S4        1.0  0.5002731094087665  0.9008236128089352  0.8143902660283047  1.0000
  S   S5        1.0  0.6852914144353052  0.6340045428000354  0.4849483280441049  1.0000
  S   S6        1.0  0.6852928606315701  0.3659948939796252  0.5150516975525719  1.0000
  S   S7        1.0  0.3147109729190731  0.13400210957545516  0.0150503400676456  1.0000
  S   S8        1.0  0.3147143465260882  0.8659952383190372  0.9849477358401586  1.0000
  S   S9        1.0  0.8817858632396138  0.7214971706423797  0.23016678299099882  1.0000
  S   S10       1.0  0.8817850380434893  0.2785054288497761  0.7698325913802222  1.0000
  S   S11       1.0  0.11821345588138851  0.2214962741016535  0.2698323851161035  1.0000
  S   S12       1.0  0.1182141565133961  0.7785043354352369  0.7301682487868105  1.0000
  S   S13       1.0  0.07159060038461722  0.7750184428084241  0.42755390845369595  1.0000
  S   S14       1.0  0.07158685592531812  0.22498154933296635  0.5724456088208711  1.0000
  S   S15       1.0  0.928415358750577  0.27501658346347574  0.0724449299149725  1.0000
  S   S16       1.0  0.9284093922526677  0.7249823505247406  0.9275542899109439  1.0000
  N   N1        1.0  0.9845953114308444  0.44972377214662634  0.3442774469969123  1.0000
  N   N2        1.0  0.9845994511932475  0.5502800423528457  0.6557215866299232  1.0000
  N   N3        1.0  0.015408208758309205  0.9497187834328357  0.15572366089423179  1.0000
  N   N4        1.0  0.015408469893472401  0.05027846963095331  0.8442754069925869  1.0000
  N   N5        1.0  0.47594289152057456  0.47089535310930597  0.1500381942514295  1.0000
  N   N6        1.0  0.47594554169747044  0.5291059442483858  0.8499625251888574  1.0000
  N   N7        1.0  0.5240492523247724  0.9708942874752255  0.3499623990793665  1.0000
  N   N8        1.0  0.5240534409531606  0.029104768949991904  0.6500387964915149  1.0000
  O   O1        1.0  0.48843278451847283  0.39066193800060484  0.1878370181821865  1.0000
  O   O2        1.0  0.4884298404003716  0.6093379059024642  0.812163659868176  1.0000
  O   O3        1.0  0.5115678665902123  0.8906620522228936  0.3121624810578965  1.0000
  O   O4        1.0  0.5115661753860651  0.109338457646615  0.6878374847384309  1.0000
  O   O5        1.0  0.26661245430187824  0.5083765250186191  0.13580170892237223  1.0000
  O   O6        1.0  0.26660968579102473  0.49162449143873493  0.8641990687287944  1.0000
  O   O7        1.0  0.7333861464366722  0.0083757531023139  0.3641987835964001  1.0000
  O   O8        1.0  0.7333883803605589  0.9916242980280786  0.6358010826011622  1.0000
  O   O9        1.0  0.6725931911850722  0.513454873118981  0.1283298354134246  1.0000
  O   O10       1.0  0.6725939763975576  0.4865460175572167  0.8716715034293047  1.0000
  O   O11       1.0  0.32740533863871246  0.013454281069030603  0.37167195728203944  1.0000
  O   O12       1.0  0.3274060074097492  0.9865444682263701  0.6283317967603637  1.0000
