data_image0
_chemical_formula_structural       CdH24C24Br2N12
_chemical_formula_sum              "Cd1 H24 C24 Br2 N12"
_cell_length_a       7.76013869907702
_cell_length_b       8.946019540971417
_cell_length_c       11.379058331096047
_cell_angle_alpha    105.34653033327469
_cell_angle_beta     90.81860818331904
_cell_angle_gamma    112.6945073939115

_space_group_name_H-M_alt    "P 1"
_space_group_IT_number       1

loop_
  _space_group_symop_operation_xyz
  'x, y, z'

loop_
  _atom_site_type_symbol
  _atom_site_label
  _atom_site_symmetry_multiplicity
  _atom_site_fract_x
  _atom_site_fract_y
  _atom_site_fract_z
  _atom_site_occupancy
  Cd  Cd1       1.0  0.4999991330255328  0.9999984265253656  3.012433680231582e-07  1.0000
  H   H1        1.0  0.29667361271526005  0.49050142921433343  0.6292928150110131  1.0000
  H   H2        1.0  0.703326466610669  0.5095000448027776  0.3707071265095223  1.0000
  H   H3        1.0  0.8767984545799197  0.10578911896060109  0.33891475910508023  1.0000
  H   H4        1.0  0.12320589630787265  0.8942161761495054  0.6610842665510503  1.0000
  H   H5        1.0  0.6969363686893219  0.9781777095923088  0.4940514099190951  1.0000
  H   H6        1.0  0.30306556762710823  0.021825046325872694  0.5059461816842943  1.0000
  H   H7        1.0  0.8202150268733207  0.10796595468506345  0.7162721414774113  1.0000
  H   H8        1.0  0.1797846612195642  0.8920317301003706  0.28372524503596014  1.0000
  H   H9        1.0  0.2135938433864837  0.5214774978910127  0.8471317744580844  1.0000
  H   H10       1.0  0.7864065717939113  0.47851891965080984  0.15286799014268843  1.0000
  H   H11       1.0  0.04427982523470314  0.3423616966070566  0.8815096617032838  1.0000
  H   H12       1.0  0.955718738219929  0.6576334513776131  0.11848806140594807  1.0000
  H   H13       1.0  0.11502321188075373  0.3834711775968458  0.3079039055503331  1.0000
  H   H14       1.0  0.8849785538760745  0.6165341003870137  0.692095970217274  1.0000
  H   H15       1.0  0.3100825059653617  0.5144922719763727  0.4264184963398777  1.0000
  H   H16       1.0  0.6899218438694918  0.4855130206649463  0.5735814075979846  1.0000
  H   H17       1.0  0.7172650292556784  0.3586099542172931  0.8748682661323957  1.0000
  H   H18       1.0  0.2827346514665693  0.6413877132866546  0.12513526835314084  1.0000
  H   H19       1.0  0.1447585675647575  0.1089062037944686  0.9069844346032315  1.0000
  H   H20       1.0  0.8552416791619354  0.8910927407506081  0.09301585759828873  1.0000
  H   H21       1.0  0.6178380264537183  0.13464849177645277  0.32383289817541083  1.0000
  H   H22       1.0  0.38215575902496823  0.8653504136561948  0.6761682018822202  1.0000
  H   H23       1.0  0.2030384179256259  0.20899238506143547  0.1329612086423495  1.0000
  H   H24       1.0  0.7969579537369783  0.7910065399662328  0.867038163022059  1.0000
  C   C1        1.0  0.06713729403273308  0.30745626302370244  0.6872824867314977  1.0000
  C   C2        1.0  0.932864807578568  0.6925439584848687  0.3127172121163539  1.0000
  C   C3        1.0  0.16436189866229264  0.3791142848777156  0.5999066837628676  1.0000
  C   C4        1.0  0.8356364963386299  0.6208833901102082  0.40009156694711134  1.0000
  C   C5        1.0  0.09583688825372152  0.308498251526423  0.4750839790326823  1.0000
  C   C6        1.0  0.9041648785560527  0.6915070289262245  0.5249150184531857  1.0000
  C   C7        1.0  0.9271241981699989  0.16340133480115782  0.43708041669614783  1.0000
  C   C8        1.0  0.07287627870665848  0.8366039432603286  0.5629168101411254  1.0000
  C   C9        1.0  0.8271029861631692  0.0923220659158943  0.5234535108893328  1.0000
  C   C10       1.0  0.1728976591671979  0.9076806851423455  0.4765431883471863  1.0000
  C   C11       1.0  0.8969759770726499  0.1642605670855772  0.6484652141844551  1.0000
  C   C12       1.0  0.1030231502805279  0.835735853002646  0.35153102320423113  1.0000
  C   C13       1.0  0.15086677828575296  0.3825118146138351  0.8208036923404409  1.0000
  C   C14       1.0  0.849137510905777  0.6174846199766006  0.1791978710791824  1.0000
  C   C15       1.0  0.2074117085939946  0.3842053116530052  0.3823778101175677  1.0000
  C   C16       1.0  0.7925920815540978  0.6157987187598976  0.6176200664138778  1.0000
  C   C17       1.0  0.5665289716902961  0.3242160772629673  0.8708682413232439  1.0000
  C   C18       1.0  0.43347200422980603  0.6757816049760593  0.1291326724022071  1.0000
  C   C19       1.0  0.27781110654886737  0.19459401360965234  0.8883319406899943  1.0000
  C   C20       1.0  0.7221885741733873  0.8054036538942951  0.11167159379554195  1.0000
  C   C21       1.0  0.5078956248107432  0.1736027739971178  0.3028962924520826  1.0000
  C   C22       1.0  0.49210259963057723  0.8263974230564911  0.6971042424221283  1.0000
  C   C23       1.0  0.3013447095557568  0.2102292207773289  0.20256581760107653  1.0000
  C   C24       1.0  0.6986535159385099  0.7897709787450609  0.7974338389913955  1.0000
  Br  Br1       1.0  0.11683992860612581  0.7885295561924719  0.9350459574878941  1.0000
  Br  Br2       1.0  0.8831584632359581  0.2114681113890953  0.06495492806730142  1.0000
  N   N1        1.0  0.29872205006052616  0.3287612333074037  0.849050130141194  1.0000
  N   N2        1.0  0.7012789269125222  0.6712364514004036  0.1509499053025181  1.0000
  N   N3        1.0  0.48259842082004684  0.4132662001824271  0.836455152692402  1.0000
  N   N4        1.0  0.517401825906646  0.5867327443626421  0.16354513950911814  1.0000
  N   N5        1.0  0.44573906901148774  0.18792371077607578  0.9033670347637824  1.0000
  N   N6        1.0  0.5542617363490123  0.8120764935286359  0.09663616312589342  1.0000
  N   N7        1.0  0.31163552871151273  0.2851621053161395  0.3229383225667918  1.0000
  N   N8        1.0  0.6883658426534254  0.7148393760296942  0.6770616330388678  1.0000
  N   N9        1.0  0.44313609522186703  0.26320171189262703  0.38913461925538684  1.0000
  N   N10       1.0  0.5568658358298253  0.7368010316816295  0.6108673637566896  1.0000
  N   N11       1.0  0.4247777520393542  0.13800701410345076  0.18668638425428  1.0000
  N   N12       1.0  0.575219348816667  0.8619906486181748  0.8133136089340526  1.0000
