data_image0
_chemical_formula_structural       Cd2B2H24C26N16O4
_chemical_formula_sum              "Cd2 B2 H24 C26 N16 O4"
_cell_length_a       8.68446811219205
_cell_length_b       9.70940701775976
_cell_length_c       10.843918003319404
_cell_angle_alpha    95.63077775095445
_cell_angle_beta     96.69104813767113
_cell_angle_gamma    105.62436266472923

_space_group_name_H-M_alt    "P 1"
_space_group_IT_number       1

loop_
  _space_group_symop_operation_xyz
  'x, y, z'

loop_
  _atom_site_type_symbol
  _atom_site_label
  _atom_site_symmetry_multiplicity
  _atom_site_fract_x
  _atom_site_fract_y
  _atom_site_fract_z
  _atom_site_occupancy
  Cd  Cd1       1.0  0.7275065326700272  0.21871508311598112  0.6927857651999008  1.0000
  Cd  Cd2       1.0  0.27250804121673156  0.781281187995411  0.30722100416410575  1.0000
  B   B1        1.0  0.3574874014025935  0.6197060311609516  0.804791481104701  1.0000
  B   B2        1.0  0.6425118837352669  0.38028664393920036  0.19521331933646022  1.0000
  H   H1        1.0  0.034674260529662576  0.20448178929615315  0.9497250126345309  1.0000
  H   H2        1.0  0.9653391023145157  0.7954953008007662  0.050263869183602566  1.0000
  H   H3        1.0  0.31672426434930395  0.43111296636083546  0.001010348570545697  1.0000
  H   H4        1.0  0.6832853005957702  0.5688824054035988  0.9989976511403856  1.0000
  H   H5        1.0  0.056795988137913804  0.45200563165642627  0.6516617795170776  1.0000
  H   H6        1.0  0.9432141085996406  0.5479851624211632  0.3483503921611729  1.0000
  H   H7        1.0  0.1590743378807245  0.8175883386750866  0.7987293994115279  1.0000
  H   H8        1.0  0.8409079668858226  0.1824143538993964  0.20126458371719025  1.0000
  H   H9        1.0  0.36198204032378806  0.5933799795274907  0.5380058493869486  1.0000
  H   H10       1.0  0.6380040487839622  0.4066023678971433  0.46199739155331104  1.0000
  H   H11       1.0  0.44883460481355536  0.3550259206512152  0.7908598070284827  1.0000
  H   H12       1.0  0.5511853631082246  0.6449813034953493  0.20914132543992997  1.0000
  H   H13       1.0  0.6527338784498223  0.8332927298016339  0.9393151283870298  1.0000
  H   H14       1.0  0.34724962112940716  0.16671316487767027  0.06068024770495843  1.0000
  H   H15       1.0  0.05104363121377977  0.858476144777725  0.5573416460941446  1.0000
  H   H16       1.0  0.9489638305091789  0.14152799223956683  0.4426384853685975  1.0000
  H   H17       1.0  0.6476641173805362  0.779689846513328  0.7091114597999566  1.0000
  H   H18       1.0  0.352336132765636  0.2203083643756898  0.2908912723036751  1.0000
  H   H19       1.0  0.16961546109114067  0.6621488611354067  0.9973297338526027  1.0000
  H   H20       1.0  0.830374148215725  0.3378366292948412  0.0026732886518487774  1.0000
  H   H21       1.0  0.857673864029195  0.6171654440629836  0.669078212801715  1.0000
  H   H22       1.0  0.14232532539529785  0.3828509284488532  0.3309106932454498  1.0000
  H   H23       1.0  0.6092586097399746  0.9554143402886197  0.17150672897293626  1.0000
  H   H24       1.0  0.3907270066192794  0.04458485262014727  0.8284881396629021  1.0000
  C   C1        1.0  0.08115879253401197  0.2898205430523361  0.8948075354883971  1.0000
  C   C2        1.0  0.9188533276018661  0.7101724359288537  0.10520231412424864  1.0000
  C   C3        1.0  0.22177686621145645  0.401230934188419  0.9209806851050291  1.0000
  C   C4        1.0  0.7782224992818099  0.5987746077419444  0.07903474374355567  1.0000
  C   C5        1.0  0.08865016094263468  0.4147399782448388  0.7394466610204804  1.0000
  C   C6        1.0  0.9113422873218866  0.5852684333921301  0.26055913818745324  1.0000
  C   C7        1.0  0.1842845694390434  0.7774490765285477  0.7087625960534754  1.0000
  C   C8        1.0  0.815703770539727  0.22254793285319607  0.2912277043374375  1.0000
  C   C9        1.0  0.28945076667577735  0.6582902666436607  0.5746810549138461  1.0000
  C   C10       1.0  0.7105431352351276  0.34169408804281426  0.425316752341189  1.0000
  C   C11       1.0  0.5345228577780005  0.44844695304294657  0.766625847311815  1.0000
  C   C12       1.0  0.46548615937157917  0.551556168275276  0.23338201285078247  1.0000
  C   C13       1.0  0.5469423961574262  0.8164767857785263  0.986042476897474  1.0000
  C   C14       1.0  0.4530358996585022  0.18354278114140493  0.013947384781630504  1.0000
  C   C15       1.0  0.5600831019126031  0.951132431495317  0.5051845948382906  1.0000
  C   C16       1.0  0.4399511307057722  0.04886058507634058  0.494824775227599  1.0000
  C   C17       1.0  0.13027748612141454  0.7953958526985826  0.5887013227792225  1.0000
  C   C18       1.0  0.8697287378613154  0.204599217937961  0.411287847139157  1.0000
  C   C19       1.0  0.6399495569362513  0.6694190398016246  0.7252500425840511  1.0000
  C   C20       1.0  0.36004265346566905  0.33058850375871157  0.2747491797821838  1.0000
  C   C21       1.0  0.2939270926206348  0.7290834810531808  0.012881536277348008  1.0000
  C   C22       1.0  0.7060595552041133  0.27090332482746493  0.987119477630323  1.0000
  C   C23       1.0  0.7424186929014525  0.5864309944712075  0.7033539959166505  1.0000
  C   C24       1.0  0.2575938392522872  0.41358107434106717  0.29664504814741127  1.0000
  C   C25       1.0  0.5237267908020727  0.8775389868801682  0.09974587599288756  1.0000
  C   C26       1.0  0.47624631439028786  0.12248207416434545  0.9002399209761482  1.0000
  N   N1        1.0  0.9984588493839013  0.2995739932131655  0.7806191470349478  1.0000
  N   N2        1.0  0.0015417160035581365  0.7004193709452905  0.21939600893883696  1.0000
  N   N3        1.0  0.22580976282139872  0.48094003180737815  0.8214081456361273  1.0000
  N   N4        1.0  0.774194825301464  0.5190576722645304  0.17860328308453438  1.0000
  N   N5        1.0  0.28678228454377563  0.6905766073993217  0.699320785844016  1.0000
  N   N6        1.0  0.7132103212279475  0.30941980548407594  0.30068096179819304  1.0000
  N   N7        1.0  0.39989104393956854  0.7208710697010472  0.9311392497284249  1.0000
  N   N8        1.0  0.6001027726478582  0.2791253734202356  0.06885985845806179  1.0000
  N   N9        1.0  0.5072579761652773  0.5803107147542474  0.7665666993308736  1.0000
  N   N10       1.0  0.4927369549928783  0.4196856390299429  0.23343343691225732  1.0000
  N   N11       1.0  0.19673612988172795  0.7195549592412147  0.5053031590663937  1.0000
  N   N12       1.0  0.8032612870333365  0.2804383429393125  0.4946858320901131  1.0000
  N   N13       1.0  0.6752729495280931  0.44841668563442005  0.7297765836997885  1.0000
  N   N14       1.0  0.32473867379805904  0.5515931089371617  0.2702258104865224  1.0000
  N   N15       1.0  0.36410579342496857  0.8222890157664792  0.11528969111094513  1.0000
  N   N16       1.0  0.6358788769057071  0.17772005112389874  0.8847079948223997  1.0000
  O   O1        1.0  0.671460691374676  0.9831011452602209  0.5994465241608395  1.0000
  O   O2        1.0  0.32856495148571696  0.016933339662387  0.4005553803355754  1.0000
  O   O3        1.0  0.5377266343689724  0.8463898930089608  0.41985337105605686  1.0000
  O   O4        1.0  0.4622918389702519  0.15359198690974546  0.5801494740663105  1.0000
