data_image0
_chemical_formula_structural       Zn16H80C120O64
_chemical_formula_sum              "Zn16 H80 C120 O64"
_cell_length_a       6.638528706050885
_cell_length_b       19.615549677439578
_cell_length_c       28.334250993838687
_cell_angle_alpha    90.00075712133564
_cell_angle_beta     89.99956279079711
_cell_angle_gamma    90.00013760547846

_space_group_name_H-M_alt    "P 1"
_space_group_IT_number       1

loop_
  _space_group_symop_operation_xyz
  'x, y, z'

loop_
  _atom_site_type_symbol
  _atom_site_label
  _atom_site_symmetry_multiplicity
  _atom_site_fract_x
  _atom_site_fract_y
  _atom_site_fract_z
  _atom_site_occupancy
  Zn  Zn1       1.0  0.4882412811531723  0.7789025142621425  0.8367850938552265  1.0000
  Zn  Zn2       1.0  0.17073707589358383  0.8902637926553251  0.8656216497939511  1.0000
  Zn  Zn3       1.0  0.3292647583577591  0.39027190771408016  0.1343770285477959  1.0000
  Zn  Zn4       1.0  0.32924745810468886  0.8902662229130127  0.36562205940487746  1.0000
  Zn  Zn5       1.0  0.011761564393225402  0.7789056873456985  0.3367860535623278  1.0000
  Zn  Zn6       1.0  0.6707520669061324  0.6097268811092462  0.8656227579801836  1.0000
  Zn  Zn7       1.0  0.1707347935541961  0.3902750852202033  0.6343741484712453  1.0000
  Zn  Zn8       1.0  0.6707723798158155  0.1097289973411719  0.634380550542147  1.0000
  Zn  Zn9       1.0  0.5117667438341442  0.7210966662767222  0.3367881796508172  1.0000
  Zn  Zn10      1.0  0.5117665059897336  0.22109525494113313  0.1632129280271926  1.0000
  Zn  Zn11      1.0  0.48824104325780127  0.2789072205625871  0.663214077416505  1.0000
  Zn  Zn12      1.0  0.8292752302645924  0.109732447181365  0.1343795484452812  1.0000
  Zn  Zn13      1.0  0.9882404351686135  0.7210899245829978  0.8367861611433867  1.0000
  Zn  Zn14      1.0  0.9882477290050461  0.22109514072006672  0.6632186739979317  1.0000
  Zn  Zn15      1.0  0.0117718710378583  0.27890478582445155  0.163211860721141  1.0000
  Zn  Zn16      1.0  0.829256423753364  0.6097318603287576  0.36561963831051963  1.0000
  H   H1        1.0  0.20625491795433956  0.2795462963384452  0.6004161232354122  1.0000
  H   H2        1.0  0.4772341949297214  0.0053912852588880004  0.1544730787135933  1.0000
  H   H3        1.0  0.837614117045469  0.3619945177006656  0.0228594825081458  1.0000
  H   H4        1.0  0.022792276111040607  0.0053958632857771  0.65448104288474  1.0000
  H   H5        1.0  0.8038369427172185  0.29286481691650573  0.7338036991877104  1.0000
  H   H6        1.0  0.0227967398300493  0.5054020296575955  0.8455224347156401  1.0000
  H   H7        1.0  0.19616522379715212  0.20713696791327854  0.23379979265865095  1.0000
  H   H8        1.0  0.9301165349364169  0.5357230609392263  0.23676526837896011  1.0000
  H   H9        1.0  0.6624072642088452  0.3619971781314533  0.5228559110169471  1.0000
  H   H10       1.0  0.43015174085061153  0.9642823347524184  0.2367637778403449  1.0000
  H   H11       1.0  0.19376594266783798  0.0599797937597657  0.4534763602482029  1.0000
  H   H12       1.0  0.3260057681701909  0.8931855289086954  0.5461188178636717  1.0000
  H   H13       1.0  0.9301445723927132  0.0357250898289081  0.2632320083771233  1.0000
  H   H14       1.0  0.7062597289813867  0.720453151995585  0.8995853097597291  1.0000
  H   H15       1.0  0.30622769240699205  0.5599988376754085  0.5465217697820961  1.0000
  H   H16       1.0  0.871010487845929  0.8389435610959454  0.8093747479502083  1.0000
  H   H17       1.0  0.8747340463689072  0.8675598970337643  0.19629214378565507  1.0000
  H   H18       1.0  0.30383992418629185  0.7071326773181498  0.7662010940266625  1.0000
  H   H19       1.0  0.6961569135198504  0.7928615861251915  0.2661992223629071  1.0000
  H   H20       1.0  0.12525911313265684  0.6324411876542939  0.6962904657584091  1.0000
  H   H21       1.0  0.1937668879933057  0.5599843264807588  0.04652700214500528  1.0000
  H   H22       1.0  0.8747275850703036  0.36755454229743384  0.30370296804626656  1.0000
  H   H23       1.0  0.6961603310894303  0.2928630527237672  0.23380116300990753  1.0000
  H   H24       1.0  0.8259891064334043  0.6068109017800012  0.5461213111172327  1.0000
  H   H25       1.0  0.37470380115664176  0.6324400889872238  0.1962946788039019  1.0000
  H   H26       1.0  0.6937770821887741  0.4400213626564026  0.45347060532951383  1.0000
  H   H27       1.0  0.3710180899533313  0.6610513106892314  0.8093743681049047  1.0000
  H   H28       1.0  0.7937468436352121  0.7204504533303577  0.3995889572424787  1.0000
  H   H29       1.0  0.08650158246801713  0.08682227308974429  0.8852652969592185  1.0000
  H   H30       1.0  0.5227750986013647  0.99461209173424  0.845524237333656  1.0000
  H   H31       1.0  0.706272144035836  0.22045054099762504  0.6004175375734421  1.0000
  H   H32       1.0  0.6739779170911859  0.10680459336375489  0.45388696845908777  1.0000
  H   H33       1.0  0.8038380442449622  0.792863350306412  0.7662003468178114  1.0000
  H   H34       1.0  0.19615879350993032  0.7071421287220829  0.2661992637635322  1.0000
  H   H35       1.0  0.17400005705877675  0.8931919021546191  0.0461127908279622  1.0000
  H   H36       1.0  0.6623741687633427  0.861997192436583  0.9771433650772039  1.0000
  H   H37       1.0  0.4301451320431084  0.46427263823210296  0.2632301648851936  1.0000
  H   H38       1.0  0.5865096939370603  0.9131719728825016  0.6147391669322102  1.0000
  H   H39       1.0  0.7937487143266182  0.22045141085106223  0.100413420627234  1.0000
  H   H40       1.0  0.1252812724532646  0.13244042123837116  0.8037129366968045  1.0000
  H   H41       1.0  0.5227435205375244  0.49461918011068917  0.6544796692191068  1.0000
  H   H42       1.0  0.1623906573578751  0.6380068201189389  0.9771406569716632  1.0000
  H   H43       1.0  0.3376035358626766  0.6380148653684259  0.4771322288952149  1.0000
  H   H44       1.0  0.06987618871193038  0.46428949242656614  0.763230636005602  1.0000
  H   H45       1.0  0.9134834479245342  0.41317781701991413  0.3852553251942581  1.0000
  H   H46       1.0  0.1290063374036521  0.1610526787325952  0.19062539149587113  1.0000
  H   H47       1.0  0.9772215363879226  0.9946059843677372  0.3455222729572895  1.0000
  H   H48       1.0  0.3747199352030464  0.1324439106844508  0.3037086794545872  1.0000
  H   H49       1.0  0.371035007974413  0.16105399168578316  0.6906278112822335  1.0000
  H   H50       1.0  0.8376081361773232  0.8619889241340175  0.4771377603458973  1.0000
  H   H51       1.0  0.6252923709448481  0.8675564075627733  0.6962939305222591  1.0000
  H   H52       1.0  0.6289942162022728  0.33894594875008727  0.19062718306872733  1.0000
  H   H53       1.0  0.08647161682196013  0.5868286186968065  0.6147366969677605  1.0000
  H   H54       1.0  0.8062358189489772  0.9400108382864902  0.5465258967637681  1.0000
  H   H55       1.0  0.977189958350458  0.49460848452390144  0.1544752343135514  1.0000
  H   H56       1.0  0.5698475914633647  0.5357292094021133  0.7367720921858661  1.0000
  H   H57       1.0  0.2062590727909068  0.7795458485660661  0.8995860129718379  1.0000
  H   H58       1.0  0.16241170173992714  0.13800170791675012  0.5228641437206747  1.0000
  H   H59       1.0  0.0698812909758502  0.9642823656325491  0.7367720133395821  1.0000
  H   H60       1.0  0.1289894193908552  0.6610561153383686  0.30937265420599397  1.0000
  H   H61       1.0  0.4772175695176203  0.5053913340832495  0.3455204703404888  1.0000
  H   H62       1.0  0.3038373163539917  0.20713414389724244  0.7338012700301559  1.0000
  H   H63       1.0  0.32602589824700356  0.3931922195526809  0.9538809732044484  1.0000
  H   H64       1.0  0.2937525772671279  0.279550734798498  0.10041200628724309  1.0000
  H   H65       1.0  0.2937341366255596  0.7795492674776839  0.399588248774009  1.0000
  H   H66       1.0  0.5864959753409948  0.41316562717886274  0.8852596495773566  1.0000
  H   H67       1.0  0.3062418106454033  0.059982579555971  0.9534697160996757  1.0000
  H   H68       1.0  0.8062499373256956  0.4400114035076968  0.9534689021417933  1.0000
  H   H69       1.0  0.17396746450328496  0.39319859283629915  0.45388129894983814  1.0000
  H   H70       1.0  0.41345457010658043  0.5868173578371056  0.1147411957250526  1.0000
  H   H71       1.0  0.8260197809919632  0.1068068866295704  0.9538827605404592  1.0000
  H   H72       1.0  0.8710033041147227  0.3389472616981095  0.6906299558018034  1.0000
  H   H73       1.0  0.6739683316211255  0.6067963732647924  0.046118460366763286  1.0000
  H   H74       1.0  0.91351223001427  0.9131709079632914  0.11473731298371347  1.0000
  H   H75       1.0  0.33762458018905045  0.1380036355908771  0.0228578331947347  1.0000
  H   H76       1.0  0.6937720018967043  0.9400197778735803  0.04653112923645611  1.0000
  H   H77       1.0  0.625263314290848  0.36754952340758246  0.8037036960062239  1.0000
  H   H78       1.0  0.5698650844535394  0.035728689262064996  0.7632360087435544  1.0000
  H   H79       1.0  0.4134905613733154  0.0868252865414476  0.38526132546262193  1.0000
  H   H80       1.0  0.6289878426980664  0.8389468363555538  0.3093737398985681  1.0000
  C   C1        1.0  0.5060673024844037  0.6019881957313373  0.18696508093452738  1.0000
  C   C2        1.0  0.6496602335430808  0.5865962096523133  0.2216811735705093  1.0000
  C   C3        1.0  0.7210875202431526  0.39046272819791744  0.6131040084979346  1.0000
  C   C4        1.0  0.7064818523229803  0.05272510644574171  0.4584765444949497  1.0000
  C   C5        1.0  0.818485377920922  0.047078537444725996  0.290293045252433  1.0000
  C   C6        1.0  0.1308059733826283  0.8872023539089043  0.2707398785961104  1.0000
  C   C7        1.0  0.7179286173915997  0.9587938387138311  0.010860937632450898  1.0000
  C   C8        1.0  0.20647627470046365  0.4472766663911543  0.45847278099376604  1.0000
  C   C9        1.0  0.3027467586685263  0.46247063750507783  0.8708785865085886  1.0000
  C   C10       1.0  0.19976480805978986  0.5843687313316295  0.9722586552180346  1.0000
  C   C11       1.0  0.1815254218917985  0.9529268787947844  0.7097092118192734  1.0000
  C   C12       1.0  0.3692078916109621  0.3872045352667826  0.7292559482878289  1.0000
  C   C13       1.0  0.7643486028052424  0.0277324533583538  0.0041700353904375  1.0000
  C   C14       1.0  0.7676703164896921  0.4403659581894744  0.07346649751592339  1.0000
  C   C15       1.0  0.7323092096953872  0.4403727580225053  0.5734680988412677  1.0000
  C   C16       1.0  0.7064709146791445  0.5527300534312687  0.041526216197596  1.0000
  C   C17       1.0  0.7147578915100042  0.0739738837677208  0.5458782742598771  1.0000
  C   C18       1.0  0.7786631668152282  0.009866094688575801  0.9191110141199134  1.0000
  C   C19       1.0  0.18151941101989885  0.4529329931810794  0.7902913756464827  1.0000
  C   C20       1.0  0.2820821824737719  0.0412059696892797  0.9891370842566829  1.0000
  C   C21       1.0  0.8027326536840748  0.037529921479965395  0.8708793877066866  1.0000
  C   C22       1.0  0.2935078583868886  0.947262976617331  0.5415278300942886  1.0000
  C   C23       1.0  0.006115629483559802  0.8980102711036584  0.1869626317435547  1.0000
  C   C24       1.0  0.7820669673144492  0.9587858977297827  0.5108628056236597  1.0000
  C   C25       1.0  0.2788931525306566  0.6095391193568745  0.3868904841291538  1.0000
  C   C26       1.0  0.1496981172909457  0.9134040652080061  0.2216820414510892  1.0000
  C   C27       1.0  0.22110990867791716  0.6095387722522503  0.8868952812138815  1.0000
  C   C28       1.0  0.3027464371437816  0.9624675717596533  0.6291215251844163  1.0000
  C   C29       1.0  0.15702533874534202  0.4763316944467205  0.836171311963625  1.0000
  C   C30       1.0  0.006090778643461201  0.39801019260149667  0.3130339104931608  1.0000
  C   C31       1.0  0.7210936074653773  0.8904610184170494  0.8868961319264203  1.0000
  C   C32       1.0  0.1997766503781193  0.08436371239326233  0.5277462963223555  1.0000
  C   C33       1.0  0.7789008911536826  0.3904579773665517  0.11310415238025229  1.0000
  C   C34       1.0  0.6997620213187759  0.4156327505163233  0.5277403185295455  1.0000
  C   C35       1.0  0.8503202142723583  0.08659676285159183  0.7783216273121099  1.0000
  C   C36       1.0  0.23233144522696142  0.5596262032017377  0.9265301126271055  1.0000
  C   C37       1.0  0.3184903819446916  0.4529221592464694  0.29029039213743596  1.0000
  C   C38       1.0  0.5290128321346188  0.5772813493146813  0.1412294882465304  1.0000
  C   C39       1.0  0.7788889021371832  0.8904588165489927  0.3868934523980839  1.0000
  C   C40       1.0  0.7147541897713978  0.5739754975067656  0.9541256900344307  1.0000
  C   C41       1.0  0.8692259154209054  0.11280255255028489  0.729263437244235  1.0000
  C   C42       1.0  0.26433808751679777  0.9722636111495647  0.4958320378546617  1.0000
  C   C43       1.0  0.2179309116147081  0.5412060367060009  0.0108619328619213  1.0000
  C   C44       1.0  0.20649998323833782  0.9472647900005665  0.0415220996597725  1.0000
  C   C45       1.0  0.7935093102624434  0.05273297920335551  0.9584759222213461  1.0000
  C   C46       1.0  0.7356555592806944  0.5277273922337216  0.995833992065549  1.0000
  C   C47       1.0  0.23564470378753552  0.4722807483169548  0.5041673900432642  1.0000
  C   C48       1.0  0.029070359924396903  0.9227121853633379  0.14122408848397328  1.0000
  C   C49       1.0  0.3002545955542786  0.08436815648406079  0.027739344691404696  1.0000
  C   C50       1.0  0.2147416295565137  0.42603619340989934  0.5458746695166141  1.0000
  C   C51       1.0  0.506101199585359  0.10198862706452876  0.3130374184248054  1.0000
  C   C52       1.0  0.28206323630093516  0.5412195072330591  0.5108563894315381  1.0000
  C   C53       1.0  0.5290482063578352  0.07728418379704038  0.3587741572593686  1.0000
  C   C54       1.0  0.029039454381518198  0.4227180786314549  0.3587705222169362  1.0000
  C   C55       1.0  0.7786373502368135  0.5098712839170148  0.5808922535265282  1.0000
  C   C56       1.0  0.49390960017849755  0.8980091421939917  0.6869662503309328  1.0000
  C   C57       1.0  0.2786774539429331  0.49013230589445556  0.9191055247495115  1.0000
  C   C58       1.0  0.2789171923788629  0.10953777039691201  0.113102948747283  1.0000
  C   C59       1.0  0.6307989465388388  0.11280175096322854  0.22926066141030074  1.0000
  C   C60       1.0  0.35031441381107703  0.4134056378931135  0.7783126132023028  1.0000
  C   C61       1.0  0.8429628657441768  0.5236711727544474  0.1638277687482912  1.0000
  C   C62       1.0  0.3503335797422126  0.9133992425403933  0.7216862617171385  1.0000
  C   C63       1.0  0.221344620268539  0.990128105944244  0.0808898311841659  1.0000
  C   C64       1.0  0.19727513345211628  0.9624658085247761  0.1291186341664172  1.0000
  C   C65       1.0  0.28523332561185544  0.9260162384675681  0.4541232768994092  1.0000
  C   C66       1.0  0.23233873950947984  0.059622057852564594  0.5734734975541613  1.0000
  C   C67       1.0  0.22131620810765182  0.4901397400294414  0.4191032979552247  1.0000
  C   C68       1.0  0.15702535825423777  0.9763262329629185  0.6638295318186636  1.0000
  C   C69       1.0  0.7323139661000156  0.9403702760693661  0.926533890046876  1.0000
  C   C70       1.0  0.3429845741826441  0.476325470051215  0.336169227247801  1.0000
  C   C71       1.0  0.7934848153917998  0.5527379261863531  0.5415259468654838  1.0000
  C   C72       1.0  0.7213230100022657  0.009866391617677599  0.4191066696962622  1.0000
  C   C73       1.0  0.14968045759268733  0.41340128422194755  0.2783140397689507  1.0000
  C   C74       1.0  0.4709422324023578  0.4227118317060103  0.8587724158877917  1.0000
  C   C75       1.0  0.6496787264208875  0.086602095299348  0.2783156424048769  1.0000
  C   C76       1.0  0.7643254244637278  0.5277374128619101  0.4958313378244696  1.0000
  C   C77       1.0  0.699754697948187  0.9156301225194953  0.9722586771920374  1.0000
  C   C78       1.0  0.267663931299893  0.559634187528694  0.4265267467453952  1.0000
  C   C79       1.0  0.4709535552774327  0.9227120560451635  0.6412280997782318  1.0000
  C   C80       1.0  0.3185084437918563  0.9529267506138696  0.20970364026201338  1.0000
  C   C81       1.0  0.6972309012449786  0.537525092523623  0.1291233176178181  1.0000
  C   C82       1.0  0.6814933034796982  0.5470796883467202  0.7097079827142493  1.0000
  C   C83       1.0  0.6972508054060145  0.03752866808731879  0.3708814377165907  1.0000
  C   C84       1.0  0.2935157834077771  0.44726822558941143  0.9584746291433888  1.0000
  C   C85       1.0  0.9939087275062164  0.1019890275596751  0.8130410370074301  1.0000
  C   C86       1.0  0.8027112431555637  0.5375360321322091  0.6291237381617023  1.0000
  C   C87       1.0  0.19724231512216056  0.46247091344753954  0.3708749896691188  1.0000
  C   C88       1.0  0.26769231463347143  0.059624434359058405  0.07346660233109499  1.0000
  C   C89       1.0  0.8692238517303397  0.6127965845069027  0.7707434377238016  1.0000
  C   C90       1.0  0.8503152787092317  0.5865959751629504  0.7216825704025993  1.0000
  C   C91       1.0  0.6570051170799331  0.023674192067638  0.8361744570061305  1.0000
  C   C92       1.0  0.21793178152993425  0.04120371474623849  0.4891426277539779  1.0000
  C   C93       1.0  0.3430071891466612  0.9763266359353934  0.16382356488634997  1.0000
  C   C94       1.0  0.7179249682964796  0.4587981441237118  0.4891391620504847  1.0000
  C   C95       1.0  0.23566520979276356  0.9722688844382221  0.9958272806435815  1.0000
  C   C96       1.0  0.22111587218096673  0.10953283510795593  0.613109863405171  1.0000
  C   C97       1.0  0.7356561422481465  0.027722432723692216  0.5041730425808382  1.0000
  C   C98       1.0  0.7820768754318336  0.45878765414741457  0.9891410300183024  1.0000
  C   C99       1.0  0.8184702998510931  0.5470734426114277  0.2097069992209484  1.0000
  C   C100      1.0  0.2852505846311645  0.4260238011109435  0.045874096506317096  1.0000
  C   C101      1.0  0.7213092442659459  0.5098634240538971  0.08088755612541829  1.0000
  C   C102      1.0  0.4938892684611035  0.39800957346646726  0.8130347056409875  1.0000
  C   C103      1.0  0.6307788065577997  0.6128024103172933  0.2707417207250487  1.0000
  C   C104      1.0  0.13078092265040908  0.3871960867155905  0.2292563487866559  1.0000
  C   C105      1.0  0.970924648414865  0.5772893767457746  0.6412274997476005  1.0000
  C   C106      1.0  0.7852683530359031  0.07398086383857111  0.04587593668807699  1.0000
  C   C107      1.0  0.8429748970103079  0.023675104891800896  0.3361744898922652  1.0000
  C   C108      1.0  0.2147605231890424  0.9260225131395003  0.9541189088339834  1.0000
  C   C109      1.0  0.9938959195263026  0.6019916549761531  0.6869626997071805  1.0000
  C   C110      1.0  0.36921486599744924  0.8871970378655265  0.7707398309797782  1.0000
  C   C111      1.0  0.7852420558646644  0.5739880854109102  0.4541282935242776  1.0000
  C   C112      1.0  0.26434921504830566  0.4722693574229098  0.0041696766907577  1.0000
  C   C113      1.0  0.8002414726432933  0.4156239399117467  0.027743248869597892  1.0000
  C   C114      1.0  0.6569780222517211  0.523678926524198  0.6638284417743066  1.0000
  C   C115      1.0  0.7676645284185997  0.9403706134232126  0.42653193583353743  1.0000
  C   C116      1.0  0.3002276896595433  0.5843792930215628  0.4722527624173267  1.0000
  C   C117      1.0  0.27867573891143144  0.9901262796224157  0.5808952343978929  1.0000
  C   C118      1.0  0.9709539971043885  0.0772845642748621  0.8587767568173987  1.0000
  C   C119      1.0  0.8002281239146571  0.9156274294775387  0.4722584311975524  1.0000
  C   C120      1.0  0.6815053687849116  0.047077136197721386  0.7902954404323878  1.0000
  O   O1        1.0  0.7342801859470853  0.5436257244341717  0.9133060329489666  1.0000
  O   O2        1.0  0.5059477793183476  0.16138297691959738  0.2213543064963446  1.0000
  O   O3        1.0  0.20040144396358536  0.7858114653549464  0.8652551585893489  1.0000
  O   O4        1.0  0.3644377911306194  0.1128030436876486  0.6436028842263752  1.0000
  O   O5        1.0  0.5862044891154383  0.8000789844371213  0.2884826288886799  1.0000
  O   O6        1.0  0.17732055520815496  0.3637585027911782  0.5415294992174893  1.0000
  O   O7        1.0  0.6355899991768795  0.3871914101847196  0.1436026855841703  1.0000
  O   O8        1.0  0.4138021449771899  0.6999151948865219  0.7884814206329409  1.0000
  O   O9        1.0  0.8226669778839695  0.13625439304457393  0.041531270786890694  1.0000
  O   O10       1.0  0.9137924273183984  0.3000834147895333  0.7115217703525404  1.0000
  O   O11       1.0  0.7004050716056796  0.7141827958496165  0.8652551039432197  1.0000
  O   O12       1.0  0.1356048155587786  0.11280377568460413  0.1436004530179105  1.0000
  O   O13       1.0  0.7004148276688015  0.2141849190991678  0.6347480491748383  1.0000
  O   O14       1.0  0.322665369523179  0.36374767253008145  0.041530978962399  1.0000
  O   O15       1.0  0.24381401852978263  0.9149148973629977  0.3017299624647976  1.0000
  O   O16       1.0  0.7438048370911189  0.0850908354174464  0.1982700288231243  1.0000
  O   O17       1.0  0.9137927807039077  0.8000782954644662  0.7884828569670076  1.0000
  O   O18       1.0  0.7437926947524788  0.5850874986129639  0.30173084541892337  1.0000
  O   O19       1.0  0.2657441711419466  0.4563659271638798  0.08669022424241038  1.0000
  O   O20       1.0  0.5862011230515095  0.3000810449361139  0.21151871882487677  1.0000
  O   O21       1.0  0.1355833060379865  0.6128076008144776  0.3563929050934149  1.0000
  O   O22       1.0  0.17736189834779034  0.8637474545278606  0.9584628688686934  1.0000
  O   O23       1.0  0.0675608670757413  0.14800175141525074  0.614453422850211  1.0000
  O   O24       1.0  0.8644018858416445  0.3871932271228005  0.6435994699466292  1.0000
  O   O25       1.0  0.0862165127816681  0.199918454146939  0.2115158707689346  1.0000
  O   O26       1.0  0.6773318730588116  0.6362475476974083  0.9584698663554718  1.0000
  O   O27       1.0  0.7562254020801193  0.0850879698874607  0.6982719416407192  1.0000
  O   O28       1.0  0.9324424007948766  0.8519878610897111  0.3855548339614785  1.0000
  O   O29       1.0  0.4138017916043069  0.19992235340674108  0.7115199810980499  1.0000
  O   O30       1.0  0.2996042219010278  0.2858149733509379  0.1347425650081462  1.0000
  O   O31       1.0  0.6773613287100346  0.1362478901959463  0.5415361436642598  1.0000
  O   O32       1.0  0.6355760213939233  0.8871921765436849  0.35639760814739674  1.0000
  O   O33       1.0  0.799604836800313  0.21418528425851946  0.1347439220789539  1.0000
  O   O34       1.0  0.9324453067386784  0.35198602786454813  0.11444144727952478  1.0000
  O   O35       1.0  0.9940791741586992  0.16138694617355753  0.7213600423931865  1.0000
  O   O36       1.0  0.0675624803797419  0.6480097021503113  0.8855576333828098  1.0000
  O   O37       1.0  0.7562162724074784  0.5850785155055719  0.801734522854673  1.0000
  O   O38       1.0  0.2562015352048803  0.4149174077724993  0.6982664706483702  1.0000
  O   O39       1.0  0.23425357913813372  0.9563694842503452  0.9133048231148138  1.0000
  O   O40       1.0  0.5059303866305598  0.6613868461027579  0.2786466184346068  1.0000
  O   O41       1.0  0.7342764917596584  0.0436238708968304  0.5866958554667576  1.0000
  O   O42       1.0  0.822651079340055  0.6362591486224289  0.4584727579440653  1.0000
  O   O43       1.0  0.005949701892639302  0.838619489706808  0.2786457439649794  1.0000
  O   O44       1.0  0.43244087894925093  0.648009673305623  0.3855522173296747  1.0000
  O   O45       1.0  0.5675489387117878  0.8519878898907578  0.8855563678004615  1.0000
  O   O46       1.0  0.49406904594810913  0.8386147923010938  0.7786451270972279  1.0000
  O   O47       1.0  0.005935461062577501  0.3386130715083339  0.2213530791127312  1.0000
  O   O48       1.0  0.5675397938178505  0.35199013505064874  0.6144422752880915  1.0000
  O   O49       1.0  0.7995980933428298  0.71418571007586  0.3652580354512906  1.0000
  O   O50       1.0  0.3226389265007228  0.8637407026747255  0.45846858384791733  1.0000
  O   O51       1.0  0.36442381334341434  0.6128043198496158  0.8563981597216782  1.0000
  O   O52       1.0  0.7657632461730514  0.0436328731501803  0.0866928458510046  1.0000
  O   O53       1.0  0.9940828705297805  0.6613785801241789  0.7786470603110729  1.0000
  O   O54       1.0  0.26572677615578755  0.9563667611837944  0.4133099308413719  1.0000
  O   O55       1.0  0.8644074906298089  0.8871945033371275  0.8563993335116535  1.0000
  O   O56       1.0  0.7657353067619257  0.5436418639292667  0.4133093761286659  1.0000
  O   O57       1.0  0.23424687235480948  0.45637884625638503  0.5866897046700217  1.0000
  O   O58       1.0  0.2562044563529895  0.9149059142175561  0.8017311694210391  1.0000
  O   O59       1.0  0.2437839829250237  0.41491466550110073  0.1982638519430466  1.0000
  O   O60       1.0  0.2003991492109947  0.2858171571764458  0.6347459862692375  1.0000
  O   O61       1.0  0.08619878983769519  0.6999225112444523  0.2884808396682104  1.0000
  O   O62       1.0  0.2995929593496811  0.7858128501748992  0.36525738423224396  1.0000
  O   O63       1.0  0.4324618611502232  0.1480108989130926  0.11444165408401119  1.0000
  O   O64       1.0  0.49406986876322634  0.33862315828838513  0.7213514035102548  1.0000
