data_image0
_chemical_formula_structural       Zn2H18C30S4N4O8
_chemical_formula_sum              "Zn2 H18 C30 S4 N4 O8"
_cell_length_a       7.795604058774596
_cell_length_b       8.647549741527246
_cell_length_c       15.941098017420472
_cell_angle_alpha    91.28046591614462
_cell_angle_beta     94.15790537508894
_cell_angle_gamma    125.47867884290548

_space_group_name_H-M_alt    "P 1"
_space_group_IT_number       1

loop_
  _space_group_symop_operation_xyz
  'x, y, z'

loop_
  _atom_site_type_symbol
  _atom_site_label
  _atom_site_symmetry_multiplicity
  _atom_site_fract_x
  _atom_site_fract_y
  _atom_site_fract_z
  _atom_site_occupancy
  Zn  Zn1       1.0  0.7887844050457815  0.753438537139452  0.3021211671028539  1.0000
  Zn  Zn2       1.0  0.2111375156567306  0.24642150143889544  0.697901794848292  1.0000
  H   H1        1.0  0.6876453661961079  0.3348613444681022  0.007224972297912306  1.0000
  H   H2        1.0  0.31247425463614303  0.6657294684893313  0.9927105286630038  1.0000
  H   H3        1.0  0.33863950737181636  0.0272151307307098  0.0083387738417642  1.0000
  H   H4        1.0  0.6613880136529461  0.9734412088870456  0.9914397272266342  1.0000
  H   H5        1.0  0.3159234888143417  0.11950760049513326  0.2622733111751501  1.0000
  H   H6        1.0  0.684090156127354  0.8802478584961833  0.7376051440046255  1.0000
  H   H7        1.0  0.6785320145220624  0.4221847206215372  0.2752800700098419  1.0000
  H   H8        1.0  0.321570735200254  0.5775103848852794  0.7247376940304875  1.0000
  H   H9        1.0  0.9205374809871075  0.1099440092037796  0.3055338606228872  1.0000
  H   H10       1.0  0.07936494972898353  0.8898624729530411  0.6944916595682998  1.0000
  H   H11       1.0  0.02704779089921786  0.44108492331347565  0.2938877627423153  1.0000
  H   H12       1.0  0.9729350637368982  0.5587492021942353  0.7061885633928284  1.0000
  H   H13       1.0  0.07961887609889828  0.4118318512579221  0.0366496550793585  1.0000
  H   H14       1.0  0.9204878621080399  0.5881870861008311  0.9634280641241803  1.0000
  H   H15       1.0  0.9897226213550638  0.08771476760079372  0.0384556495668846  1.0000
  H   H16       1.0  0.010133801248109501  0.9121932600150657  0.9615661398606505  1.0000
  H   H17       1.0  0.24544871395472256  0.07570852568439788  0.5203272972075725  1.0000
  H   H18       1.0  0.7545317184094884  0.9242755807675778  0.479701312938424  1.0000
  C   C1        1.0  0.7112761785054715  0.40766674929488295  0.1414122805786704  1.0000
  C   C2        1.0  0.28885938342867234  0.592458534144626  0.858584340970161  1.0000
  C   C3        1.0  0.6116040088896852  0.29541575671528625  0.0653485531398488  1.0000
  C   C4        1.0  0.38849853033224246  0.7050057036286077  0.9345805157079284  1.0000
  C   C5        1.0  0.41443747381273977  0.12180727304156141  0.0660811470402791  1.0000
  C   C6        1.0  0.5856014546633191  0.8786384470830554  0.933757314125586  1.0000
  C   C7        1.0  0.4029257355925112  0.1715484415159381  0.20681581717017392  1.0000
  C   C8        1.0  0.5971255346524985  0.8283864903250379  0.7930804267886415  1.0000
  C   C9        1.0  0.6033631872567539  0.34519978877246166  0.2134770695819412  1.0000
  C   C10       1.0  0.39673360106606026  0.6546991854194031  0.7865035690996933  1.0000
  C   C11       1.0  0.9200515443197759  0.05772801831965779  0.1701018239322636  1.0000
  C   C12       1.0  0.0798704091850768  0.9421512949737334  0.8299201475503679  1.0000
  C   C13       1.0  0.9518553743786032  0.1690331222379626  0.24440634944675577  1.0000
  C   C14       1.0  0.048060248450625204  0.8308051834350253  0.7556272665027849  1.0000
  C   C15       1.0  0.014522169413055546  0.35338362218585934  0.24023351787199942  1.0000
  C   C16       1.0  0.9854373906250657  0.6464719556970877  0.7598285869606158  1.0000
  C   C17       1.0  0.04693033540973354  0.3394298888574667  0.0945513859890355  1.0000
  C   C18       1.0  0.953083225670689  0.6605197382514377  0.9055100450463414  1.0000
  C   C19       1.0  0.9901242137205913  0.1571400155680962  0.09613760762837842  1.0000
  C   C20       1.0  0.009791762604592955  0.842773898916761  0.9038939234922694  1.0000
  C   C21       1.0  0.11943970692494339  0.8489027130985677  0.3852095332520591  1.0000
  C   C22       1.0  0.8805024603743588  0.1510234318488202  0.6148280492070484  1.0000
  C   C23       1.0  0.31959199264473187  0.9225184845427846  0.4407374173839997  1.0000
  C   C24       1.0  0.6803620081242485  0.07743171298157851  0.5593005377741351  1.0000
  C   C25       1.0  0.3578499770257864  0.04227446388887301  0.5110276109514018  1.0000
  C   C26       1.0  0.6421304553384318  0.9577096425631025  0.48900099919459455  1.0000
  C   C27       1.0  0.46631192781542563  0.8805880380637988  0.42894845137262655  1.0000
  C   C28       1.0  0.5336537520519755  0.11937683269437122  0.5710865977017221  1.0000
  C   C29       1.0  0.4633924758387025  0.7789371863467736  0.3500784246492543  1.0000
  C   C30       1.0  0.5365824732937767  0.22103655368259478  0.6499560152293  1.0000
  S   S1        1.0  0.9887190428946797  0.6011329092272676  0.151131186139807  1.0000
  S   S2        1.0  0.011456709072483345  0.3988890402789025  0.848947347633711  1.0000
  S   S3        1.0  0.7914893526378112  0.8154439537819586  0.16281726867035223  1.0000
  S   S4        1.0  0.20847530996259428  0.18443860005430682  0.8371977455355974  1.0000
  N   N1        1.0  0.31107511264354315  0.0591463277227717  0.1347893772771442  1.0000
  N   N2        1.0  0.6889496148792846  0.9410539658824607  0.8650348610729637  1.0000
  N   N3        1.0  0.04949599143659366  0.4333146454253978  0.1648374896543956  1.0000
  N   N4        1.0  0.9505275016958803  0.56660436888545  0.8352391639897903  1.0000
  O   O1        1.0  0.08082737502786609  0.9707172750906852  0.3668434240577056  1.0000
  O   O2        1.0  0.9191603835801628  0.029212517626952202  0.633145274899711  1.0000
  O   O3        1.0  0.982376579694275  0.6728220859920881  0.3609697558090303  1.0000
  O   O4        1.0  0.017522852502608603  0.3270830360256199  0.6391128642332831  1.0000
  O   O5        1.0  0.5569285370825696  0.693361685353409  0.36278455540681886  1.0000
  O   O6        1.0  0.44304182383702795  0.30661054095909884  0.6372477185949921  1.0000
  O   O7        1.0  0.3879246269967427  0.78978438808047  0.2811038541007278  1.0000
  O   O8        1.0  0.6120550993219708  0.21019932069846456  0.7189297368480609  1.0000
