data_image0
_chemical_formula_structural       Cd2H36C52N4Cl4O8
_chemical_formula_sum              "Cd2 H36 C52 N4 Cl4 O8"
_cell_length_a       10.102780676824198
_cell_length_b       10.640661227710321
_cell_length_c       11.847
_cell_angle_alpha    88.76077607156475
_cell_angle_beta     70.07017742161511
_cell_angle_gamma    83.2247199599124

_space_group_name_H-M_alt    "P 1"
_space_group_IT_number       1

loop_
  _space_group_symop_operation_xyz
  'x, y, z'

loop_
  _atom_site_type_symbol
  _atom_site_label
  _atom_site_symmetry_multiplicity
  _atom_site_fract_x
  _atom_site_fract_y
  _atom_site_fract_z
  _atom_site_occupancy
  Cd  Cd1       1.0  0.0973627129697476  0.6075514494855767  0.08157993744234909  1.0000
  Cd  Cd2       1.0  0.902637101845734  0.3924478338526142  0.9184194550321509  1.0000
  H   H1        1.0  0.7734437438804703  0.7079872816175552  0.2102311430196694  1.0000
  H   H2        1.0  0.2265575528652235  0.2920167346608906  0.7897685708423765  1.0000
  H   H3        1.0  0.5813620325293272  0.8598569221689445  0.18443031160063586  1.0000
  H   H4        1.0  0.4186405666332647  0.1401452009334037  0.8155690604449931  1.0000
  H   H5        1.0  0.8942319504875371  0.0033575478221337  0.875911987693442  1.0000
  H   H6        1.0  0.10577250490646864  0.996646468456312  0.12408765209811888  1.0000
  H   H7        1.0  0.0755616215165773  0.8421614051159309  0.9150388350901935  1.0000
  H   H8        1.0  0.9244430834115535  0.15784071798641008  0.08495992484474614  1.0000
  H   H9        1.0  0.6584328995443727  0.0969987709134372  0.9306058138171455  1.0000
  H   H10       1.0  0.341570502966853  0.9030052453650085  0.06939244383865885  1.0000
  H   H11       1.0  0.4533020203860971  0.0210710500481426  0.1705338059277963  1.0000
  H   H12       1.0  0.5467026845420334  0.9789310730541984  0.8294641099115908  1.0000
  H   H13       1.0  0.23876965223603014  0.1699135020077023  0.2662886843409353  1.0000
  H   H14       1.0  0.7612321435779209  0.830086727918534  0.7337126461900709  1.0000
  H   H15       1.0  0.10613264318608628  0.38429771072078006  0.2668626946142254  1.0000
  H   H16       1.0  0.8938702055106447  0.615702519205456  0.7331391739569851  1.0000
  H   H17       1.0  0.4078455239013437  0.4775035033079433  0.9512423031023189  1.0000
  H   H18       1.0  0.5921537918458738  0.5224995663824501  0.048758004989885285  1.0000
  H   H19       1.0  0.5592589559728225  0.2723267565813146  0.9401618627981707  1.0000
  H   H20       1.0  0.4407414126571609  0.7276763131090859  0.059838983334238184  1.0000
  H   H21       1.0  0.4012254440767506  0.7277179629833909  0.69952350302259  1.0000
  H   H22       1.0  0.5987670005593415  0.2722813203547929  0.3004822523170816  1.0000
  H   H23       1.0  0.5112143627312874  0.7414690476217273  0.47536751977738595  1.0000
  H   H24       1.0  0.4887812952993542  0.25853780842087554  0.524637998480749  1.0000
  H   H25       1.0  0.24210968952967707  0.4749032259277897  0.4318725771562981  1.0000
  H   H26       1.0  0.7578981740467654  0.5250988971745514  0.5681210441348483  1.0000
  H   H27       1.0  0.13321769021531077  0.46167276471831536  0.6539995829891937  1.0000
  H   H28       1.0  0.8667849789681128  0.5383208390915541  0.3459923373269973  1.0000
  H   H29       1.0  0.9761082936636639  0.7206053003570787  0.5100214289163532  1.0000
  H   H30       1.0  0.0238844005065602  0.2793920898050004  0.4899792260889413  1.0000
  H   H31       1.0  0.008920500946679486  0.8325913999053896  0.6823483576843117  1.0000
  H   H32       1.0  0.9910740494549514  0.1674078834327943  0.317652565066915  1.0000
  H   H33       1.0  0.3256399944451047  0.0331968430003755  0.4309594281650107  1.0000
  H   H34       1.0  0.6743559831404937  0.9667996005736511  0.5690445112714642  1.0000
  H   H35       1.0  0.2911217566935065  0.9192439634052505  0.26083877114187  1.0000
  H   H36       1.0  0.7088740961250225  0.0807534267568286  0.7391651861751427  1.0000
  C   C1        1.0  0.7959312624918767  0.7755339118662261  0.13747475673775256  1.0000
  C   C2        1.0  0.2040713366707223  0.2244682112361218  0.8625237712123308  1.0000
  C   C3        1.0  0.6890902097295069  0.8616194691226511  0.12207767264936825  1.0000
  C   C4        1.0  0.31091213989895283  0.1383845471557947  0.8779208910617842  1.0000
  C   C5        1.0  0.7210945804748762  0.9431623503152479  0.024406600341421766  1.0000
  C   C6        1.0  0.2789089468034263  0.056840719375145496  0.9755907953382987  1.0000
  C   C7        1.0  0.8634802643746724  0.9386480718929844  0.9505526159492137  1.0000
  C   C8        1.0  0.136521157138084  0.061354997797408786  0.04944623593674891  1.0000
  C   C9        1.0  0.9643105400782159  0.8501411423983143  0.9720944348296146  1.0000
  C   C10       1.0  0.03569323673421108  0.1498600341159744  0.027904613280142605  1.0000
  C   C11       1.0  0.6102200881564953  0.0198840286303366  0.9867793234514083  1.0000
  C   C12       1.0  0.3897854201202762  0.980119987648109  0.013219166189259165  1.0000
  C   C13       1.0  0.46446224168692407  0.06174877842724409  0.08237700306593607  1.0000
  C   C14       1.0  0.5355391798258324  0.9382542912631493  0.9176226929155721  1.0000
  C   C15       1.0  0.4070227306287181  0.19908355943283598  0.09889779260213058  1.0000
  C   C16       1.0  0.5929799933009434  0.8009176170814527  0.9011032497540656  1.0000
  C   C17       1.0  0.2816145761858948  0.23604687629401866  0.19516899416548483  1.0000
  C   C18       1.0  0.71838907585947  0.7639552468083224  0.8048309159203556  1.0000
  C   C19       1.0  0.20663949761249262  0.3543845816744522  0.19602753484009844  1.0000
  C   C20       1.0  0.7933621734343959  0.6456165948398364  0.803973813571446  1.0000
  C   C21       1.0  0.3761520331564512  0.4067583520299607  0.02030230073164321  1.0000
  C   C22       1.0  0.6238475321248984  0.5932428244843279  0.9796988156950377  1.0000
  C   C23       1.0  0.45864390964815277  0.2908789358218087  0.013916496721854814  1.0000
  C   C24       1.0  0.5413586895144462  0.7091231872805324  0.9860828753237811  1.0000
  C   C25       1.0  0.19829233683523032  0.5882022431048881  0.8246304100305721  1.0000
  C   C26       1.0  0.8017027126346646  0.4117932538810862  0.17536875300741175  1.0000
  C   C27       1.0  0.26053770315686364  0.5950640598972966  0.690736181059677  1.0000
  C   C28       1.0  0.7394593273115007  0.40493238367673  0.309259855461491  1.0000
  C   C29       1.0  0.36711621431553  0.6734074734725155  0.6397016848608956  1.0000
  C   C30       1.0  0.6328795137359365  0.326590863277616  0.3603022903366552  1.0000
  C   C31       1.0  0.4282077371136309  0.6809953233011754  0.5156222985512572  1.0000
  C   C32       1.0  0.5717873671025089  0.3190077463892251  0.4843826101445289  1.0000
  C   C33       1.0  0.3821597109049791  0.6087129130259611  0.4423624530536189  1.0000
  C   C34       1.0  0.6178430130246753  0.39128826348832746  0.5576369011114722  1.0000
  C   C35       1.0  0.2765183773266813  0.5297296059272725  0.4911862523613237  1.0000
  C   C36       1.0  0.7234835432543392  0.4702696774109184  0.5088099957158363  1.0000
  C   C37       1.0  0.21578311741727418  0.5232331721231205  0.6155924697605856  1.0000
  C   C38       1.0  0.7842170716994019  0.4767632714509062  0.3844009604034468  1.0000
  C   C39       1.0  0.1191767966136581  0.7427857516027244  0.2726103804302014  1.0000
  C   C40       1.0  0.8808248744332304  0.2572154249115641  0.7273859034080346  1.0000
  C   C41       1.0  0.131568588461036  0.8141878349891272  0.37547057760880886  1.0000
  C   C42       1.0  0.8684248543115843  0.18580387564463757  0.624534190591021  1.0000
  C   C43       1.0  0.0511465575942367  0.7902372640853486  0.4941970804368196  1.0000
  C   C44       1.0  0.9488532572212448  0.2097620192528353  0.5058006238465824  1.0000
  C   C45       1.0  0.06892025276968639  0.8521128853116265  0.5895117790015618  1.0000
  C   C46       1.0  0.931071084237395  0.1478788253221381  0.4104936013089572  1.0000
  C   C47       1.0  0.16819601769694256  0.9386916149433944  0.5652691709255819  1.0000
  C   C48       1.0  0.8318086324849503  0.06130293545452759  0.43472890792486396  1.0000
  C   C49       1.0  0.24860858712579403  0.9653020982746341  0.44751848247197057  1.0000
  C   C50       1.0  0.7513885133633948  0.0346858260069212  0.5524895165174398  1.0000
  C   C51       1.0  0.22919094965219242  0.90253479110293  0.35367390139547444  1.0000
  C   C52       1.0  0.7708137005297004  0.0974597592949991  0.6463241774549715  1.0000
  N   N1        1.0  0.9307136286433674  0.7679716199149808  0.06250024806722372  1.0000
  N   N2        1.0  0.06928804240352089  0.23202955659930777  0.9374994121532155  1.0000
  N   N3        1.0  0.25023873940547486  0.4368740509195206  0.1070415838006085  1.0000
  N   N4        1.0  0.7497626821072885  0.5631290187708728  0.8929589562764522  1.0000
  Cl  Cl1       1.0  0.45764410063485184  0.6173874459388671  0.2878150045223364  1.0000
  Cl  Cl2       1.0  0.5423646210364765  0.3826241430440049  0.7121866244190045  1.0000
  Cl  Cl3       1.0  0.1947322010143395  0.012609499447044897  0.6831218280867191  1.0000
  Cl  Cl4       1.0  0.8052624741543611  0.9873888373030865  0.3168790767839696  1.0000
  O   O1        1.0  0.2528766897074632  0.6471879310069467  0.8874980163061394  1.0000
  O   O2        1.0  0.7471161292298234  0.3528085125670799  0.11250093262751192  1.0000
  O   O3        1.0  0.09361683590352501  0.5253043067819405  0.8728204884866243  1.0000
  O   O4        1.0  0.9063802645856711  0.4746836174996146  0.12717653726061692  1.0000
  O   O5        1.0  0.034712121133239314  0.6581626728873714  0.2952631052947581  1.0000
  O   O6        1.0  0.965284659800993  0.34183566386275993  0.7047354992741363  1.0000
  O   O7        1.0  0.19532540966082476  0.768643697432239  0.16607072142426926  1.0000
  O   O8        1.0  0.8046731027377589  0.2313574790820496  0.8339298569622076  1.0000
