data_image0
_chemical_formula_structural       H32Pb4C40N8Cl8
_chemical_formula_sum              "H32 Pb4 C40 N8 Cl8"
_cell_length_a       8.219919931744812
_cell_length_b       9.423595256003379
_cell_length_c       14.956138756383305
_cell_angle_alpha    89.99998784222811
_cell_angle_beta     91.00089464668699
_cell_angle_gamma    89.99990189974979

_space_group_name_H-M_alt    "P 1"
_space_group_IT_number       1

loop_
  _space_group_symop_operation_xyz
  'x, y, z'

loop_
  _atom_site_type_symbol
  _atom_site_label
  _atom_site_symmetry_multiplicity
  _atom_site_fract_x
  _atom_site_fract_y
  _atom_site_fract_z
  _atom_site_occupancy
  H   H1        1.0  0.8358527437282461  0.9599226514691848  0.9265607132044877  1.0000
  H   H2        1.0  0.6641553720475812  0.45991842754236256  0.0734358123123044  1.0000
  H   H3        1.0  0.1641598961715687  0.04007904575122719  0.07343351195624591  1.0000
  H   H4        1.0  0.33583759649065575  0.5400822085257673  0.9265654134820239  1.0000
  H   H5        1.0  0.9172454348348252  0.1967170496133406  0.9931199273268876  1.0000
  H   H6        1.0  0.5827496930266562  0.6967145365080896  0.006880407392614502  1.0000
  H   H7        1.0  0.0827548520051664  0.8032814641170559  0.0068807618648350005  1.0000
  H   H8        1.0  0.4172482167367306  0.30328609955670055  0.9931182327894136  1.0000
  H   H9        1.0  0.826037297653805  0.4184658327581872  0.9129186134357996  1.0000
  H   H10       1.0  0.6739561865330544  0.9184642150942822  0.08708166513125092  1.0000
  H   H11       1.0  0.17395924585109412  0.5815337421406426  0.08708535169133572  1.0000
  H   H12       1.0  0.3260453917329684  0.0815374821339319  0.912916372567736  1.0000
  H   H13       1.0  0.6533001255227545  0.39691158092568907  0.776499817386899  1.0000
  H   H14       1.0  0.8466983039886172  0.8969075321935737  0.2234992156178492  1.0000
  H   H15       1.0  0.3467025196811306  0.6030901163008195  0.2235035891772483  1.0000
  H   H16       1.0  0.1532983704715534  0.1030899203736979  0.7765000709674936  1.0000
  H   H17       1.0  0.3687641782544517  0.879642662348715  0.5948863072076165  1.0000
  H   H18       1.0  0.1312363289360405  0.37964156210302485  0.4051119633893806  1.0000
  H   H19       1.0  0.6312311299451778  0.1203558513848364  0.4051183043226771  1.0000
  H   H20       1.0  0.8687653054548434  0.6203580127932398  0.5948840692203633  1.0000
  H   H21       1.0  0.2592664019790334  0.0775316999696969  0.4968831047100722  1.0000
  H   H22       1.0  0.24073098114019587  0.5775309036144306  0.5031171516798025  1.0000
  H   H23       1.0  0.7407301041096376  0.9224689360950578  0.5031221971432558  1.0000
  H   H24       1.0  0.75926322270535  0.4224686712867509  0.4968834277115307  1.0000
  H   H25       1.0  0.3547917573381483  0.32648543767389526  0.5300670568481537  1.0000
  H   H26       1.0  0.14520147780704923  0.8264847980362475  0.4699337636375063  1.0000
  H   H27       1.0  0.6452060401816625  0.6735130760580785  0.469935593512851  1.0000
  H   H28       1.0  0.8547902554259184  0.1735147768665968  0.5300681085599805  1.0000
  H   H29       1.0  0.5337467020502658  0.3700079468327715  0.65995320470239  1.0000
  H   H30       1.0  0.9662518541044988  0.8700057994150822  0.34004315899804294  1.0000
  H   H31       1.0  0.46625362220391503  0.6299916280639407  0.3400461477629761  1.0000
  H   H32       1.0  0.03374727226371021  0.1299884696520621  0.6599555031445307  1.0000
  Pb  Pb1       1.0  0.6454592887967224  0.8056579228809753  0.7556392368659459  1.0000
  Pb  Pb2       1.0  0.8545468218298353  0.3056639635085005  0.2443525899746604  1.0000
  Pb  Pb3       1.0  0.3545435060802475  0.19433104035288548  0.24435882279409077  1.0000
  Pb  Pb4       1.0  0.1454501145275771  0.6943430395551857  0.7556373395260393  1.0000
  C   C1        1.0  0.7980274925460122  0.060107936404485  0.8958586899723928  1.0000
  C   C2        1.0  0.70197647072834  0.5601073315159582  0.10413981444227721  1.0000
  C   C3        1.0  0.2019801687144636  0.939892699652951  0.10413945752699053  1.0000
  C   C4        1.0  0.2980177518196996  0.4398975492159137  0.8958600965855084  1.0000
  C   C5        1.0  0.8429243948063531  0.19066422486495332  0.9321664021726265  1.0000
  C   C6        1.0  0.6570780255961282  0.6906626393372052  0.0678347336036111  1.0000
  C   C7        1.0  0.1570795792469468  0.8093321665306092  0.06783301617316792  1.0000
  C   C8        1.0  0.34292460090628657  0.3093326908924965  0.9321693413241621  1.0000
  C   C9        1.0  0.7915431580694375  0.31359612151950966  0.888117772170361  1.0000
  C   C10       1.0  0.7084565736685774  0.8135944430090376  0.1118839690935545  1.0000
  C   C11       1.0  0.20845711006192857  0.6864034533769114  0.1118835853844189  1.0000
  C   C12       1.0  0.2915484860271107  0.18640513188326926  0.8881201497540162  1.0000
  C   C13       1.0  0.6960815704228621  0.3016506601646967  0.8107258085816085  1.0000
  C   C14       1.0  0.8039207297594545  0.801654116201533  0.18927196826512477  1.0000
  C   C15       1.0  0.303921130904854  0.6983499758959795  0.1892755928932104  1.0000
  C   C16       1.0  0.19607955707235902  0.19835288685781902  0.810728720925937  1.0000
  C   C17       1.0  0.6546832469940328  0.16670856887864724  0.777973202960702  1.0000
  C   C18       1.0  0.8453217088671607  0.6667055839061078  0.22202597534018056  1.0000
  C   C19       1.0  0.34531707725810173  0.8332931283502986  0.22202614950450084  1.0000
  C   C20       1.0  0.15467496558891716  0.3332961133256376  0.7779733112448356  1.0000
  C   C21       1.0  0.4011574661990025  0.9904251948722871  0.6072040360799918  1.0000
  C   C22       1.0  0.0988441003533325  0.4904230869561844  0.3927922343057446  1.0000
  C   C23       1.0  0.59884031260912  0.0095775635240614  0.3927992826438286  1.0000
  C   C24       1.0  0.901156261319116  0.5095733044423624  0.607205781433592  1.0000
  C   C25       1.0  0.34225698772954155  0.09962510597162579  0.5529022981424776  1.0000
  C   C26       1.0  0.15774160684773622  0.5996297606161746  0.4470966400741006  1.0000
  C   C27       1.0  0.6577359433965526  0.9003723465979547  0.44710026437837064  1.0000
  C   C28       1.0  0.8422574821032213  0.4003666307830187  0.5529033587945877  1.0000
  C   C29       1.0  0.39369484027970714  0.23750237739249505  0.5717405763529231  1.0000
  C   C30       1.0  0.10630592196056202  0.7374975662485639  0.4282583845246678  1.0000
  C   C31       1.0  0.606298128259553  0.7624971975095176  0.42826064944148373  1.0000
  C   C32       1.0  0.8936919878058944  0.262499886317876  0.5717402556576019  1.0000
  C   C33       1.0  0.49712752726055953  0.2615960631112984  0.6447987998814784  1.0000
  C   C34       1.0  0.002869594901227401  0.7615935563055983  0.3551980863112405  1.0000
  C   C35       1.0  0.5028714681442068  0.738408817616353  0.35520454080224084  1.0000
  C   C36       1.0  0.9971271356766425  0.23840920209255503  0.6447991951842909  1.0000
  C   C37       1.0  0.5496104955655737  0.1469348929240226  0.697408631576316  1.0000
  C   C38       1.0  0.9503921212980445  0.6469380879558031  0.3025885007635338  1.0000
  C   C39       1.0  0.4503873019532207  0.853064681974068  0.3025940187846103  1.0000
  C   C40       1.0  0.049610636148393915  0.3530667927696384  0.6974108956215446  1.0000
  N   N1        1.0  0.7072894267885275  0.04858269284501659  0.8207887919256722  1.0000
  N   N2        1.0  0.7927206790905289  0.5485829858112936  0.17920848734009104  1.0000
  N   N3        1.0  0.2927182344719411  0.9514179432124193  0.1792093555737111  1.0000
  N   N4        1.0  0.20727721196423943  0.45141871141952084  0.8207908212049873  1.0000
  N   N5        1.0  0.5028941971110399  0.013011523133705799  0.6769182942296581  1.0000
  N   N6        1.0  0.9971110921770573  0.5130082731122343  0.3230795710441186  1.0000
  N   N7        1.0  0.4971048731282223  0.9869891129298619  0.3230823730018386  1.0000
  N   N8        1.0  0.002891627862354102  0.4869881182840672  0.6769211620678917  1.0000
  Cl  Cl1       1.0  0.39777829088598793  0.8121566718526337  0.8836648813626341  1.0000
  Cl  Cl2       1.0  0.1022247420666957  0.31214934465766925  0.1163347802871684  1.0000
  Cl  Cl3       1.0  0.6022256644525541  0.1878471477056607  0.1163352053457274  1.0000
  Cl  Cl4       1.0  0.8977780153848514  0.6878502302371814  0.8836646160983221  1.0000
  Cl  Cl5       1.0  0.9239514496933412  0.8760544285822507  0.6413150614401603  1.0000
  Cl  Cl6       1.0  0.5760567153610552  0.3760513055777395  0.35868548718733  1.0000
  Cl  Cl7       1.0  0.07605615544431998  0.12394620747489428  0.3586850911486295  1.0000
  Cl  Cl8       1.0  0.423948531410673  0.6239482693155409  0.6413119480288785  1.0000
