data_image0
_chemical_formula_structural       Zn2H28C28N8O8
_chemical_formula_sum              "Zn2 H28 C28 N8 O8"
_cell_length_a       9.422467086718658
_cell_length_b       9.825276840332617
_cell_length_c       9.825281584570082
_cell_angle_alpha    76.2891456229418
_cell_angle_beta     68.27592376878538
_cell_angle_gamma    68.27588803927064

_space_group_name_H-M_alt    "P 1"
_space_group_IT_number       1

loop_
  _space_group_symop_operation_xyz
  'x, y, z'

loop_
  _atom_site_type_symbol
  _atom_site_label
  _atom_site_symmetry_multiplicity
  _atom_site_fract_x
  _atom_site_fract_y
  _atom_site_fract_z
  _atom_site_occupancy
  Zn  Zn1       1.0  0.9950022383702333  0.7137416350342961  0.34520576211414783  1.0000
  Zn  Zn2       1.0  0.4950016172564845  0.3452064530097374  0.7137431800474303  1.0000
  H   H1        1.0  0.7146028230056629  0.8171568955248176  0.17185040440358548  1.0000
  H   H2        1.0  0.21460209424488855  0.17184957230675482  0.8171588523151598  1.0000
  H   H3        1.0  0.8983433633108859  0.6035664316487513  0.07045438729102937  1.0000
  H   H4        1.0  0.3983427737758163  0.0704550713150311  0.603566915085814  1.0000
  H   H5        1.0  0.13308048469335884  0.5352070794552761  0.5704491728121468  1.0000
  H   H6        1.0  0.6330816101132654  0.5704490538592638  0.535208125723095  1.0000
  H   H7        1.0  0.06616895375463373  0.5003212661929766  0.8422767941095087  1.0000
  H   H8        1.0  0.5661688392759814  0.8422770695874323  0.5003235420005439  1.0000
  H   H9        1.0  0.6514238044599026  0.8924058957080164  0.8549637035460123  1.0000
  H   H10       1.0  0.15142451343530194  0.8549626569257499  0.8924060437129595  1.0000
  H   H11       1.0  0.7388147137016503  0.913081116152114  0.5822393459919224  1.0000
  H   H12       1.0  0.2388180698462961  0.5822370121283386  0.9130817479569727  1.0000
  H   H13       1.0  0.3142314961311144  0.5597642699235124  0.1256926328379037  1.0000
  H   H14       1.0  0.8142317050522864  0.12569237494628283  0.559764390035589  1.0000
  H   H15       1.0  0.5911690684115809  0.5757422064391664  0.031440588056739216  1.0000
  H   H16       1.0  0.09117020148793391  0.03144264367342231  0.5757401191254132  1.0000
  H   H17       1.0  0.420234381338105  0.9323486430318727  0.2977600461464717  1.0000
  H   H18       1.0  0.920234549887887  0.2977616514514736  0.9323485730678769  1.0000
  H   H19       1.0  0.14762850440925493  0.9079352502435686  0.372523714891308  1.0000
  H   H20       1.0  0.6476262717366056  0.3725262283865334  0.9079350016738984  1.0000
  H   H21       1.0  0.021454044376682194  0.23611522709905602  0.33516686799984535  1.0000
  H   H22       1.0  0.5214535364818644  0.3351673872456047  0.2361147405401809  1.0000
  H   H23       1.0  0.2197730128345085  0.23258774660097012  0.3025214824330149  1.0000
  H   H24       1.0  0.719773418565609  0.3025221611899199  0.23258811120835074  1.0000
  H   H25       1.0  0.2043897899743287  0.10262631678661191  0.11818289148069984  1.0000
  H   H26       1.0  0.7043896324063539  0.11818328422394593  0.10262751595062981  1.0000
  H   H27       1.0  0.06461281246365759  0.26358484241964675  0.06575184757370782  1.0000
  H   H28       1.0  0.5646127420300077  0.0657518033993298  0.26358455287677873  1.0000
  C   C1        1.0  0.02780401982899159  0.612157227708252  0.6378501136298665  1.0000
  C   C2        1.0  0.5278045158746068  0.6378500146542267  0.6121589249403242  1.0000
  C   C3        1.0  0.9897513607611829  0.5926119513315699  0.7889686521137803  1.0000
  C   C4        1.0  0.4897529528078979  0.7889689787505815  0.5926121409402613  1.0000
  C   C5        1.0  0.8504075130261056  0.6928611756201591  0.8731501023931545  1.0000
  C   C6        1.0  0.3504066845042716  0.8731516932428321  0.6928625552088831  1.0000
  C   C7        1.0  0.7584892176576262  0.8105912604460173  0.7963200892432595  1.0000
  C   C8        1.0  0.25848923413327185  0.796319553594458  0.8105929720163445  1.0000
  C   C9        1.0  0.8070744936629451  0.8219759697964621  0.6440221528952748  1.0000
  C   C10       1.0  0.30707602729935257  0.6440219012726162  0.8219767669644753  1.0000
  C   C11       1.0  0.3419365158557569  0.6423216034044331  0.15976131553114203  1.0000
  C   C12       1.0  0.8419358628933936  0.15976301031733442  0.64232056039544  1.0000
  C   C13       1.0  0.49655990859226773  0.6505665899124795  0.10794349547752076  1.0000
  C   C14       1.0  0.9965609760929652  0.10794717235481238  0.6505653297936433  1.0000
  C   C15       1.0  0.5314934877689412  0.7544623658686761  0.15752006715305097  1.0000
  C   C16       1.0  0.03149120677171881  0.15752084938502972  0.754463780997277  1.0000
  C   C17       1.0  0.40207070944317996  0.8487454079224295  0.25626102283217717  1.0000
  C   C18       1.0  0.902069631414989  0.2562630835350107  0.8487458478814741  1.0000
  C   C19       1.0  0.250874221095323  0.8348274566002232  0.2996149560550734  1.0000
  C   C20       1.0  0.7508736248739184  0.29961694705104247  0.8348265949730445  1.0000
  C   C21       1.0  0.06447182822218166  0.4433655075746332  0.24970280489672084  1.0000
  C   C22       1.0  0.5644723377728909  0.24970323220514257  0.4433657183701172  1.0000
  C   C23       1.0  0.11957497632324988  0.2764151009064336  0.2560598444699096  1.0000
  C   C24       1.0  0.6195757294827473  0.2560597894801618  0.2764151244211421  1.0000
  C   C25       1.0  0.16810880228702269  0.22388644635314855  0.10707235747074148  1.0000
  C   C26       1.0  0.6681089809009322  0.10707230033056452  0.22388704186007394  1.0000
  C   C27       1.0  0.3056027013297467  0.27235085113500906  0.9914535608590993  1.0000
  C   C28       1.0  0.8056020966628664  0.9914511438589602  0.2723511575093412  1.0000
  N   N1        1.0  0.21862826077176592  0.7330427744283627  0.2537621275945411  1.0000
  N   N2        1.0  0.718626693041017  0.253764447462558  0.7330431689951595  1.0000
  N   N3        1.0  0.6811535083052503  0.7692147176598713  0.10981854882526686  1.0000
  N   N4        1.0  0.18115309033115073  0.1098192739257655  0.7692150929869398  1.0000
  N   N5        1.0  0.8088800485059124  0.6677166549976832  0.023167883045914744  1.0000
  N   N6        1.0  0.3088788305873322  0.023167857210673  0.6677170564652924  1.0000
  N   N7        1.0  0.938374712269912  0.7245609042143926  0.5641494313745595  1.0000
  N   N8        1.0  0.4383775369756294  0.5641482438847519  0.7245610428075933  1.0000
  O   O1        1.0  0.029489729182159922  0.49582582953996734  0.3702678413689852  1.0000
  O   O2        1.0  0.5294896904584903  0.37026760105880646  0.49582627860402784  1.0000
  O   O3        1.0  0.05672999476790617  0.5236129010726315  0.12964846113649028  1.0000
  O   O4        1.0  0.5567289768974105  0.12964955465722036  0.5236137747903555  1.0000
  O   O5        1.0  0.4016813692946428  0.306825060533818  0.025092517092211605  1.0000
  O   O6        1.0  0.9016822088758049  0.025092067743472102  0.3068257782279887  1.0000
  O   O7        1.0  0.3158555121351228  0.2728837436926028  0.8538044963543852  1.0000
  O   O8        1.0  0.8158555145767538  0.8538042219514709  0.2728834459625419  1.0000
