data_image0
_chemical_formula_structural       Cu2H24C32N12O4
_chemical_formula_sum              "Cu2 H24 C32 N12 O4"
_cell_length_a       7.451349875820556
_cell_length_b       10.774350839035074
_cell_length_c       11.637318358532996
_cell_angle_alpha    64.49470936295901
_cell_angle_beta     76.56091561469206
_cell_angle_gamma    88.91700695660498

_space_group_name_H-M_alt    "P 1"
_space_group_IT_number       1

loop_
  _space_group_symop_operation_xyz
  'x, y, z'

loop_
  _atom_site_type_symbol
  _atom_site_label
  _atom_site_symmetry_multiplicity
  _atom_site_fract_x
  _atom_site_fract_y
  _atom_site_fract_z
  _atom_site_occupancy
  Cu  Cu1       1.0  0.041129435670633485  0.8980500454508159  0.799508602701131  1.0000
  Cu  Cu2       1.0  0.9588707459848677  0.10194958532405711  0.20049432450968396  1.0000
  H   H1        1.0  0.2004454559155633  0.16735035077221738  0.3936360362459083  1.0000
  H   H2        1.0  0.7995543900058235  0.8326471873719686  0.606362627140207  1.0000
  H   H3        1.0  0.2691692107763116  0.6866818517269168  0.7769539974431154  1.0000
  H   H4        1.0  0.730827782428797  0.3133146953183967  0.22304979627972438  1.0000
  H   H5        1.0  0.43541312783867164  0.6229421248630729  0.5997787209795644  1.0000
  H   H6        1.0  0.5645867451854583  0.3770554268776253  0.4002225107929648  1.0000
  H   H7        1.0  0.4583464591265951  0.7927645355727508  0.3640105931259257  1.0000
  H   H8        1.0  0.5416537044604155  0.2072350861377856  0.6359906218272753  1.0000
  H   H9        1.0  0.335126785325258  0.024033905748524403  0.317762758186511  1.0000
  H   H10       1.0  0.6648718770043303  0.9759647017870707  0.6822408121076862  1.0000
  H   H11       1.0  0.2038518470495916  0.3727535968542953  0.4022267544049355  1.0000
  H   H12       1.0  0.7961441447156189  0.627246035166202  0.5977716558610239  1.0000
  H   H13       1.0  0.1684096409254394  0.5027372837509887  0.536930175516261  1.0000
  H   H14       1.0  0.8315921466148097  0.4972643757889658  0.46306653536427683  1.0000
  H   H15       1.0  0.09003917949910088  0.3684044565373554  0.7860842482414155  1.0000
  H   H16       1.0  0.9099653741985988  0.631597188575668  0.2139129055492788  1.0000
  H   H17       1.0  0.04629685097633999  0.11138385071598828  0.8829804206980254  1.0000
  H   H18       1.0  0.953708967621388  0.8886167657951702  0.1170195313438286  1.0000
  H   H19       1.0  0.653168272701059  0.49037917608620074  0.02290431385792143  1.0000
  H   H20       1.0  0.3468278778969632  0.5096214977174753  0.9770953721915774  1.0000
  H   H21       1.0  0.8720853334548194  0.441102253531831  0.9671661788407915  1.0000
  H   H22       1.0  0.1279104129187587  0.5588953311796986  0.03283652888850943  1.0000
  H   H23       1.0  0.6960308658317871  0.46823971800237263  0.8767778445097816  1.0000
  H   H24       1.0  0.30396528476623513  0.5317609558013032  0.12322184153972426  1.0000
  C   C1        1.0  0.2878267439268924  0.7570064329380701  0.6735154728908767  1.0000
  C   C2        1.0  0.7121732698615515  0.24299215152145595  0.32648532240758493  1.0000
  C   C3        1.0  0.37758558786108404  0.7221964760888825  0.5749209392512213  1.0000
  C   C4        1.0  0.6224126431413097  0.2777990287580466  0.4250830843363572  1.0000
  C   C5        1.0  0.3919497659170901  0.8180637681798686  0.44403568871174304  1.0000
  C   C6        1.0  0.6080487285454408  0.181933793040379  0.5559657496701078  1.0000
  C   C7        1.0  0.323030434345533  0.9448360153118217  0.4176106617847992  1.0000
  C   C8        1.0  0.6769679283869294  0.0551605177217667  0.582392069199912  1.0000
  C   C9        1.0  0.23655816202442276  0.9745071152193318  0.5234676160500128  1.0000
  C   C10       1.0  0.7634378568435308  0.0254925303976847  0.4765333626023532  1.0000
  C   C11       1.0  0.14556366717228994  0.1734094926738834  0.5715745942447938  1.0000
  C   C12       1.0  0.8544349499860573  0.8265890922008553  0.4284246954053824  1.0000
  C   C13       1.0  0.1650772005928332  0.3191641700904669  0.5091546193069405  1.0000
  C   C14       1.0  0.8349204331941209  0.6808375088237995  0.4908409991439554  1.0000
  C   C15       1.0  0.1462531888105545  0.3903833087212973  0.5850995212003766  1.0000
  C   C16       1.0  0.8537455781463592  0.6096163134044447  0.4149001881045463  1.0000
  C   C17       1.0  0.10433377021731619  0.3167766096475262  0.7224279414018612  1.0000
  C   C18       1.0  0.895669395884532  0.6832250404128787  0.27756856286936227  1.0000
  C   C19       1.0  0.08176272500674028  0.1741825428800183  0.777136396599559  1.0000
  C   C20       1.0  0.918240468197851  0.8258191207769059  0.22286267605807103  1.0000
  C   C21       1.0  0.6630180147516639  0.866181570155433  0.9762947833527421  1.0000
  C   C22       1.0  0.3369793917121413  0.13381807051420222  0.023706844819109587  1.0000
  C   C23       1.0  0.48624032832913855  0.8033174028308425  0.04819660109626513  1.0000
  C   C24       1.0  0.5137613094125442  0.19668321945811576  0.9517996901295334  1.0000
  C   C25       1.0  0.3416829175471462  0.8378215422512058  0.9846467417483352  1.0000
  C   C26       1.0  0.6583312951160137  0.16218004103712497  0.01534982190591451  1.0000
  C   C27       1.0  0.4559209959024386  0.7001595040771207  0.17842381264634355  1.0000
  C   C28       1.0  0.5440770872801934  0.2998452865901556  0.8215730647687775  1.0000
  C   C29       1.0  0.8256922101895724  0.6551407319775535  0.8552854252414263  1.0000
  C   C30       1.0  0.1743122569492996  0.3448599076096742  0.14471730179616318  1.0000
  C   C31       1.0  0.7599866673499632  0.503512931441968  0.9344615823352809  1.0000
  C   C32       1.0  0.2400107300795966  0.4964867046954922  0.06553918970776351  1.0000
  N   N1        1.0  0.21398632191365155  0.8790595494691475  0.6491432656100569  1.0000
  N   N2        1.0  0.7860120408188109  0.12093698356444094  0.3508594653746612  1.0000
  N   N3        1.0  0.17772991878285885  0.1041318143404339  0.4941561554434911  1.0000
  N   N4        1.0  0.8222644399948679  0.8958657753184697  0.5058459027663247  1.0000
  N   N5        1.0  0.10077365358208108  0.10357016148540053  0.7036698567750433  1.0000
  N   N6        1.0  0.8992266327007455  0.8964304838796195  0.29632920944649044  1.0000
  N   N7        1.0  0.8113504845516456  0.921542814964049  0.9143609563749134  1.0000
  N   N8        1.0  0.18865174335004295  0.0784619517967471  0.08563615734104958  1.0000
  N   N9        1.0  0.22279078615157022  0.8685135828346159  0.9299269836606144  1.0000
  N   N10       1.0  0.7772099618329872  0.1314808204804905  0.07006764576553341  1.0000
  N   N11       1.0  0.4310044992243149  0.6131667332580265  0.286494236438152  1.0000
  N   N12       1.0  0.5689862113800856  0.3868443377925814  0.713506398561364  1.0000
  O   O1        1.0  0.9601075139932503  0.6974166077160575  0.8864796587197998  1.0000
  O   O2        1.0  0.039892404202120715  0.3025809666854969  0.11352585369674979  1.0000
  O   O3        1.0  0.747210733301209  0.7310470514430777  0.7680340407589978  1.0000
  O   O4        1.0  0.2527953939278973  0.26895564410225603  0.23196760672114175  1.0000
