data_image0
_chemical_formula_structural       Zn2H32C30N12O10
_chemical_formula_sum              "Zn2 H32 C30 N12 O10"
_cell_length_a       10.086398390625302
_cell_length_b       10.275395124526202
_cell_length_c       10.786132636215285
_cell_angle_alpha    79.68924514004068
_cell_angle_beta     62.821903812980096
_cell_angle_gamma    65.12323007632239

_space_group_name_H-M_alt    "P 1"
_space_group_IT_number       1

loop_
  _space_group_symop_operation_xyz
  'x, y, z'

loop_
  _atom_site_type_symbol
  _atom_site_label
  _atom_site_symmetry_multiplicity
  _atom_site_fract_x
  _atom_site_fract_y
  _atom_site_fract_z
  _atom_site_occupancy
  Zn  Zn1       1.0  0.9717290319131635  0.39690976239474196  0.3043234317799275  1.0000
  Zn  Zn2       1.0  0.028268681534662107  0.6030953801601558  0.6956763985969657  1.0000
  H   H1        1.0  0.2734576083596065  0.9572906209936465  0.5894223899057708  1.0000
  H   H2        1.0  0.7265378967842295  0.042706138316340486  0.41057877967701717  1.0000
  H   H3        1.0  0.129104448055301  0.8796752670298676  0.6715370211116252  1.0000
  H   H4        1.0  0.870882636749087  0.12033130109301743  0.328467833699925  1.0000
  H   H5        1.0  0.18045329596120732  0.9253300044933044  0.8496583483442779  1.0000
  H   H6        1.0  0.8195397159109418  0.07467001482568492  0.15034608739203048  1.0000
  H   H7        1.0  0.9845253805704529  0.053570534355934306  0.8757536372953542  1.0000
  H   H8        1.0  0.01547017011933588  0.9464399704786858  0.12424712702899401  1.0000
  H   H9        1.0  0.2950679415942118  0.11542376951687323  0.7237413380395168  1.0000
  H   H10       1.0  0.7049435987846663  0.884562923468273  0.27626328759238555  1.0000
  H   H11       1.0  0.09374751152315493  0.2453996630589259  0.7736295384707149  1.0000
  H   H12       1.0  0.9062708253217406  0.7545984223446  0.22636396925569355  1.0000
  H   H13       1.0  0.7194494355686983  0.25646446491604286  0.5696323915683833  1.0000
  H   H14       1.0  0.2805550711346427  0.7435351530486686  0.4303609356032397  1.0000
  H   H15       1.0  0.20816963313151143  0.17588217457504382  0.4387581885547008  1.0000
  H   H16       1.0  0.7918289785052293  0.8241261106779021  0.5612435456121928  1.0000
  H   H17       1.0  0.27711792504665306  0.0632879635825745  0.17445723331297813  1.0000
  H   H18       1.0  0.7228620343833113  0.9367135683554866  0.8255587642600162  1.0000
  H   H19       1.0  0.9642964850740723  0.3665923654265058  0.007935454692251667  1.0000
  H   H20       1.0  0.035701791185353035  0.6334116975974171  0.9920596855673977  1.0000
  H   H21       1.0  0.44069569818473997  0.38164876793894825  0.3008411192238683  1.0000
  H   H22       1.0  0.5593114950112009  0.6183412411530255  0.699153607904698  1.0000
  H   H23       1.0  0.66047556600261  0.6871938275064267  0.12123168590542113  1.0000
  H   H24       1.0  0.3395236611154928  0.31280491676332633  0.8787657891077887  1.0000
  H   H25       1.0  0.47019462680039936  0.8099392039984323  0.008482948912415973  1.0000
  H   H26       1.0  0.5298021613210081  0.19006279733238785  0.9915159158677511  1.0000
  H   H27       1.0  0.2638597513532944  0.7163952789495908  0.04574011993953771  1.0000
  H   H28       1.0  0.7361438452215835  0.28359802778106774  0.954257389270431  1.0000
  H   H29       1.0  0.7249784582468518  0.6100550909039556  0.4516416418523547  1.0000
  H   H30       1.0  0.2750167874615315  0.3899448516816904  0.5483628238348857  1.0000
  H   H31       1.0  0.8167509889847366  0.5873255323920645  0.5465054115550243  1.0000
  H   H32       1.0  0.18324938542343716  0.41267846126834934  0.4534944496219707  1.0000
  C   C1        1.0  0.14718357265690668  0.9791777833100639  0.6638820044420299  1.0000
  C   C2        1.0  0.8528088612056732  0.020826485549882503  0.3361219737764429  1.0000
  C   C3        1.0  0.11408264363296884  0.0220101777875641  0.8065545945931732  1.0000
  C   C4        1.0  0.8859164765403802  0.977997030882335  0.19344432584304638  1.0000
  C   C5        1.0  0.16872845924218177  0.14190520217275093  0.8007530068299218  1.0000
  C   C6        1.0  0.8312820608050727  0.8580899825244757  0.19924601279991797  1.0000
  C   C7        1.0  0.8407303118189656  0.2109484203313343  0.5636625849205359  1.0000
  C   C8        1.0  0.15925904589870027  0.7890612381202616  0.4363352758203263  1.0000
  C   C9        1.0  0.08912165988596137  0.17262087630616213  0.4938402706244602  1.0000
  C   C10       1.0  0.9108701959670638  0.8273876420947275  0.5061632500761916  1.0000
  C   C11       1.0  0.2197710051770726  0.11802728557731264  0.1055566194745765  1.0000
  C   C12       1.0  0.7802183981344653  0.88197286284435  0.8944566841714873  1.0000
  C   C13       1.0  0.05756804588693846  0.2734920277217654  0.025713748312028904  1.0000
  C   C14       1.0  0.9424429978948791  0.726498910382432  0.9742876052222018  1.0000
  C   C15       1.0  0.33543150213050416  0.5458757312291453  0.17860897214528387  1.0000
  C   C16       1.0  0.6645718182057223  0.45411547028285765  0.821388992884188  1.0000
  C   C17       1.0  0.4441746206945183  0.47715895563134575  0.23883707095165355  1.0000
  C   C18       1.0  0.5558328064046236  0.5228363301632156  0.761152990915619  1.0000
  C   C19       1.0  0.5607355249769057  0.5279066422544929  0.21884934913798307  1.0000
  C   C20       1.0  0.4392742054314311  0.47208539384882897  0.7811440139287311  1.0000
  C   C21       1.0  0.5688982102419544  0.6488626154756645  0.13613539199414493  1.0000
  C   C22       1.0  0.43110112542613865  0.35113612289822543  0.8638583302459466  1.0000
  C   C23       1.0  0.4633315361351151  0.7164049454213809  0.07334798796097891  1.0000
  C   C24       1.0  0.5366736180507415  0.28358725004446944  0.9266490679769817  1.0000
  C   C25       1.0  0.3471456652034915  0.6648527772994512  0.09413485836997643  1.0000
  C   C26       1.0  0.6528560823237939  0.3351427054873426  0.9058584122964388  1.0000
  C   C27       1.0  0.2053342918253378  0.4960613061938517  0.20725713802175957  1.0000
  C   C28       1.0  0.794676004653013  0.5039233118325015  0.7927427683911361  1.0000
  C   C29       1.0  0.6763756456631639  0.45146171676366736  0.28466439407746685  1.0000
  C   C30       1.0  0.3236231982715338  0.5485433866875837  0.7153349821782554  1.0000
  N   N1        1.0  0.04652751435729389  0.0873256716673012  0.6012969357764391  1.0000
  N   N2        1.0  0.9534700210675808  0.9126826497413704  0.39870337612507006  1.0000
  N   N3        1.0  0.8880735870563325  0.10960773354823061  0.6470844059609604  1.0000
  N   N4        1.0  0.11192806872416139  0.8903930436287266  0.3529154577635225  1.0000
  N   N5        1.0  0.9612672208590989  0.2526799279630866  0.4669805531473728  1.0000
  N   N6        1.0  0.038736545009683675  0.7473239483863665  0.5330179456661028  1.0000
  N   N7        1.0  0.16033606823899757  0.1630229488692265  0.934639679197005  1.0000
  N   N8        1.0  0.8396638671055284  0.8369789484163235  0.06536626695916685  1.0000
  N   N9        1.0  0.265156952907354  0.0621938988321205  0.9837989264159432  1.0000
  N   N10       1.0  0.7348404723622719  0.9378059699681245  0.016207445608799293  1.0000
  N   N11       1.0  0.09238750791069349  0.24789643116245938  0.13584234881337662  1.0000
  N   N12       1.0  0.9076043582766217  0.7521067972701588  0.8641573934090376  1.0000
  O   O1        1.0  0.11472382084097178  0.5490765743608108  0.14553808237625523  1.0000
  O   O2        1.0  0.8852722199769686  0.45091910689216513  0.8544593352825773  1.0000
  O   O3        1.0  0.18450913212303274  0.3987206425220577  0.30121782094732896  1.0000
  O   O4        1.0  0.8154927608190758  0.6012790728115079  0.6987886109792852  1.0000
  O   O5        1.0  0.7836742353708529  0.5044891790940867  0.2553468030323458  1.0000
  O   O6        1.0  0.21632463570134056  0.4955159228832002  0.7446516350300882  1.0000
  O   O7        1.0  0.6653815496249179  0.3449635296997471  0.3597705452417728  1.0000
  O   O8        1.0  0.3346207552433428  0.6550382834826393  0.6402307398989394  1.0000
  O   O9        1.0  0.8292784736048092  0.5930848677327489  0.44808142230146325  1.0000
  O   O10       1.0  0.17071878558140688  0.40692134845727423  0.5519193454195489  1.0000
