data_image0
_chemical_formula_structural       Zn4H22C76N16O10F12
_chemical_formula_sum              "Zn4 H22 C76 N16 O10 F12"
_cell_length_a       19.596723622686767
_cell_length_b       19.75872866056129
_cell_length_c       19.64592221717715
_cell_angle_alpha    112.6003803197426
_cell_angle_beta     116.17601760726633
_cell_angle_gamma    97.01048123067324

_space_group_name_H-M_alt    "P 1"
_space_group_IT_number       1

loop_
  _space_group_symop_operation_xyz
  'x, y, z'

loop_
  _atom_site_type_symbol
  _atom_site_label
  _atom_site_symmetry_multiplicity
  _atom_site_fract_x
  _atom_site_fract_y
  _atom_site_fract_z
  _atom_site_occupancy
  Zn  Zn1       1.0  0.3715230877437747  0.49951812852541644  0.36984367142985525  1.0000
  Zn  Zn2       1.0  0.6231224013353726  0.4924862325854564  0.6184900224008488  1.0000
  Zn  Zn3       1.0  0.4987091342034589  0.38339809776861256  0.3974930067012821  1.0000
  Zn  Zn4       1.0  0.4928211158705336  0.6014721357005471  0.5905654440171729  1.0000
  H   H1        1.0  0.9627033171931103  0.12593686898551937  0.029127927180837804  1.0000
  H   H2        1.0  0.004990199964289769  0.8695921754052807  0.955038196172545  1.0000
  H   H3        1.0  0.6459218362931127  0.5247702954739284  0.8125536760465125  1.0000
  H   H4        1.0  0.4806146374081663  0.6217440730444964  0.35686707349390195  1.0000
  H   H5        1.0  0.40277890889613843  0.49672111075305053  0.6354445749362797  1.0000
  H   H6        1.0  0.6264428657240232  0.3099478231140298  0.345920894195487  1.0000
  H   H7        1.0  0.5442074561411803  0.3764322416265389  0.6670895010996675  1.0000
  H   H8        1.0  0.2994287470943675  0.6406317077197273  0.3467228131658828  1.0000
  H   H9        1.0  0.2323731734098047  0.3758733278531069  0.35611932021689807  1.0000
  H   H10       1.0  0.7886018498890766  0.47521772776896415  0.6216209819069789  1.0000
  H   H11       1.0  0.5068916825650547  0.6771527985355237  0.7817411057567156  1.0000
  H   H12       1.0  0.6254960239003253  0.4729951253039888  0.3785032659349384  1.0000
  H   H13       1.0  0.1536631420113821  0.35661538468998094  0.16240513166394524  1.0000
  H   H14       1.0  0.8365548562583598  0.6561273516097119  0.8057341896938439  1.0000
  H   H15       1.0  0.9352006890893352  0.3638875378307065  0.2882185350052567  1.0000
  H   H16       1.0  0.09339461585054212  0.3978360479048747  0.6991886195934001  1.0000
  H   H17       1.0  0.7157377606311713  0.5421174637623665  0.25221015524786583  1.0000
  H   H18       1.0  0.4984193213727225  0.6937727504090322  0.9943875292508012  1.0000
  H   H19       1.0  0.2425208135157177  0.8208758127499184  0.34676202432898867  1.0000
  H   H20       1.0  0.4511923360620785  0.20555423596474054  0.6877826384816288  1.0000
  H   H21       1.0  0.016125516016138864  0.1855972591774276  0.3745329471745222  1.0000
  H   H22       1.0  0.9994124637269977  0.5476868595082324  0.5968991818582553  1.0000
  C   C1        1.0  0.2703649789786411  0.3391083935687932  0.22067589774841423  1.0000
  C   C2        1.0  0.7252962369951206  0.6502212969932446  0.7009400796039245  1.0000
  C   C3        1.0  0.5782250755214164  0.6077188362299711  0.8319916891144177  1.0000
  C   C4        1.0  0.5712880114473721  0.5619726714735621  0.35426773940395156  1.0000
  C   C5        1.0  0.436907334896958  0.2899956228183812  0.5322115631295717  1.0000
  C   C6        1.0  0.3698039620105647  0.7338063102760943  0.48861773665332464  1.0000
  C   C7        1.0  0.2917764443677342  0.41977617834432124  0.4999702422324503  1.0000
  C   C8        1.0  0.7373563734764803  0.3882690866075793  0.4808868729681707  1.0000
  C   C9        1.0  0.9832704217722893  0.31140977717976176  0.497092185658957  1.0000
  C   C10       1.0  0.045039217801949846  0.42860914762376023  0.4824810430494679  1.0000
  C   C11       1.0  0.002705393853922483  0.30073164763369686  0.4253601080026712  1.0000
  C   C12       1.0  0.02565630841582585  0.4391478230295861  0.5546319347194882  1.0000
  C   C13       1.0  0.22681475771709358  0.39234044880808494  0.5068806341781028  1.0000
  C   C14       1.0  0.8053420867089475  0.3790560693549525  0.47632591615126074  1.0000
  C   C15       1.0  0.06761839149280051  0.37957469271454897  0.5711791946030973  1.0000
  C   C16       1.0  0.9617602626975029  0.3613977746787854  0.4090110841202943  1.0000
  C   C17       1.0  0.08985562481777978  0.37056278307218105  0.5009869846949684  1.0000
  C   C18       1.0  0.939311305555755  0.3700742056908626  0.4795291908067513  1.0000
  C   C19       1.0  0.16488051417405106  0.37477675447461695  0.5068431391225516  1.0000
  C   C20       1.0  0.8657324175550515  0.37322521882371285  0.47433344402260513  1.0000
  C   C21       1.0  0.6623137034513606  0.5830259415417062  0.15938928560390764  1.0000
  C   C22       1.0  0.5576750087741759  0.6598118527507072  0.09261271444583491  1.0000
  C   C23       1.0  0.610449419231415  0.5583977294206621  0.790590941143421  1.0000
  C   C24       1.0  0.5088107266617571  0.5796998106471493  0.3671569434250657  1.0000
  C   C25       1.0  0.6182715300123648  0.6133601073621123  0.1981631954270568  1.0000
  C   C26       1.0  0.5993979845939209  0.6269573232457051  0.0519449399928504  1.0000
  C   C27       1.0  0.5687871481434641  0.6525233673111686  0.1644165111237754  1.0000
  C   C28       1.0  0.6515359138201121  0.5906973459642518  0.08786901499716039  1.0000
  C   C29       1.0  0.6171119737959855  0.6015374225860202  0.26407458165574843  1.0000
  C   C30       1.0  0.5895743347651675  0.6271752885491539  0.976651876575545  1.0000
  C   C31       1.0  0.5838370091008047  0.6207297890096516  0.9097839322265459  1.0000
  C   C32       1.0  0.601498389017003  0.5867371554225046  0.31170754347355256  1.0000
  C   C33       1.0  0.3059994683134947  0.02365467160311148  0.44591967973474317  1.0000
  C   C34       1.0  0.392121088643087  0.0031744493221524507  0.5873429854067566  1.0000
  C   C35       1.0  0.3606557019024096  0.09055976266159158  0.5279077185565698  1.0000
  C   C36       1.0  0.34197835906851987  0.9362563258587502  0.5042875887349821  1.0000
  C   C37       1.0  0.40254075306635434  0.0795402154399981  0.601308091872312  1.0000
  C   C38       1.0  0.2954606232428176  0.9471781402505287  0.43191525863198166  1.0000
  C   C39       1.0  0.3784177932995619  0.164758026992189  0.533945764731051  1.0000
  C   C40       1.0  0.34321885491709747  0.8623432461498696  0.49567417112081097  1.0000
  C   C41       1.0  0.3540698670233127  0.8019749331728792  0.4928758104192994  1.0000
  C   C42       1.0  0.4024002538661193  0.22525712805709489  0.5346326656735343  1.0000
  C   C43       1.0  0.9069917306137257  0.0009432296932416522  0.9551775862853873  1.0000
  C   C44       1.0  0.060616081231707114  0.9944725490755959  0.0293364167420549  1.0000
  C   C45       1.0  0.41671674250288504  0.29745182044008106  0.45788895434859006  1.0000
  C   C46       1.0  0.4221462001002367  0.7228765980317109  0.5573834822820772  1.0000
  C   C47       1.0  0.9157797488633155  0.9269008748162127  0.9294120013954627  1.0000
  C   C48       1.0  0.05221625458570861  0.06859595999731033  0.049683867241434095  1.0000
  C   C49       1.0  0.9950801080623889  0.9251941045356777  0.9709226537129326  1.0000
  C   C50       1.0  0.9725764773209207  0.07031168210313875  0.013277184846742798  1.0000
  C   C51       1.0  0.8491055209647416  0.8579857676519965  0.8607825020871829  1.0000
  C   C52       1.0  0.12136933129281148  0.13675964620768616  0.099971129253106  1.0000
  C   C53       1.0  0.1827757863320656  0.19358662249364045  0.1388261414284884  1.0000
  C   C54       1.0  0.7936046553254033  0.7984669193956723  0.7967142527851794  1.0000
  C   C55       1.0  0.37135286085776203  0.4732347549190907  0.5654778685694738  1.0000
  C   C56       1.0  0.6545140857965137  0.35239078873409124  0.41426066756884694  1.0000
  C   C57       1.0  0.5075794481267979  0.35703548457220097  0.5980186380261331  1.0000
  C   C58       1.0  0.34187369715136373  0.6599500969234671  0.4149171928551709  1.0000
  C   C59       1.0  0.2843688354221002  0.41165106851403993  0.42224503508803224  1.0000
  C   C60       1.0  0.7374280806278579  0.43753806006105855  0.55536828297452  1.0000
  C   C61       1.0  0.5396319442199627  0.6368476321385048  0.7757021458894684  1.0000
  C   C62       1.0  0.5829182496441591  0.5034640854024135  0.3780036889733083  1.0000
  C   C63       1.0  0.33463815305014327  0.25635765019904977  0.2299210922537753  1.0000
  C   C64       1.0  0.652733357786673  0.7195248640390518  0.6616682754986699  1.0000
  C   C65       1.0  0.2553337119326358  0.25702313522955933  0.1886358635755201  1.0000
  C   C66       1.0  0.7303264875717306  0.7295524665090413  0.725150783754046  1.0000
  C   C67       1.0  0.21943202918733115  0.3855973443616635  0.21162229037407343  1.0000
  C   C68       1.0  0.7755007953270053  0.6173373076267412  0.7477702054906246  1.0000
  C   C69       1.0  0.9054362928511283  0.3485860884756848  0.3199190021247418  1.0000
  C   C70       1.0  0.12030115798062717  0.3871658049446439  0.6582037555785122  1.0000
  C   C71       1.0  0.7167433148076726  0.5442659200844207  0.1966953604558057  1.0000
  C   C72       1.0  0.502706247718976  0.6978749416133073  0.0545116550426243  1.0000
  C   C73       1.0  0.23952590600458018  0.8763991203315558  0.34531513110515993  1.0000
  C   C74       1.0  0.4559536170680901  0.1501603275703689  0.6886541165515612  1.0000
  C   C75       1.0  0.9945762294158983  0.2287333078938475  0.35532120125481015  1.0000
  C   C76       1.0  0.035586631530364246  0.5141867343783276  0.6222623701966796  1.0000
  N   N1        1.0  0.3509713773199224  0.38003883169039215  0.2762426746710105  1.0000
  N   N2        1.0  0.6510304466495639  0.6009269071660982  0.6289926258365098  1.0000
  N   N3        1.0  0.5921298481348317  0.5578892774354572  0.7163110696540401  1.0000
  N   N4        1.0  0.48431145512406476  0.5337148495663372  0.39351234253224743  1.0000
  N   N5        1.0  0.4700740474558882  0.36021303964984963  0.4756029012164334  1.0000
  N   N6        1.0  0.42593595248025207  0.651253614808404  0.5287004482628532  1.0000
  N   N7        1.0  0.4068116854299149  0.49587205726761147  0.5287034096728362  1.0000
  N   N8        1.0  0.6099704120770326  0.3786241942472729  0.4474324635509461  1.0000
  N   N9        1.0  0.5265596950981006  0.3974047917175981  0.5636417321438998  1.0000
  N   N10       1.0  0.37525191738394176  0.6117004896064986  0.4390797605781743  1.0000
  N   N11       1.0  0.35307180985287806  0.4578456983950192  0.4408056442199709  1.0000
  N   N12       1.0  0.6612165968723787  0.43165260438880193  0.5346208912709685  1.0000
  N   N13       1.0  0.548774766720527  0.606823974479646  0.7073421864157724  1.0000
  N   N14       1.0  0.5297881710703437  0.48659663631653427  0.40023857227150467  1.0000
  N   N15       1.0  0.3904077006198678  0.3294157561087091  0.2824719894075187  1.0000
  N   N16       1.0  0.6055343446877118  0.6430905866663609  0.6056700050870346  1.0000
  O   O1        1.0  0.24835548369419777  0.45864669883923187  0.2594935864032096  1.0000
  O   O2        1.0  0.7501954672912916  0.5465941813621243  0.7265910275933648  1.0000
  O   O3        1.0  0.83176262322376  0.3238255741398747  0.28441861909123395  1.0000
  O   O4        1.0  0.18680738314698433  0.3803068364613227  0.6825986463791268  1.0000
  O   O5        1.0  0.7597201933599608  0.5172310329497237  0.17227262542255065  1.0000
  O   O6        1.0  0.4648936526237435  0.7308075580506641  0.0831682701187049  1.0000
  O   O7        1.0  0.1933928877627338  0.8755821402152081  0.2779174184621027  1.0000
  O   O8        1.0  0.501041794245708  0.15076662656284173  0.7562242456943623  1.0000
  O   O9        1.0  0.9685494505799639  0.21797949373396364  0.2814038829416177  1.0000
  O   O10       1.0  0.07960147332212132  0.5386893989115721  0.7004388489692632  1.0000
  F   F1        1.0  0.9519243235898642  0.2510446806603498  0.5043571196590549  1.0000
  F   F2        1.0  0.07765976701163173  0.48939473363105895  0.47649195791483834  1.0000
  F   F3        1.0  0.6911644686489496  0.5611780984082274  0.04907885058737801  1.0000
  F   F4        1.0  0.5285505172333061  0.6815774715775337  0.2026142184392867  1.0000
  F   F5        1.0  0.2652201955667266  0.03540668347324077  0.37805800708422055  1.0000
  F   F6        1.0  0.4327575712233697  0.9912916987001099  0.6550880419904176  1.0000
  F   F7        1.0  0.8311450094892552  0.003776106072763414  0.9190692641974965  1.0000
  F   F8        1.0  0.13631637812508762  0.9916003086449336  0.06623236278003472  1.0000
  F   F9        1.0  0.3532849341050622  0.24885111108098826  0.37704600417156814  1.0000
  F   F10       1.0  0.464990360064931  0.7739113646226915  0.6427716547895416  1.0000
  F   F11       1.0  0.35768584034402556  0.1947421634776206  0.22360983446552044  1.0000
  F   F12       1.0  0.623067324375967  0.7751310154486293  0.6538848410766108  1.0000
