data_image0
_chemical_formula_structural       Zn4H28C40N12O8
_chemical_formula_sum              "Zn4 H28 C40 N12 O8"
_cell_length_a       9.699941755856754
_cell_length_b       9.730552768467406
_cell_length_c       19.987358341108028
_cell_angle_alpha    99.79419233127261
_cell_angle_beta     104.03177709549797
_cell_angle_gamma    89.99842503346107

_space_group_name_H-M_alt    "P 1"
_space_group_IT_number       1

loop_
  _space_group_symop_operation_xyz
  'x, y, z'

loop_
  _atom_site_type_symbol
  _atom_site_label
  _atom_site_symmetry_multiplicity
  _atom_site_fract_x
  _atom_site_fract_y
  _atom_site_fract_z
  _atom_site_occupancy
  Zn  Zn1       1.0  0.4635736786144662  0.40012011370624384  0.5681875204910725  1.0000
  Zn  Zn2       1.0  0.895438660163066  0.09990167292296802  0.4318047798861856  1.0000
  Zn  Zn3       1.0  0.5364213584429931  0.5998775553950753  0.4318107290951687  1.0000
  Zn  Zn4       1.0  0.1045595920556437  0.9000971578857034  0.5681964405640159  1.0000
  H   H1        1.0  0.49405146020109203  0.5419252859247694  0.7979408001382424  1.0000
  H   H2        1.0  0.696297513781296  0.9578909036611951  0.2018837474064554  1.0000
  H   H3        1.0  0.5059518904102163  0.4580671037334056  0.2020555521589458  1.0000
  H   H4        1.0  0.3037063022507453  0.042114173850116315  0.7981175940661913  1.0000
  H   H5        1.0  0.5417527451564864  0.5260387913940578  0.9245747170493317  1.0000
  H   H6        1.0  0.6172533891141968  0.9741833156902758  0.07535822324182818  1.0000
  H   H7        1.0  0.4582424279199131  0.47396190609353545  0.07542126873796211  1.0000
  H   H8        1.0  0.38275262831455586  0.025823900474051694  0.9246445385269907  1.0000
  H   H9        1.0  0.6832748117360906  0.1074690102988427  0.8792731498302615  1.0000
  H   H10       1.0  0.8039673640372484  0.39276485523342336  0.12081177293188014  1.0000
  H   H11       1.0  0.3167286271393266  0.8925267564326304  0.12072946560765266  1.0000
  H   H12       1.0  0.1960239977792639  0.6072486940326487  0.8791932075387834  1.0000
  H   H13       1.0  0.63950860513998  0.12721699563265085  0.753757172674355  1.0000
  H   H14       1.0  0.8860423289059156  0.3725839811217996  0.24627734914921007  1.0000
  H   H15       1.0  0.3604968543160111  0.8727755274283668  0.2462424435080877  1.0000
  H   H16       1.0  0.11395305440798609  0.6274232243803726  0.75372514390331  1.0000
  H   H17       1.0  0.6566479525958258  0.41031043505063286  0.020581194369995576  1.0000
  H   H18       1.0  0.6355933084473548  0.09002179933875709  0.9794224601939093  1.0000
  H   H19       1.0  0.34335154476750057  0.58969243193782  0.9794169676752915  1.0000
  H   H20       1.0  0.3644084113067266  0.9099843935268126  0.020580714615185465  1.0000
  H   H21       1.0  0.2831627128297995  0.8086543976219505  0.44088288994073827  1.0000
  H   H22       1.0  0.8423711048989587  0.6910074410008847  0.5589090918142645  1.0000
  H   H23       1.0  0.7168345690912828  0.1913464332684853  0.5591163597318101  1.0000
  H   H24       1.0  0.15762498658084206  0.3089902948018591  0.4410907897145933  1.0000
  H   H25       1.0  0.22838597873995065  0.610681897556127  0.6050227949329923  1.0000
  H   H26       1.0  0.6232761154930627  0.8895451219022804  0.395054092805637  1.0000
  H   H27       1.0  0.7716112274837454  0.3893168050181188  0.3949752888205182  1.0000
  H   H28       1.0  0.3767242358127162  0.11045257304112249  0.6049447927234368  1.0000
  C   C1        1.0  0.5428409437249258  0.34353483211027946  0.6926474680943926  1.0000
  C   C2        1.0  0.8504765852801126  0.1562367608705486  0.3073070540582492  1.0000
  C   C3        1.0  0.45716231152524484  0.6564555728087172  0.30735122937656467  1.0000
  C   C4        1.0  0.14952824732557704  0.8437673191840815  0.6926953363975059  1.0000
  C   C5        1.0  0.5643125478785507  0.33534854938642417  0.7681711569472044  1.0000
  C   C6        1.0  0.7964207130925585  0.16448031336977922  0.23178563402019847  1.0000
  C   C7        1.0  0.4356887555399283  0.6646459377401046  0.23182560530719343  1.0000
  C   C8        1.0  0.20358522863880774  0.8355247744783585  0.7682159618295898  1.0000
  C   C9        1.0  0.5355430898738476  0.4473657593628887  0.8164267777067239  1.0000
  C   C10       1.0  0.7193829311941968  0.052542423091836106  0.1834823146922773  1.0000
  C   C11       1.0  0.46445612850310164  0.5526297610739095  0.1835698115453752  1.0000
  C   C12       1.0  0.2806251362364947  0.9474626750931352  0.8165195355346384  1.0000
  C   C13       1.0  0.5615722182511718  0.4374754278115986  0.8870183349220397  1.0000
  C   C14       1.0  0.6747339178159634  0.0626250501790793  0.11292366314292218  1.0000
  C   C15       1.0  0.4384249879725246  0.562523274762647  0.1129797488314708  1.0000
  C   C16       1.0  0.3252730811468468  0.9373800838594737  0.8870790630648032  1.0000
  C   C17       1.0  0.6134290568092238  0.3147255204855385  0.9112164141051977  1.0000
  C   C18       1.0  0.7023147260881328  0.18546838990846484  0.08878037839606627  1.0000
  C   C19       1.0  0.3865705078241675  0.6852795363521055  0.08878441861318008  1.0000
  C   C20       1.0  0.2976849661368631  0.8145397568484614  0.9112196952774311  1.0000
  C   C21       1.0  0.6395264800926553  0.20219192288144683  0.861804462361448  1.0000
  C   C22       1.0  0.7777992084358446  0.2979538053665963  0.1382350961799759  1.0000
  C   C23       1.0  0.3604771354594972  0.7978079158833965  0.1381959706523617  1.0000
  C   C24       1.0  0.22220055105921688  0.7020565312395208  0.8617676481666194  1.0000
  C   C25       1.0  0.6161726173465425  0.2127405358275354  0.7916669331048567  1.0000
  C   C26       1.0  0.8247057859819406  0.2871867841167557  0.20834085908082048  1.0000
  C   C27       1.0  0.3838307598770285  0.7872530000327417  0.20833200849059347  1.0000
  C   C28       1.0  0.17529487373158764  0.7128193830694018  0.7916616869550169  1.0000
  C   C29       1.0  0.6440682839436959  0.30893498970300476  0.9857521896408273  1.0000
  C   C30       1.0  0.658241584969538  0.19136814094580504  0.014259636230143266  1.0000
  C   C31       1.0  0.35593238419715323  0.6910711159501448  0.014248851640949994  1.0000
  C   C32       1.0  0.34175806097944417  0.8086390031860234  0.985741359237899  1.0000
  C   C33       1.0  0.2913561401175783  0.7386097967408889  0.478393168174847  1.0000
  C   C34       1.0  0.8130280981035368  0.7611834884721989  0.5214682222303253  1.0000
  C   C35       1.0  0.7086400354869296  0.2613900058450369  0.5216063745189884  1.0000
  C   C36       1.0  0.186970081226896  0.2388131935092801  0.47853133071615156  1.0000
  C   C37       1.0  0.2649984886388523  0.6364819851984578  0.5612957771534539  1.0000
  C   C38       1.0  0.7036602210402093  0.8636087400393818  0.4387159466977977  1.0000
  C   C39       1.0  0.7349965512277166  0.3635156633918656  0.43870197084810064  1.0000
  C   C40       1.0  0.29634013026556966  0.1363889549040209  0.561282938831269  1.0000
  N   N1        1.0  0.21871467899278224  0.744984090334299  0.528640708779669  1.0000
  N   N2        1.0  0.6900788359987046  0.7550039146609749  0.4713072997557504  1.0000
  N   N3        1.0  0.7812803552555747  0.2550135992780228  0.4713580423912518  1.0000
  N   N4        1.0  0.3099204117996095  0.24499273146691547  0.528691377209924  1.0000
  N   N5        1.0  0.37791641372452023  0.6323106128818383  0.4798766503066645  1.0000
  N   N6        1.0  0.8980923790597686  0.8675000904339858  0.5200052029579467  1.0000
  N   N7        1.0  0.622079726840404  0.3676881050349935  0.520121807842969  1.0000
  N   N8        1.0  0.10190477246058549  0.1324976710481707  0.4799953073441685  1.0000
  N   N9        1.0  0.36121765298334907  0.5670887103109052  0.533263004675149  1.0000
  N   N10       1.0  0.8279485774262838  0.9329159689652687  0.46671798516377555  1.0000
  N   N11       1.0  0.6387773868832268  0.43290893827941795  0.46673474332639847  1.0000
  N   N12       1.0  0.1720506997934024  0.0670818028537283  0.5332827795154742  1.0000
  O   O1        1.0  0.5812816572382856  0.24636881030859578  0.651257517965881  1.0000
  O   O2        1.0  0.930264752174196  0.25340349385334804  0.3487013359392108  1.0000
  O   O3        1.0  0.418722658052438  0.7536216202898204  0.3487418082783336  1.0000
  O   O4        1.0  0.0697379519230594  0.7466005963754514  0.6513013017241037  1.0000
  O   O5        1.0  0.48142135200588854  0.45203252418544804  0.6706090364518859  1.0000
  O   O6        1.0  0.811055976768543  0.047779988879689504  0.3293546508097123  1.0000
  O   O7        1.0  0.518581781270889  0.5479547497922681  0.3293894168945783  1.0000
  O   O8        1.0  0.18894775794789348  0.9522230013374298  0.6706465279132772  1.0000
