data_image0
_chemical_formula_structural       Zn8H60C100N12O32
_chemical_formula_sum              "Zn8 H60 C100 N12 O32"
_cell_length_a       10.691054781232424
_cell_length_b       16.84300485919126
_cell_length_c       18.11410949442055
_cell_angle_alpha    117.70243242618767
_cell_angle_beta     107.19461839194835
_cell_angle_gamma    90.00584606325816

_space_group_name_H-M_alt    "P 1"
_space_group_IT_number       1

loop_
  _space_group_symop_operation_xyz
  'x, y, z'

loop_
  _atom_site_type_symbol
  _atom_site_label
  _atom_site_symmetry_multiplicity
  _atom_site_fract_x
  _atom_site_fract_y
  _atom_site_fract_z
  _atom_site_occupancy
  Zn  Zn1       1.0  0.4217084259818477  0.21068349420094987  0.6475655984966269  1.0000
  Zn  Zn2       1.0  0.39513937000078403  0.5298241666166489  0.15904401201742507  1.0000
  Zn  Zn3       1.0  0.5785724958046216  0.5631027046267719  0.35245795695664145  1.0000
  Zn  Zn4       1.0  0.6051785135077026  0.37074276229660796  0.8410880157314439  1.0000
  Zn  Zn5       1.0  0.2261379880503256  0.7106368318789222  0.6473501264614259  1.0000
  Zn  Zn6       1.0  0.7631789104496319  0.0298527076543138  0.1591749157157452  1.0000
  Zn  Zn7       1.0  0.7735009155691941  0.0631632754082574  0.3524861124521834  1.0000
  Zn  Zn8       1.0  0.2367211859686904  0.8703774667465964  0.8408633041561162  1.0000
  H   H1        1.0  0.24723226615931537  0.5070289319917692  0.6953058977371998  1.0000
  H   H2        1.0  0.27192401982436826  0.6992887992474763  0.9623371033413763  1.0000
  H   H3        1.0  0.3605045988974637  0.43176903482224566  0.9002838830196185  1.0000
  H   H4        1.0  0.03877758169185337  0.996384320895409  0.6392576122177973  1.0000
  H   H5        1.0  0.2408130666933275  0.1449674877644328  0.7529556364773387  1.0000
  H   H6        1.0  0.06425455763891119  0.9805803495135236  0.35924014601030063  1.0000
  H   H7        1.0  0.15790882482655627  0.9945634864518738  0.25591431208548  1.0000
  H   H8        1.0  0.3772505768870786  0.09778359791484799  0.3172118446239979  1.0000
  H   H9        1.0  0.48682327625465394  0.18398843047089744  0.4815081172554586  1.0000
  H   H10       1.0  0.9467723607792566  0.9002217725915287  0.48458883704880434  1.0000
  H   H11       1.0  0.9524932498811153  0.9420830159407599  0.4124746508531417  1.0000
  H   H12       1.0  0.9905889339163847  0.8187376319856483  0.28857091298722554  1.0000
  H   H13       1.0  0.1282009955412136  0.7019289298144856  0.22640083419401713  1.0000
  H   H14       1.0  0.36081012586945593  0.762668272583511  0.4905349568083964  1.0000
  H   H15       1.0  0.22468806982409714  0.87516883725894  0.551852741454532  1.0000
  H   H16       1.0  0.7528730738313736  0.8121647678844043  0.3045993253866897  1.0000
  H   H17       1.0  0.7284837574244134  0.7371278342524902  0.037577345349156174  1.0000
  H   H18       1.0  0.6393116458235681  0.5318463396044137  0.09976291091630435  1.0000
  H   H19       1.0  0.961320500757544  0.3569369789657485  0.3607142082364021  1.0000
  H   H20       1.0  0.7592364467184468  0.3917693566258222  0.24703437525801777  1.0000
  H   H21       1.0  0.93608993205099  0.6209684765175114  0.6407964011082615  1.0000
  H   H22       1.0  0.8422602851302365  0.7378239685717604  0.7443045270211643  1.0000
  H   H23       1.0  0.6229520779360626  0.7798834591668822  0.6832097105089762  1.0000
  H   H24       1.0  0.5136108140564417  0.7024232468612084  0.5188930485632001  1.0000
  H   H25       1.0  0.053335076009084034  0.41546630960873193  0.515469409792445  1.0000
  H   H26       1.0  0.04788442854989231  0.5295232292293052  0.5874936368597476  1.0000
  H   H27       1.0  0.010135402577041933  0.529862743638205  0.7115481734204325  1.0000
  H   H28       1.0  0.8723350698029507  0.47537455930942235  0.7736995405425093  1.0000
  H   H29       1.0  0.638742075300236  0.2726312035980528  0.5095230461761134  1.0000
  H   H30       1.0  0.7749043245482808  0.32372399540742697  0.4481857247254767  1.0000
  H   H31       1.0  0.4488808043845011  0.007351414748896477  0.6955442355152786  1.0000
  H   H32       1.0  0.6907336661057144  0.1998963551875904  0.9627311022045577  1.0000
  H   H33       1.0  0.5408558141034447  0.9321512269700136  0.9005807222469786  1.0000
  H   H34       1.0  0.6001640087434408  0.49612599822835785  0.6391795910405662  1.0000
  H   H35       1.0  0.5117859082484344  0.6446860553541427  0.7527203167317612  1.0000
  H   H36       1.0  0.29455823337338666  0.4801153277712941  0.35892631691303484  1.0000
  H   H37       1.0  0.09741883327566822  0.4939756714039519  0.25549776213454584  1.0000
  H   H38       1.0  0.939606286284402  0.5973552590771403  0.31669876291836385  1.0000
  H   H39       1.0  0.9947292368651756  0.6838728786085965  0.48099821758252403  1.0000
  H   H40       1.0  0.5379196702138598  0.4001944488761141  0.4845443426985981  1.0000
  H   H41       1.0  0.45989183730850414  0.44193041520698273  0.4123397560741183  1.0000
  H   H42       1.0  0.298152558196378  0.31823059789267205  0.28841692989258416  1.0000
  H   H43       1.0  0.09807771349512959  0.20158368555881623  0.2262384933966005  1.0000
  H   H44       1.0  0.1293900272896664  0.26275175869973566  0.49037207633689667  1.0000
  H   H45       1.0  0.32704238543051634  0.3752143442152659  0.5517502127358187  1.0000
  H   H46       1.0  0.5510295510219123  0.3120245665702512  0.3042537493991731  1.0000
  H   H47       1.0  0.30851515416959774  0.23691188043134298  0.03709665014591931  1.0000
  H   H48       1.0  0.4593464570430184  0.03165413213076819  0.0995102587459229  1.0000
  H   H49       1.0  0.3991499143158777  0.8569574890299306  0.36107208836509863  1.0000
  H   H50       1.0  0.48719470295989  0.8915332198521283  0.24719823801195434  1.0000
  H   H51       1.0  0.7050889736997235  0.12127191065775378  0.6408923680804791  1.0000
  H   H52       1.0  0.9023026343189711  0.23846800024504222  0.7442016369139709  1.0000
  H   H53       1.0  0.060229576045337296  0.28041518064765103  0.682930383017009  1.0000
  H   H54       1.0  0.004930533653045208  0.20259404973955245  0.5185965949346213  1.0000
  H   H55       1.0  0.46220669089881733  0.9158105762255673  0.5159273101175476  1.0000
  H   H56       1.0  0.5402046374680365  0.0297787834168659  0.5878223053046412  1.0000
  H   H57       1.0  0.701915293194176  0.029679222923093107  0.7118879618318774  1.0000
  H   H58       1.0  0.9016662731383606  0.9748801144742602  0.7738529069163322  1.0000
  H   H59       1.0  0.8707292423271296  0.7726615805864795  0.5095343873580163  1.0000
  H   H60       1.0  0.673329106571245  0.8239758979393699  0.4483483308238406  1.0000
  C   C1        1.0  0.26601830590914227  0.5238214363512769  0.7637630542250452  1.0000
  C   C2        1.0  0.2534791284107314  0.61021085769665  0.8253031162824628  1.0000
  C   C3        1.0  0.27939500225320296  0.6317190755969262  0.913717871531212  1.0000
  C   C4        1.0  0.3149910782797178  0.566613058211381  0.9399210261759737  1.0000
  C   C5        1.0  0.3301157105136453  0.4810912397000068  0.8783732097554877  1.0000
  C   C6        1.0  0.3069955907504038  0.4597939874206745  0.7906351136143004  1.0000
  C   C7        1.0  0.3420032332229966  0.5880792614394535  0.03438944024539141  1.0000
  C   C8        1.0  0.3254878870243658  0.3695468913507087  0.7256227383262586  1.0000
  C   C9        1.0  0.2184596216347073  0.6803151726320494  0.7972958520527559  1.0000
  C   C10       1.0  0.1044142757161026  0.03320249855328686  0.625887276941697  1.0000
  C   C11       1.0  0.20455551078540413  0.10697772195299393  0.6812326121492094  1.0000
  C   C12       1.0  0.19189820966070664  0.06750153590606796  0.545541812095543  1.0000
  C   C13       1.0  0.23103695781967554  0.0701112251182536  0.47580628870664304  1.0000
  C   C14       1.0  0.16043847153812146  0.02217786670241396  0.38495068613715944  1.0000
  C   C15       1.0  0.21277206299918558  0.030953128660520687  0.3266736947652334  1.0000
  C   C16       1.0  0.33285492217267876  0.0879848807706196  0.3598018893795256  1.0000
  C   C17       1.0  0.39544096906012527  0.13592156685683682  0.45106704962668  1.0000
  C   C18       1.0  0.014439282766545674  0.9258903686716592  0.46230228578801313  1.0000
  C   C19       1.0  0.09787461336194535  0.8553415969044665  0.4241497586105967  1.0000
  C   C20       1.0  0.07161588226681916  0.8059111183571515  0.33261708472499424  1.0000
  C   C21       1.0  0.1481750985826054  0.7405921839233542  0.2975503883185554  1.0000
  C   C22       1.0  0.2538530140078095  0.7248025888727908  0.3541114490139068  1.0000
  C   C23       1.0  0.28041671959221764  0.7746206887368032  0.4456395343776693  1.0000
  C   C24       1.0  0.20264719270245724  0.8387972597819201  0.4803873393889193  1.0000
  C   C25       1.0  0.3364227366885189  0.65477870941249  0.3168127301441644  1.0000
  C   C26       1.0  0.7339978758328556  0.7603882794574872  0.23616821143702554  1.0000
  C   C27       1.0  0.7466294730686942  0.7851556260894056  0.17458594580092082  1.0000
  C   C28       1.0  0.7208347736573656  0.7182227802110646  0.08619391364894824  1.0000
  C   C29       1.0  0.6851749619089276  0.6269275959740952  0.06004195065060011  1.0000
  C   C30       1.0  0.6698471796246536  0.6030493508465115  0.12161796583518486  1.0000
  C   C31       1.0  0.6929157796101039  0.6695177668557478  0.20933916092318597  1.0000
  C   C32       1.0  0.6583913245776927  0.5538222842060208  0.9656231273257775  1.0000
  C   C33       1.0  0.6745608596882917  0.6443401451903127  0.2744423967390831  1.0000
  C   C34       1.0  0.7814897424865206  0.8832536839151643  0.20256220621513418  1.0000
  C   C35       1.0  0.8957465906541909  0.40717260427477703  0.37409763534116547  1.0000
  C   C36       1.0  0.795571373730503  0.42559045386620636  0.31876432020047935  1.0000
  C   C37       1.0  0.8085130697323065  0.5219571691626186  0.4544692798179428  1.0000
  C   C38       1.0  0.76946117881662  0.5942677720005918  0.5242588063274101  1.0000
  C   C39       1.0  0.8399858986798775  0.6369424742924821  0.6151118488299121  1.0000
  C   C40       1.0  0.7875910547099918  0.7037668419553781  0.6735184784495731  1.0000
  C   C41       1.0  0.6675107374450562  0.7277380717593755  0.6404987601854162  1.0000
  C   C42       1.0  0.6050552023102043  0.6847393311637902  0.5492107294230026  1.0000
  C   C43       1.0  0.9857839272937879  0.4635314220759952  0.5377168610962288  1.0000
  C   C44       1.0  0.9022461945259009  0.4312606627917718  0.5759134151067118  1.0000
  C   C45       1.0  0.9288047346052577  0.47321224521547833  0.667466644904984  1.0000
  C   C46       1.0  0.852192714000374  0.4430360434644314  0.7025500646636048  1.0000
  C   C47       1.0  0.7462104298707857  0.3708984063158099  0.6459960427032245  1.0000
  C   C48       1.0  0.7193587090087091  0.32933195586736014  0.5544520863475598  1.0000
  C   C49       1.0  0.7971348793242398  0.3587089834935924  0.5196701571986324  1.0000
  C   C50       1.0  0.6636445443227571  0.3381615326890781  0.6832977550474697  1.0000
  C   C51       1.0  0.49840971201479084  0.024146572367982445  0.7640203938942921  1.0000
  C   C52       1.0  0.5724597491072457  0.11061118198232835  0.8255975297263236  1.0000
  C   C53       1.0  0.6347415305203227  0.13225557246981615  0.9140830053050524  1.0000
  C   C54       1.0  0.6253956051204951  0.06713470584350746  0.9402652205696003  1.0000
  C   C55       1.0  0.5489459631897021  0.9814844213320841  0.8786317267276407  1.0000
  C   C56       1.0  0.48425662349445286  0.9601110515470451  0.7908765603879291  1.0000
  C   C57       1.0  0.6926448574957789  0.08859821648871957  0.034777470877685276  1.0000
  C   C58       1.0  0.40083322194500676  0.8697598996234036  0.7257650084906333  1.0000
  C   C59       1.0  0.5796866891947231  0.18067784486346725  0.7975755085395734  1.0000
  C   C60       1.0  0.5212537334254391  0.532991327611498  0.625752080362233  1.0000
  C   C61       1.0  0.47644850615698436  0.6067467760171183  0.6810047652690374  1.0000
  C   C62       1.0  0.3536581878793114  0.5673691976427976  0.5452450829623603  1.0000
  C   C63       1.0  0.24472402507836216  0.5699528388547962  0.4754650743337054  1.0000
  C   C64       1.0  0.22423298707185066  0.521825395507804  0.384609933287834  1.0000
  C   C65       1.0  0.1135618956001068  0.530532398253861  0.3262669579589785  1.0000
  C   C66       1.0  0.026679151614409598  0.5876131208866155  0.3593272690841547  1.0000
  C   C67       1.0  0.05561713317973016  0.6357700217192958  0.45060686680797374  1.0000
  C   C68       1.0  0.4478532775810962  0.42574925710269446  0.46217891014626405  1.0000
  C   C69       1.0  0.3262714753696088  0.3551168150754265  0.42401379800981703  1.0000
  C   C70       1.0  0.26103122737855233  0.30554957927068227  0.33246917918621943  1.0000
  C   C71       1.0  0.1492393075172487  0.24030671865805428  0.29739519098824024  1.0000
  C   C72       1.0  0.1000057073414808  0.22468681589541012  0.3539625505106444  1.0000
  C   C73       1.0  0.1650025433559675  0.2745954613696071  0.44549194296896394  1.0000
  C   C74       1.0  0.2776230873108858  0.33875528349476974  0.48026905612634624  1.0000
  C   C75       1.0  0.9799959559816003  0.15473990636102292  0.31671443992170384  1.0000
  C   C76       1.0  0.5013966054720953  0.2602069199738892  0.23584058869406024  1.0000
  C   C77       1.0  0.42718431749350566  0.2849742915821735  0.17422220634731647  1.0000
  C   C78       1.0  0.3647582360000214  0.2180481450872875  0.08577838093600587  1.0000
  C   C79       1.0  0.3742831598881012  0.1267721104873445  0.05967160539346142  1.0000
  C   C80       1.0  0.4509265003709118  0.10287473263923629  0.12134697707654142  1.0000
  C   C81       1.0  0.515579339688763  0.16935269741416903  0.20908687248037697  1.0000
  C   C82       1.0  0.3070645566922535  0.05363908868288561  0.9652041058389501  1.0000
  C   C83       1.0  0.599143384578305  0.14432286669154584  0.2743357206396766  1.0000
  C   C84       1.0  0.4202682052199619  0.38309731457359664  0.2022668297948727  1.0000
  C   C85       1.0  0.4781463984727453  0.9071387389034697  0.3743660365288479  1.0000
  C   C86       1.0  0.5227807429639526  0.9254675496504206  0.3189375406462959  1.0000
  C   C87       1.0  0.6459170701836285  0.02193215288045992  0.45457475315264173  1.0000
  C   C88       1.0  0.7548656603000339  0.09432293923671857  0.5242630024729992  1.0000
  C   C89       1.0  0.7753995407627627  0.13718903120544473  0.6151340918174741  1.0000
  C   C90       1.0  0.8861477319218024  0.20419324350792317  0.6734213106334155  1.0000
  C   C91       1.0  0.9730593155761369  0.22809954873770993  0.6403019142628282  1.0000
  C   C92       1.0  0.9440137195135845  0.1849228856638234  0.5490046699520406  1.0000
  C   C93       1.0  0.5521819646665945  0.9637112421014533  0.5380315598084523  1.0000
  C   C94       1.0  0.6739082248945535  0.931303635738189  0.576150513210472  1.0000
  C   C95       1.0  0.7390228516695599  0.9730542368567968  0.6677119794078481  1.0000
  C   C96       1.0  0.8506964344608791  0.9427307443160018  0.7026913750496323  1.0000
  C   C97       1.0  0.9000395699730459  0.8706928563185699  0.6460483328703291  1.0000
  C   C98       1.0  0.8351937398186495  0.8293268995716477  0.5545182964362427  1.0000
  C   C99       1.0  0.7226517673661945  0.8588175118842898  0.5198340982400965  1.0000
  C   C100      1.0  0.019986585862007196  0.8379136237347852  0.6832366050168164  1.0000
  N   N1        1.0  0.0966360505445607  0.00886966250480741  0.5404880627887894  1.0000
  N   N2        1.0  0.2570634239294023  0.12730033380306344  0.6306267258533824  1.0000
  N   N3        1.0  0.34683062992388614  0.12717049396034943  0.507663373770825  1.0000
  N   N4        1.0  0.9036565125452751  0.46831641880692837  0.45950485433365174  1.0000
  N   N5        1.0  0.743240564805923  0.49663751976682147  0.3693871318551418  1.0000
  N   N6        1.0  0.6537212141942065  0.6195679390585127  0.4924845807702099  1.0000
  N   N7        1.0  0.4437899547828295  0.508716207555132  0.5403082538007242  1.0000
  N   N8        1.0  0.3735327720065057  0.6271505989797818  0.6303037030141783  1.0000
  N   N9        1.0  0.16089807449968424  0.6270847933283862  0.5072728002410261  1.0000
  N   N10       1.0  0.5558575774775251  0.9683580125201486  0.45973588878927535  1.0000
  N   N11       1.0  0.6258884899263109  0.9964864507436885  0.36945318687923406  1.0000
  N   N12       1.0  0.8386496892065977  0.11959970886635317  0.4923888227177288  1.0000
  O   O1        1.0  0.3544605562094033  0.515561338646677  0.04377453481696142  1.0000
  O   O2        1.0  0.3522427506706478  0.6667233812823596  0.09443707248540538  1.0000
  O   O3        1.0  0.2607292463986113  0.33335193333431334  0.6451847218670184  1.0000
  O   O4        1.0  0.41278921140855834  0.32789821801508623  0.7569956309400256  1.0000
  O   O5        1.0  0.16960019134526758  0.6535478041169898  0.7140926843380486  1.0000
  O   O6        1.0  0.24107810508471778  0.7624772310611264  0.8585348755779879  1.0000
  O   O7        1.0  0.44253161242001937  0.6524265188115308  0.37059195806359935  1.0000
  O   O8        1.0  0.2925521919648517  0.6025402956099981  0.23320278508137451  1.0000
  O   O9        1.0  0.6459194060489111  0.47193469831596274  0.9562937699707991  1.0000
  O   O10       1.0  0.6483977042147301  0.5723431761769789  0.9055539455758324  1.0000
  O   O11       1.0  0.7393550234453912  0.6886751178251203  0.35486156440154565  1.0000
  O   O12       1.0  0.5874544878750853  0.5712209525997167  0.2431433345406193  1.0000
  O   O13       1.0  0.8304683557707192  0.9396651165867311  0.28578582763437776  1.0000
  O   O14       1.0  0.758662365776239  0.9042340835416313  0.14136845955139438  1.0000
  O   O15       1.0  0.557403197653393  0.28216318136919954  0.6295358766385207  1.0000
  O   O16       1.0  0.7076865436890145  0.3693687022176136  0.7668790111172614  1.0000
  O   O17       1.0  0.6890803494535261  0.01604027219647718  0.04407470104566609  1.0000
  O   O18       1.0  0.7427075650557383  0.1671959935096936  0.09487461117718961  1.0000
  O   O19       1.0  0.3849790855366918  0.8337039444614547  0.6453345238238627  1.0000
  O   O20       1.0  0.34501987575510634  0.8278916203919165  0.7569926304151766  1.0000
  O   O21       1.0  0.5453657053651072  0.15384503151732085  0.7143551111536512  1.0000
  O   O22       1.0  0.6185341275941949  0.26283917153152453  0.8587843447149199  1.0000
  O   O23       1.0  0.9276019025150287  0.1525639402623753  0.37049122140638974  1.0000
  O   O24       1.0  0.9402652875862499  0.10232414965148  0.23313722095793576  1.0000
  O   O25       1.0  0.31055817256024915  0.9718016815184711  0.9559527708238992  1.0000
  O   O26       1.0  0.2570835234893138  0.0720699676656552  0.9050545711160327  1.0000
  O   O27       1.0  0.6149150920920975  0.18876538276921204  0.354746154484964  1.0000
  O   O28       1.0  0.6550209805322637  0.071250211232929  0.24316999827095742  1.0000
  O   O29       1.0  0.45481399284665247  0.4394504057311792  0.28550810756319583  1.0000
  O   O30       1.0  0.38151767624145083  0.4041045403431625  0.14109552839281048  1.0000
  O   O31       1.0  0.07241505350653205  0.7820504945331167  0.6293904791292493  1.0000
  O   O32       1.0  0.059698965937599394  0.8689210452771975  0.7667771307883702  1.0000
