data_image0
_chemical_formula_structural       Cd2H20C12N4O10
_chemical_formula_sum              "Cd2 H20 C12 N4 O10"
_cell_length_a       7.319961397037027
_cell_length_b       7.733895415728752
_cell_length_c       9.664141795696684
_cell_angle_alpha    113.57292096151413
_cell_angle_beta     112.26391687908358
_cell_angle_gamma    90.00878598140399

_space_group_name_H-M_alt    "P 1"
_space_group_IT_number       1

loop_
  _space_group_symop_operation_xyz
  'x, y, z'

loop_
  _atom_site_type_symbol
  _atom_site_label
  _atom_site_symmetry_multiplicity
  _atom_site_fract_x
  _atom_site_fract_y
  _atom_site_fract_z
  _atom_site_occupancy
  Cd  Cd1       1.0  0.8105212292680476  0.19386172422240827  0.387574430236796  1.0000
  Cd  Cd2       1.0  0.4228450439786399  0.8060986854660898  0.6123873304859939  1.0000
  H   H1        1.0  0.6147581932246878  0.8841662849704689  0.0001622987388853767  1.0000
  H   H2        1.0  0.6147371032579798  0.11601717892823873  0.9999486237993405  1.0000
  H   H3        1.0  0.15085587802235517  0.9741229275575023  0.259803931536318  1.0000
  H   H4        1.0  0.8909582824635437  0.0259272073998034  0.7402482595532687  1.0000
  H   H5        1.0  0.8910326144622547  0.7139502294898749  0.7406617941825498  1.0000
  H   H6        1.0  0.150767722494173  0.2860166905906496  0.25938868554884914  1.0000
  H   H7        1.0  0.922664225891701  0.8032112757556432  0.14929828122269828  1.0000
  H   H8        1.0  0.773449634286912  0.1968836689767173  0.8507829798891816  1.0000
  H   H9        1.0  0.7735525129592273  0.6539671877265151  0.8514283074204269  1.0000
  H   H10       1.0  0.922537787699703  0.3461578232798176  0.14868703691431048  1.0000
  H   H11       1.0  0.1975170674603106  0.9445287627519863  0.8894324059874631  1.0000
  H   H12       1.0  0.3081674089828397  0.05536002542487489  0.11053268410563526  1.0000
  H   H13       1.0  0.06325382666747709  0.39294303455463353  0.7863936081301046  1.0000
  H   H14       1.0  0.2767863297493349  0.6069315158793244  0.2135062288307167  1.0000
  H   H15       1.0  0.3321590042560061  0.44309119280362114  0.8864528568790317  1.0000
  H   H16       1.0  0.44564654498005046  0.5568945906684988  0.11354882756948106  1.0000
  H   H17       1.0  0.6012627916889173  0.1708871083323658  0.552001856969916  1.0000
  H   H18       1.0  0.049078663804245116  0.8290736890293432  0.4478941167911897  1.0000
  H   H19       1.0  0.0490311243121724  0.6187303803599775  0.44800585093181405  1.0000
  H   H20       1.0  0.6011486975927626  0.38119165391938026  0.5518921096772329  1.0000
  C   C1        1.0  0.7009751722831723  7.092013396460012e-05  5.288969384755377e-05  1.0000
  C   C2        1.0  0.009455784711533952  0.9176495313628407  0.14774193548708317  1.0000
  C   C3        1.0  0.8617168932635335  0.08241139697030057  0.8523265726237451  1.0000
  C   C4        1.0  0.8618053211783591  0.769828925216501  0.8527550736127689  1.0000
  C   C5        1.0  0.009352600744307377  0.23023052681466538  0.1473357050202678  1.0000
  C   C6        1.0  0.16516252749667606  0.9999750373731049  0.9999981144086189  1.0000
  C   C7        1.0  0.20256374671087937  0.3835227729943682  0.7673265179487243  1.0000
  C   C8        1.0  0.43519014307062776  0.6164362222708631  0.23266285671466116  1.0000
  C   C9        1.0  0.20524637283431701  0.5034260358644076  0.6754200951881157  1.0000
  C   C10       1.0  0.5297799875769159  0.4965040119479908  0.3245587236710462  1.0000
  C   C11       1.0  0.5300949147069647  0.8281574314101052  0.3246619212430557  1.0000
  C   C12       1.0  0.2053961351897655  0.1718286987356947  0.6752796499366766  1.0000
  N   N1        1.0  0.8914933295840939  0.07625479633968271  0.15213949194920656  1.0000
  N   N2        1.0  0.739258832558484  0.9238431486039573  0.8479323648606606  1.0000
  N   N3        1.0  0.05183839223700204  0.8423386190179373  0.00021796347002117544  1.0000
  N   N4        1.0  0.05173647686271471  0.15766278032526773  0.9998184646848852  1.0000
  O   O1        1.0  0.05516091531234927  0.46886162631854933  0.5384247148117891  1.0000
  O   O2        1.0  0.5166654801981493  0.5310587465540664  0.46152209928116844  1.0000
  O   O3        1.0  0.5170924154475217  0.9305404344188234  0.46166007755446953  1.0000
  O   O4        1.0  0.055384488425048096  0.0694690096930799  0.5382690155054134  1.0000
  O   O5        1.0  0.35538851956114564  0.6353712853524625  0.7426428984686734  1.0000
  O   O6        1.0  0.612776591384737  0.3646521001695858  0.25738717541775447  1.0000
  O   O7        1.0  0.6131349688885451  0.8928003483396622  0.2574732952177994  1.0000
  O   O8        1.0  0.35568616957245064  0.10716157769098801  0.742472491553492  1.0000
  O   O9        1.0  0.6862820997863749  0.2973297963680395  0.5944500422921093  1.0000
  O   O10       1.0  0.0915551348797408  0.7026102714407898  0.40544341098679115  1.0000
