data_image0
_chemical_formula_structural       Cd2H24C20O16
_chemical_formula_sum              "Cd2 H24 C20 O16"
_cell_length_a       5.387564987509664
_cell_length_b       6.5150428134145715
_cell_length_c       18.184894119086813
_cell_angle_alpha    93.71483365061707
_cell_angle_beta     89.97873293730693
_cell_angle_gamma    114.44425482698513

_space_group_name_H-M_alt    "P 1"
_space_group_IT_number       1

loop_
  _space_group_symop_operation_xyz
  'x, y, z'

loop_
  _atom_site_type_symbol
  _atom_site_label
  _atom_site_symmetry_multiplicity
  _atom_site_fract_x
  _atom_site_fract_y
  _atom_site_fract_z
  _atom_site_occupancy
  Cd  Cd1       1.0  0.8089078577005325  0.9998428162788856  0.2499862631656811  1.0000
  Cd  Cd2       1.0  0.1910973766807444  0.00015357872555200476  0.7500114970064402  1.0000
  H   H1        1.0  0.930289135550872  0.6431279204775322  0.3045506736784774  1.0000
  H   H2        1.0  0.287022478634448  0.35671234425782916  0.19542820074066472  1.0000
  H   H3        1.0  0.06969022975940224  0.3568649989419583  0.6954486369391688  1.0000
  H   H4        1.0  0.7129826791580244  0.6433024563494243  0.8045733943464057  1.0000
  H   H5        1.0  0.17186923487903263  0.8905240527586712  0.33130657567189564  1.0000
  H   H6        1.0  0.2811855763580837  0.10934472719293349  0.1686416929460464  1.0000
  H   H7        1.0  0.8281290557211207  0.10946217123788668  0.6686914392863912  1.0000
  H   H8        1.0  0.718834203558778  0.890673333450806  0.831362196046122  1.0000
  H   H9        1.0  0.6393277832843084  0.5325911916894198  0.41114549993015004  1.0000
  H   H10       1.0  0.10645376054758056  0.4672829290072896  0.08884791381576923  1.0000
  H   H11       1.0  0.3606812885462389  0.46740544818915464  0.5888478671673668  1.0000
  H   H12       1.0  0.893554145673022  0.5327336535319561  0.9111520829142777  1.0000
  H   H13       1.0  0.4264252948322707  0.49825579301913336  0.3322465899447948  1.0000
  H   H14       1.0  0.9276333253797231  0.5012777631039211  0.16776621094596322  1.0000
  H   H15       1.0  0.5735684066742904  0.5017286792771785  0.6677524743568739  1.0000
  H   H16       1.0  0.07237549666146488  0.4987183882344721  0.8322359419145755  1.0000
  H   H17       1.0  0.834918625154991  0.08238816441280508  0.4945001242940777  1.0000
  H   H18       1.0  0.7529732581127032  0.9176396574808617  0.0055451234501476005  1.0000
  H   H19       1.0  0.16509766883088858  0.917608079734968  0.5055003808496964  1.0000
  H   H20       1.0  0.24702648088267407  0.0823717319312252  0.9944569228000193  1.0000
  H   H21       1.0  0.39562152205138557  0.7341099727489251  0.4273351972326509  1.0000
  H   H22       1.0  0.6609351903133315  0.2658054689667964  0.07265608354062891  1.0000
  H   H23       1.0  0.6044009423759107  0.26589118942013096  0.5726682004792494  1.0000
  H   H24       1.0  0.33904675169489445  0.7341888965133092  0.9273476689320789  1.0000
  C   C1        1.0  0.6039942190180553  0.2615336619559868  0.3346531476402532  1.0000
  C   C2        1.0  0.3419984536646652  0.7382998708408905  0.16539757580467557  1.0000
  C   C3        1.0  0.39599185098074235  0.7384578129130047  0.6653417206395817  1.0000
  C   C4        1.0  0.6580087321352792  0.2617152659397632  0.8345979789737613  1.0000
  C   C5        1.0  0.47982162009601137  0.4063671127804511  0.3739466936209865  1.0000
  C   C6        1.0  0.07299303647612011  0.5933766009366008  0.1261022789714303  1.0000
  C   C7        1.0  0.5201718030363479  0.593627926254534  0.6260449778482597  1.0000
  C   C8        1.0  0.9270191729099578  0.40663002614323307  0.8738941281941592  1.0000
  C   C9        1.0  0.13067909987260154  0.3930576330790103  0.4554483467903268  1.0000
  C   C10       1.0  0.7375196546513082  0.6068501900843302  0.0445952000067678  1.0000
  C   C11       1.0  0.8693412223492845  0.6069318216283648  0.5445525107970469  1.0000
  C   C12       1.0  0.2624831987338538  0.3931488820969235  0.9554152880330024  1.0000
  C   C13       1.0  0.9067693827488837  0.26551518595080376  0.4966448689770218  1.0000
  C   C14       1.0  0.6414385121782046  0.7345014759102072  0.0033957061826513112  1.0000
  C   C15       1.0  0.09325922697971127  0.7344945487987289  0.5033565775480542  1.0000
  C   C16       1.0  0.358531959402633  0.26548108899681466  0.9966071539788431  1.0000
  C   C17       1.0  0.2236145235920617  0.6289668128487093  0.45891197788692045  1.0000
  C   C18       1.0  0.5942621849492297  0.37098427206976226  0.041091681851796104  1.0000
  C   C19       1.0  0.7763958954087896  0.3710325353444828  0.5410935677749436  1.0000
  C   C20       1.0  0.40571912569615176  0.6290236734992333  0.958911365347504  1.0000
  O   O1        1.0  0.8111934866604855  0.3638626733643235  0.29576782436011234  1.0000
  O   O2        1.0  0.44687957032335385  0.6361465155140066  0.20430384617769456  1.0000
  O   O3        1.0  0.18878638167322487  0.636123822415854  0.7042252495719695  1.0000
  O   O4        1.0  0.5531309499024175  0.3638752897800899  0.795693552211695  1.0000
  O   O5        1.0  0.506910627243542  0.04863800298898719  0.3390811611036355  1.0000
  O   O6        1.0  0.4578935375500918  0.9511688441544947  0.16095561944594292  1.0000
  O   O7        1.0  0.49309443196283104  0.9513654568637405  0.6609113044400844  1.0000
  O   O8        1.0  0.542106673245051  0.0488360605507552  0.8390412883390399  1.0000
  O   O9        1.0  0.2464352225260171  0.2735786340828597  0.413287487664185  1.0000
  O   O10       1.0  0.9725830592778522  0.7261856311471604  0.08681503035736432  1.0000
  O   O11       1.0  0.7535723040954636  0.7264260580941622  0.5867132635059207  1.0000
  O   O12       1.0  0.027391701326998013  0.27380550603831466  0.9131858787138541  1.0000
  O   O13       1.0  0.9766389544494698  0.8080943623080398  0.315153802668064  1.0000
  O   O14       1.0  0.16836073439773  0.19180695349024282  0.18473689974641164  1.0000
  O   O15       1.0  0.023347742298973597  0.19189837511697047  0.6848488022245223  1.0000
  O   O16       1.0  0.8316580753091215  0.8082091728547238  0.8152713330571687  1.0000
