data_image0
_chemical_formula_structural       Cu4H16C20Br8N4
_chemical_formula_sum              "Cu4 H16 C20 Br8 N4"
_cell_length_a       3.8592742124162536
_cell_length_b       8.666192833909921
_cell_length_c       21.0129960170223
_cell_angle_alpha    100.86612957016534
_cell_angle_beta     90.00047860818296
_cell_angle_gamma    90.00142620390616

_space_group_name_H-M_alt    "P 1"
_space_group_IT_number       1

loop_
  _space_group_symop_operation_xyz
  'x, y, z'

loop_
  _atom_site_type_symbol
  _atom_site_label
  _atom_site_symmetry_multiplicity
  _atom_site_fract_x
  _atom_site_fract_y
  _atom_site_fract_z
  _atom_site_occupancy
  Cu  Cu1       1.0  0.1142034278007671  0.8132739206850773  0.7908942732342297  1.0000
  Cu  Cu2       1.0  0.6141935459814005  0.6867216435964495  0.7091102121359186  1.0000
  Cu  Cu3       1.0  0.8858272065493435  0.18673190117755212  0.2091035365216101  1.0000
  Cu  Cu4       1.0  0.3858319056457944  0.3132689086570295  0.2908873756048251  1.0000
  H   H1        1.0  0.19006296283087204  0.4087978390105818  0.8218574498016622  1.0000
  H   H2        1.0  0.6900438971361068  0.0911918392089248  0.6781377351255884  1.0000
  H   H3        1.0  0.8099573070762532  0.5912115280216313  0.1781444396485057  1.0000
  H   H4        1.0  0.30991159299631477  0.9087905030150337  0.3218620768308824  1.0000
  H   H5        1.0  0.8236445192921878  0.9596899433071328  0.9184711703748506  1.0000
  H   H6        1.0  0.3236006399773145  0.5403118714328413  0.5815369206146316  1.0000
  H   H7        1.0  0.17639647954963777  0.04031000629491641  0.0815266638721255  1.0000
  H   H8        1.0  0.6763989003607803  0.45968692324383653  0.4184646320007843  1.0000
  H   H9        1.0  0.918636916206367  0.46285531824024423  0.9317882150643797  1.0000
  H   H10       1.0  0.41863362383514147  0.03714904509218541  0.5682041100915072  1.0000
  H   H11       1.0  0.0813444860941033  0.5371493359489959  0.06821093258955097  1.0000
  H   H12       1.0  0.5813166843643527  0.9628485641343048  0.43179544777594  1.0000
  H   H13       1.0  0.25918115386500057  0.12802922824891994  0.7644301482245979  1.0000
  H   H14       1.0  0.7591330403138554  0.3719590451325345  0.7355745356612857  1.0000
  H   H15       1.0  0.7408728012107132  0.8719824914876925  0.2355723980015156  1.0000
  H   H16       1.0  0.2408328145527889  0.6280256521844478  0.2644264091368029  1.0000
  C   C1        1.0  0.10309132838689548  0.3118723333439278  0.8443123811430767  1.0000
  C   C2        1.0  0.6030657259629207  0.18812445678547363  0.6556856179473769  1.0000
  C   C3        1.0  0.8969315326227729  0.6881358536525325  0.1556884658028608  1.0000
  C   C4        1.0  0.3968949467611084  0.8118684551538848  0.3443140547338004  1.0000
  C   C5        1.0  0.9017183228230295  0.061799239581560486  0.898548264791522  1.0000
  C   C6        1.0  0.401688337133386  0.4382014457308117  0.6014561291420435  1.0000
  C   C7        1.0  0.09831231156521618  0.9382065898996929  0.10145097324120658  1.0000
  C   C8        1.0  0.5982982472112184  0.5617914689157503  0.3985440196610028  1.0000
  C   C9        1.0  0.8548154045111005  0.21442656912781638  0.9329146728008909  1.0000
  C   C10       1.0  0.3548145554628803  0.2855793588420141  0.5670853047805124  1.0000
  C   C11       1.0  0.1451919093061633  0.785575730203135  0.06708334205283248  1.0000
  C   C12       1.0  0.6451668467698254  0.714420608151194  0.4329158620445028  1.0000
  C   C13       1.0  0.9539350896859486  0.34263973334932984  0.9058915753897665  1.0000
  C   C14       1.0  0.45392126131480376  0.15736157704975542  0.5941034159228664  1.0000
  C   C15       1.0  0.046067041913524086  0.6573649235135975  0.09410804838012149  1.0000
  C   C16       1.0  0.5460368203087924  0.8426348521745199  0.40589509944626206  1.0000
  C   C17       1.0  0.1447342070478683  0.1571510128760139  0.8126184915934687  1.0000
  C   C18       1.0  0.6446975727411227  0.34284399663869897  0.6873851350139617  1.0000
  C   C19       1.0  0.8553093832936297  0.8428583517675605  0.1873829217910199  1.0000
  C   C20       1.0  0.3552734646567756  0.6571477530919978  0.3126168278179193  1.0000
  Br  Br1       1.0  0.6035205628536956  0.6666838861011328  0.8265269987291505  1.0000
  Br  Br2       1.0  0.10352524617270119  0.8333150700197579  0.6734786854219125  1.0000
  Br  Br3       1.0  0.396499706936936  0.33332312082603716  0.1734728057066448  1.0000
  Br  Br4       1.0  0.8964898410591572  0.1666825421654607  0.3265213486117631  1.0000
  Br  Br5       1.0  0.6649583039837025  0.24600842987086227  0.018019289665630805  1.0000
  Br  Br6       1.0  0.1649597181148081  0.254011873956749  0.4819780713763535  1.0000
  Br  Br7       1.0  0.3350438274537382  0.75399268937403  0.9819776826749872  1.0000
  Br  Br8       1.0  0.8350087283997425  0.745991615333395  0.5180228903093749  1.0000
  N   N1        1.0  0.04544878826353481  0.03350309518939551  0.8389807715024347  1.0000
  N   N2        1.0  0.5454119759976024  0.46649416956100953  0.6610257559660155  1.0000
  N   N3        1.0  0.9545922107678562  0.9665027343589262  0.1610184665421173  1.0000
  N   N4        1.0  0.45457719950037756  0.5334975752079671  0.3389752547019853  1.0000
