data_image0
_chemical_formula_structural       Cd2H24C32N4O16
_chemical_formula_sum              "Cd2 H24 C32 N4 O16"
_cell_length_a       7.813982998035264
_cell_length_b       7.9074457009391015
_cell_length_c       14.441816255264607
_cell_angle_alpha    102.98942066797515
_cell_angle_beta     90.0003440872657
_cell_angle_gamma    89.99991036183583

_space_group_name_H-M_alt    "P 1"
_space_group_IT_number       1

loop_
  _space_group_symop_operation_xyz
  'x, y, z'

loop_
  _atom_site_type_symbol
  _atom_site_label
  _atom_site_symmetry_multiplicity
  _atom_site_fract_x
  _atom_site_fract_y
  _atom_site_fract_z
  _atom_site_occupancy
  Cd  Cd1       1.0  0.6925507081049175  0.4999988908417378  0.7499971847965767  1.0000
  Cd  Cd2       1.0  0.3074447144587253  0.5000032759850939  0.2500028945999517  1.0000
  H   H1        1.0  0.19851574813024087  0.2584298631957864  0.6978493573314424  1.0000
  H   H2        1.0  0.19851722694456692  0.7415680616703002  0.8021475795083007  1.0000
  H   H3        1.0  0.801477114915414  0.7415722990846589  0.3021500290719601  1.0000
  H   H4        1.0  0.8014807551298161  0.2584302071117435  0.19785133500490562  1.0000
  H   H5        1.0  0.46821927826412235  0.0857104183517521  0.645693191162934  1.0000
  H   H6        1.0  0.4682197847356661  0.9142926391179956  0.8543059362514144  1.0000
  H   H7        1.0  0.5317774240489115  0.9142917393815393  0.3543055022576524  1.0000
  H   H8        1.0  0.5317794771071717  0.08570694113658561  0.14569521453032763  1.0000
  H   H9        1.0  0.18680856384516176  0.6439106498078785  0.5279188894022866  1.0000
  H   H10       1.0  0.18680357707893339  0.35608859837160617  0.9720816319768205  1.0000
  H   H11       1.0  0.813195817026262  0.35608633478091184  0.47208194678873383  1.0000
  H   H12       1.0  0.8131982442586858  0.6439122569817926  0.027916211163528704  1.0000
  H   H13       1.0  0.906444273537545  0.7973661351824434  0.577329145270781  1.0000
  H   H14       1.0  0.9064402592876346  0.2026277073701195  0.9226661340992381  1.0000
  H   H15       1.0  0.09356010731850968  0.2026308312195582  0.42266891896424863  1.0000
  H   H16       1.0  0.09356028228138767  0.7973731343433316  0.07732963007205743  1.0000
  H   H17       1.0  0.5879061090739696  0.8671546628888436  0.5456845713905594  1.0000
  H   H18       1.0  0.5879025559054579  0.1328483801424625  0.9543170203509349  1.0000
  H   H19       1.0  0.41209315276073966  0.1328488017701375  0.45431566531162565  1.0000
  H   H20       1.0  0.41209798569460077  0.8671499022793726  0.045683973133385784  1.0000
  H   H21       1.0  0.4632652160926439  0.6900622345155084  0.4786705186207386  1.0000
  H   H22       1.0  0.4632693751499345  0.3099377599082089  0.02133013487505759  1.0000
  H   H23       1.0  0.5367314862279214  0.30994123014377806  0.5213297180773253  1.0000
  H   H24       1.0  0.5367311664502736  0.690059224681029  0.9786707013097811  1.0000
  C   C1        1.0  0.8701666848385796  0.15070086210322836  0.6595347622994653  1.0000
  C   C2        1.0  0.8701709791114495  0.8492968915504164  0.8404622581540765  1.0000
  C   C3        1.0  0.1298287377331917  0.8492974203192105  0.3404662311766131  1.0000
  C   C4        1.0  0.12982956248846014  0.15070268870401546  0.159538892629719  1.0000
  C   C5        1.0  0.03219835426492069  0.04296043968300009  0.6376340345312601  1.0000
  C   C6        1.0  0.03220016274017469  0.9570401380537631  0.862365453356567  1.0000
  C   C7        1.0  0.9677983480599294  0.9570391360251878  0.36236642325736323  1.0000
  C   C8        1.0  0.9678016586166575  0.04296074003311649  0.1376358547287779  1.0000
  C   C9        1.0  0.19122230684738634  0.12337436250638231  0.6596706755164308  1.0000
  C   C10       1.0  0.1912291161522433  0.8766222662375469  0.8403260805490476  1.0000
  C   C11       1.0  0.8087718359596322  0.8766239108228078  0.3403289319795917  1.0000
  C   C12       1.0  0.8087752647188821  0.12337731401643029  0.1596750702409295  1.0000
  C   C13       1.0  0.3398775292932967  0.030955951754890503  0.6323026102569358  1.0000
  C   C14       1.0  0.3398755388084425  0.9690471449180436  0.8676974898976583  1.0000
  C   C15       1.0  0.6601217325452564  0.9690475174507965  0.3676983194342469  1.0000
  C   C16       1.0  0.6601250027950126  0.030955035548281305  0.13230466847410582  1.0000
  C   C17       1.0  0.17916596124435805  0.7791593226811243  0.566287144854492  1.0000
  C   C18       1.0  0.17915948148109348  0.2208386567390974  0.9337173525491238  1.0000
  C   C19       1.0  0.8208396993953712  0.22084027121280053  0.4337160849045389  1.0000
  C   C20       1.0  0.8208410601111352  0.7791609144219435  0.06628241225667608  1.0000
  C   C21       1.0  0.02738940974838749  0.8666278952518526  0.5926744355202588  1.0000
  C   C22       1.0  0.0273904531102929  0.13336490116430616  0.9073247860746463  1.0000
  C   C23       1.0  0.9726124115899634  0.13336647093854737  0.40732262112268813  1.0000
  C   C24       1.0  0.9726113682350143  0.8666359632824906  0.09267444304369829  1.0000
  C   C25       1.0  0.48900657965208416  0.7704161500906536  0.5494708433821317  1.0000
  C   C26       1.0  0.4890041120654231  0.2295907960004513  0.9505288228566542  1.0000
  C   C27       1.0  0.5109965214579758  0.2295847234493777  0.45052977171626923  1.0000
  C   C28       1.0  0.5110002687975735  0.7704126686579258  0.0494714138537731  1.0000
  C   C29       1.0  0.5566895392870845  0.6570946534336032  0.6140163065493384  1.0000
  C   C30       1.0  0.5566887364353973  0.34290576942883894  0.8859800191637818  1.0000
  C   C31       1.0  0.4433110023089809  0.342904922274137  0.38598415124546653  1.0000
  C   C32       1.0  0.44331308491360477  0.6570963973972468  0.11402006024304967  1.0000
  N   N1        1.0  0.33080185078483026  0.863189218219972  0.5842480329075457  1.0000
  N   N2        1.0  0.3308017025334209  0.1368125918427339  0.9157532667067372  1.0000
  N   N3        1.0  0.6691986908152217  0.1368090642018629  0.41575296057677497  1.0000
  N   N4        1.0  0.6692013985801849  0.8631908819091976  0.084248355979625  1.0000
  O   O1        1.0  0.7339376404700103  0.09273635116078789  0.6182043854501558  1.0000
  O   O2        1.0  0.7339307845964881  0.9072666121443476  0.8817907465871926  1.0000
  O   O3        1.0  0.26606034160423053  0.9072632154538525  0.38179468636253233  1.0000
  O   O4        1.0  0.2660659177326465  0.09272907461274119  0.11820993229198253  1.0000
  O   O5        1.0  0.8934290360016913  0.2966702426300428  0.7174800272572599  1.0000
  O   O6        1.0  0.8934329165765362  0.7033262577472783  0.7825245336750513  1.0000
  O   O7        1.0  0.1065638270636242  0.7033280488860854  0.28252235219269284  1.0000
  O   O8        1.0  0.10656634527029496  0.29667202922140484  0.21747715279620652  1.0000
  O   O9        1.0  0.4825971580998995  0.66193855405578  0.6929318538051208  1.0000
  O   O10       1.0  0.4825967665332626  0.33806318856827733  0.8070650836350879  1.0000
  O   O11       1.0  0.5174008239662057  0.3380648969632604  0.3070663039280107  1.0000
  O   O12       1.0  0.5174012155449645  0.6619350847604579  0.19293452386711613  1.0000
  O   O13       1.0  0.6877826399072401  0.5669306810466564  0.584169706128428  1.0000
  O   O14       1.0  0.6877845861337091  0.4330658221093913  0.9158272627721759  1.0000
  O   O15       1.0  0.31222174095235994  0.4330688855672308  0.415829365694556  1.0000
  O   O16       1.0  0.31221595545836317  0.5669350468842466  0.08417265933310598  1.0000
