data_image0
_chemical_formula_structural       Li6H26C14S2O24
_chemical_formula_sum              "Li6 H26 C14 S2 O24"
_cell_length_a       6.524847527676367
_cell_length_b       8.814503067861494
_cell_length_c       11.726608611438362
_cell_angle_alpha    96.7337618292427
_cell_angle_beta     96.96212126550796
_cell_angle_gamma    105.05501061579909

_space_group_name_H-M_alt    "P 1"
_space_group_IT_number       1

loop_
  _space_group_symop_operation_xyz
  'x, y, z'

loop_
  _atom_site_type_symbol
  _atom_site_label
  _atom_site_symmetry_multiplicity
  _atom_site_fract_x
  _atom_site_fract_y
  _atom_site_fract_z
  _atom_site_occupancy
  Li  Li1       1.0  0.3068375097876483  0.8772032219202187  0.01367557636249471  1.0000
  Li  Li2       1.0  0.6931598879542805  0.1227985024038603  0.9863248468043151  1.0000
  Li  Li3       1.0  0.12997819010916345  0.6964396548845785  0.7856901600974877  1.0000
  Li  Li4       1.0  0.870019924171075  0.3035597926996089  0.21431439991957282  1.0000
  Li  Li5       1.0  0.4833431974249792  0.41017716491241163  0.6016650836969787  1.0000
  Li  Li6       1.0  0.516657804972077  0.5898258221018438  0.39833907945995856  1.0000
  H   H1        1.0  0.30309156376155505  0.15127015170694585  0.9280560859092969  1.0000
  H   H2        1.0  0.6969069881825762  0.8487304634075485  0.07194773849195002  1.0000
  H   H3        1.0  0.3302547340303832  0.02257983944303989  0.8339426170641813  1.0000
  H   H4        1.0  0.6697451309054472  0.9774242782623689  0.16605900048961786  1.0000
  H   H5        1.0  0.9178432782752781  0.7305897857612607  0.9533437930420374  1.0000
  H   H6        1.0  0.08215614899665274  0.2694131644138409  0.04665856012757529  1.0000
  H   H7        1.0  0.9157035077204584  0.8728996229760639  0.8832310805851119  1.0000
  H   H8        1.0  0.08429590281048864  0.1271033057174691  0.11677041695319447  1.0000
  H   H9        1.0  0.5536759271759095  0.830330875071816  0.8491844255460915  1.0000
  H   H10       1.0  0.44631991218188477  0.16967083389468482  0.15081504326469286  1.0000
  H   H11       1.0  0.47226393877613765  0.6422225896130769  0.8404575548305642  1.0000
  H   H12       1.0  0.5277381508591931  0.3577792022653128  0.15954658703561359  1.0000
  H   H13       1.0  0.22222939891820914  0.5831745018373339  0.5402448781237509  1.0000
  H   H14       1.0  0.7777694290022908  0.4168308754486532  0.4597593276147121  1.0000
  H   H15       1.0  0.1495318115763595  0.41734514603256656  0.4569977666089071  1.0000
  H   H16       1.0  0.8504665619392571  0.582659042241545  0.5430063191140703  1.0000
  H   H17       1.0  0.3281170728263448  0.11966430943562757  0.6326686599525286  1.0000
  H   H18       1.0  0.671882253999698  0.8803385118500557  0.36732855942928205  1.0000
  H   H19       1.0  0.6172974506475841  0.4140015477523917  0.8243989423436843  1.0000
  H   H20       1.0  0.3827069751518338  0.5859942592130737  0.17560403998793106  1.0000
  H   H21       1.0  0.3726484668676591  0.3919934939035485  0.8127474597588173  1.0000
  H   H22       1.0  0.6273563798546746  0.608003459110648  0.18725393132568507  1.0000
  H   H23       1.0  0.3789749587766239  0.22222203829152679  0.3451009468475944  1.0000
  H   H24       1.0  0.6210178752774811  0.7777759808739049  0.6548929294042123  1.0000
  H   H25       1.0  0.03625540489885995  0.6689639749358635  0.3993706659846976  1.0000
  H   H26       1.0  0.9637462748322536  0.3310328829184641  0.6006262494938637  1.0000
  C   C1        1.0  0.12827949809197056  0.8243787173730086  0.27763838160184656  1.0000
  C   C2        1.0  0.8717217272342668  0.1756169514694363  0.7223584138612223  1.0000
  C   C3        1.0  0.22544536801004963  0.9822239939512439  0.2577725695912604  1.0000
  C   C4        1.0  0.7745506330352826  0.017774120374063788  0.7422257822664944  1.0000
  C   C5        1.0  0.30258200357894804  0.10096470938489693  0.3573307801596782  1.0000
  C   C6        1.0  0.6974190768007347  0.899034575580309  0.6426679878877194  1.0000
  C   C7        1.0  0.28601167023165897  0.06537454410929659  0.46872320196531087  1.0000
  C   C8        1.0  0.71398845111532  0.9346222983874526  0.5312727591572255  1.0000
  C   C9        1.0  0.1901431627824835  0.9069474978505954  0.4864214320780391  1.0000
  C   C10       1.0  0.809858096025721  0.09304821395499371  0.5135770746476351  1.0000
  C   C11       1.0  0.1118487366463015  0.7904379823047305  0.3887221984439646  1.0000
  C   C12       1.0  0.8881534142306722  0.2095600860430409  0.6112756926813743  1.0000
  C   C13       1.0  0.17869250415246543  0.8654893999497091  0.6029944162114801  1.0000
  C   C14       1.0  0.8213090473730775  0.13451109550894808  0.39700532748270934  1.0000
  S   S1        1.0  0.029857565055145637  0.6651609750048451  0.16290274314292216  1.0000
  S   S2        1.0  0.9701421353689172  0.3348347214431655  0.8370948092267337  1.0000
  O   O1        1.0  0.8319966208810998  0.6843803550079457  0.0953382683655164  1.0000
  O   O2        1.0  0.16800153789980504  0.3156153475640552  0.9046591852794135  1.0000
  O   O3        1.0  0.37502986829754564  0.0669594769863338  0.9178235840923318  1.0000
  O   O4        1.0  0.6249706127306996  0.9330422350897648  0.0821770365239232  1.0000
  O   O5        1.0  0.9813124716951054  0.5239128352259143  0.21995583130163956  1.0000
  O   O6        1.0  0.01869320013208413  0.4760863884041768  0.7800415216573312  1.0000
  O   O7        1.0  0.9963095359333567  0.7934923240795583  0.9003530632006044  1.0000
  O   O8        1.0  0.0036878450675956924  0.20650937876295217  0.09964650433489908  1.0000
  O   O9        1.0  0.4274007263871553  0.7400043420949699  0.8564671265625418  1.0000
  O   O10       1.0  0.5725962169498972  0.2599961932172333  0.14353317658877526  1.0000
  O   O11       1.0  0.20014676458089312  0.6671267242528743  0.09043079946061282  1.0000
  O   O12       1.0  0.7998567327697403  0.3328748896489557  0.9095665960798768  1.0000
  O   O13       1.0  0.24108417742851887  0.014481270650911397  0.15227170782685553  1.0000
  O   O14       1.0  0.7589118236168133  0.9855168436743965  0.8477266440308995  1.0000
  O   O15       1.0  0.2795493134980518  0.501267539054453  0.4987013773841864  1.0000
  O   O16       1.0  0.7204482181717328  0.4987343571221957  0.5013058908330237  1.0000
  O   O17       1.0  0.36147272434074307  0.18128502817499734  0.5628245328405866  1.0000
  O   O18       1.0  0.6385314058432884  0.818714201579091  0.43717272139365787  1.0000
  O   O19       1.0  0.49861383526761943  0.44079163936093824  0.7767320126274623  1.0000
  O   O20       1.0  0.5013925530978797  0.5592053075292683  0.22326947718175916  1.0000
  O   O21       1.0  0.24737591778551155  0.9791247260838531  0.6894536812169105  1.0000
  O   O22       1.0  0.7526248057371349  0.020881705200594097  0.3105456094739551  1.0000
  O   O23       1.0  0.10539252454528736  0.719056171064153  0.6174893642192456  1.0000
  O   O24       1.0  0.8946115611380777  0.28094680370212194  0.3825149963871367  1.0000
