data_image0
_chemical_formula_structural       Cd4H40C48N24O32
_chemical_formula_sum              "Cd4 H40 C48 N24 O32"
_cell_length_a       7.216593650596001
_cell_length_b       15.475349232027138
_cell_length_c       15.4375
_cell_angle_alpha    92.19721096575209
_cell_angle_beta     102.74862669016852
_cell_angle_gamma    103.10209109197181

_space_group_name_H-M_alt    "P 1"
_space_group_IT_number       1

loop_
  _space_group_symop_operation_xyz
  'x, y, z'

loop_
  _atom_site_type_symbol
  _atom_site_label
  _atom_site_symmetry_multiplicity
  _atom_site_fract_x
  _atom_site_fract_y
  _atom_site_fract_z
  _atom_site_occupancy
  Cd  Cd1       1.0  0.8626804967699824  0.7593877440751271  0.5475041614591944  1.0000
  Cd  Cd2       1.0  0.3618241526095928  0.5468069663115143  0.7593954672187381  1.0000
  Cd  Cd3       1.0  0.20901750522353515  0.8910750399927707  0.096494835722055  1.0000
  Cd  Cd4       1.0  0.7096160339995522  0.0962741581995274  0.8910558569544592  1.0000
  H   H1        1.0  0.004257459483596841  0.894770613645697  0.7217728395409183  1.0000
  H   H2        1.0  0.501169483229873  0.7206301988265336  0.8947302648817514  1.0000
  H   H3        1.0  0.1358714538390728  0.0561106157623854  0.7714162545729408  1.0000
  H   H4        1.0  0.6347674987110707  0.7705944079220259  0.05606410834415242  1.0000
  H   H5        1.0  0.2221698611614116  0.16248996228621587  0.6589425801426003  1.0000
  H   H6        1.0  0.7227008426731913  0.6587963082525761  0.1622376477869878  1.0000
  H   H7        1.0  0.020543173271349177  0.9367919381499732  0.4590753172463097  1.0000
  H   H8        1.0  0.5196013333882448  0.4588335223194376  0.9364887029787994  1.0000
  H   H9        1.0  0.23470531319508584  0.9998105979188237  0.2717863227410716  1.0000
  H   H10       1.0  0.7351323511681328  0.2717466054262232  0.9988624983435911  1.0000
  H   H11       1.0  0.26561501581149827  0.27934632008752647  0.2375595414263216  1.0000
  H   H12       1.0  0.7652746352455039  0.2385064330312545  0.2791669677436488  1.0000
  H   H13       1.0  0.2816098324705152  0.2459668806724622  0.0796607601141588  1.0000
  H   H14       1.0  0.7812798365093415  0.0810687317325076  0.24625741928423392  1.0000
  H   H15       1.0  0.2672522200501816  0.09017906043477097  0.025173602456220592  1.0000
  H   H16       1.0  0.7677609600173696  0.0262048556572125  0.09024119841695469  1.0000
  H   H17       1.0  0.7677250179513706  0.5584874045664918  0.617418033097394  1.0000
  H   H18       1.0  0.2687904140991859  0.617545949979174  0.5592660851163203  1.0000
  H   H19       1.0  0.5717484675696056  0.40360848488101897  0.5617731995603776  1.0000
  H   H20       1.0  0.07361590241662701  0.5625488040281894  0.4040732880876163  1.0000
  H   H21       1.0  0.37662692110998813  0.3723700260189418  0.4037412551351451  1.0000
  H   H22       1.0  0.8777391924542711  0.4046626495977392  0.3721382371517024  1.0000
  H   H23       1.0  0.5916758985841425  0.6520062080860993  0.3723598931799614  1.0000
  H   H24       1.0  0.09047611894840199  0.37193956432045633  0.6516353543872526  1.0000
  H   H25       1.0  0.2800036935958872  0.7147156817433427  0.1815131642217551  1.0000
  H   H26       1.0  0.780598336606971  0.18105445597003464  0.7144075362851582  1.0000
  H   H27       1.0  0.0413432921508488  0.4883141515211449  0.9833446127136442  1.0000
  H   H28       1.0  0.5398751105059602  0.9827707116129145  0.4880362019793267  1.0000
  H   H29       1.0  0.953704283900734  0.5960728412583833  0.871565703466807  1.0000
  H   H30       1.0  0.4538875343902263  0.8710918884822121  0.596431545092706  1.0000
  H   H31       1.0  0.04134614549578693  0.7579817468865855  0.9214642282171964  1.0000
  H   H32       1.0  0.5434751321380772  0.9209634750140976  0.7586526951478163  1.0000
  H   H33       1.0  0.6145589308921728  0.8399593791713045  0.40770411627560327  1.0000
  H   H34       1.0  0.11316511289231809  0.4072041061271747  0.8403521439593362  1.0000
  H   H35       1.0  0.4593281157739568  0.7816631374475804  0.45708029368078235  1.0000
  H   H36       1.0  0.9583519868261872  0.4563753594623065  0.7822920091707745  1.0000
  H   H37       1.0  0.038609316722805244  0.8079866032941607  0.2460005871154323  1.0000
  H   H38       1.0  0.5399865362610042  0.245710336161757  0.8083996469481747  1.0000
  H   H39       1.0  0.8868469231929051  0.8642104984508803  0.1985336671835114  1.0000
  H   H40       1.0  0.38809649564147  0.19835621758168284  0.8651443961083274  1.0000
  C   C1        1.0  0.03874687867703123  0.942425922144835  0.6742787105565  1.0000
  C   C2        1.0  0.5367421226574932  0.6734586599761556  0.9423767440279606  1.0000
  C   C3        1.0  0.1124338453701483  0.03305759266527279  0.7016081652909493  1.0000
  C   C4        1.0  0.6113204313455896  0.7009109216698448  0.032971388986695216  1.0000
  C   C5        1.0  0.15997898329381846  0.0915130918904481  0.6396608742449175  1.0000
  C   C6        1.0  0.6598271081387992  0.6392762695600493  0.09132079994576972  1.0000
  C   C7        1.0  0.1288840021536259  0.0573107109929865  0.5506651231903062  1.0000
  C   C8        1.0  0.6286732852293682  0.5504032539070491  0.05709554605403611  1.0000
  C   C9        1.0  0.050789993940377025  0.9655882265400135  0.527830212732944  1.0000
  C   C10       1.0  0.5498436689643782  0.5274475178191906  0.9653943470233628  1.0000
  C   C11       1.0  0.17641252497417526  0.11621999414489177  0.48398602813767166  1.0000
  C   C12       1.0  0.6768421534887281  0.4839768834167656  0.11590028014360598  1.0000
  C   C13       1.0  0.23079107545924418  0.1543478392308444  0.358016821034802  1.0000
  C   C14       1.0  0.731228750718216  0.358374023673818  0.1537768655989638  1.0000
  C   C15       1.0  0.2454478278404295  0.05640647488641549  0.2317587683226634  1.0000
  C   C16       1.0  0.7460476682473285  0.2321481272620147  0.055800380377718305  1.0000
  C   C17       1.0  0.249633681205033  0.1416345594392538  0.26728608035978857  1.0000
  C   C18       1.0  0.7499523905538011  0.2678504606103828  0.14108432866257198  1.0000
  C   C19       1.0  0.26440807772555536  0.2121209966924766  0.2126385595263969  1.0000
  C   C20       1.0  0.764353642237566  0.21353632277232035  0.211856732197873  1.0000
  C   C21       1.0  0.2721150825513731  0.19364512747598883  0.1248511305951325  1.0000
  C   C22       1.0  0.7720968010530314  0.125926705540877  0.1936504979852174  1.0000
  C   C23       1.0  0.2648786200514763  0.1068457910887517  0.0938834698373228  1.0000
  C   C24       1.0  0.7652789627299013  0.0947635441585604  0.10679595629108718  1.0000
  C   C25       1.0  0.68178201399094  0.542803539245746  0.5490435587036586  1.0000
  C   C26       1.0  0.18238547309091047  0.5492211501096661  0.543207196806037  1.0000
  C   C27       1.0  0.5725801637278137  0.4566039172991196  0.5173305964579455  1.0000
  C   C28       1.0  0.07368202191058507  0.5178647474076001  0.4568780627780954  1.0000
  C   C29       1.0  0.46474159498556833  0.4392888286999009  0.4294719543107419  1.0000
  C   C30       1.0  0.9653491760352962  0.4300312367849912  0.4392062015373739  1.0000
  C   C31       1.0  0.469483985490335  0.5103589880086545  0.3755667952094939  1.0000
  C   C32       1.0  0.9690863577704577  0.3757677414996934  0.5100516321483042  1.0000
  C   C33       1.0  0.5834559638796292  0.5950966394189405  0.4119559741956067  1.0000
  C   C34       1.0  0.08269089430481805  0.41181457747672556  0.5949105114257947  1.0000
  C   C35       1.0  0.3542916268856828  0.4975357605696188  0.2845116545661527  1.0000
  C   C36       1.0  0.8536091844689652  0.2846471293931571  0.4970545741239932  1.0000
  C   C37       1.0  0.21934023536815758  0.5346680796841594  0.1577507758782772  1.0000
  C   C38       1.0  0.7188677065372886  0.1575263257660851  0.5341324608951652  1.0000
  C   C39       1.0  0.20956921230039433  0.6857214875879052  0.11340689239645492  1.0000
  C   C40       1.0  0.7101164784718605  0.1129648774311249  0.6854759229844235  1.0000
  C   C41       1.0  0.16693570577434969  0.5935780291854371  0.09090556004102268  1.0000
  C   C42       1.0  0.6668144337000257  0.0904909119438955  0.5931919891064652  1.0000
  C   C43       1.0  0.07324877557531538  0.5596235302567647  0.0024829881664131855  1.0000
  C   C44       1.0  0.5727943430063078  0.0020263684598874  0.5594556017409786  1.0000
  C   C45       1.0  0.025846753629245718  0.6187213902827722  0.9408444481533493  1.0000
  C   C46       1.0  0.5262693025662982  0.940364237167884  0.6189325437835721  1.0000
  C   C47       1.0  0.07433450439714312  0.7096067810587101  0.9680885526641987  1.0000
  C   C48       1.0  0.5756425992818065  0.9675859419766295  0.709963389434904  1.0000
  N   N1        1.0  0.007919036639314992  0.9096495289172708  0.5887389257285564  1.0000
  N   N2        1.0  0.5061860466055847  0.5880746496687621  0.9095663558577698  1.0000
  N   N3        1.0  0.21561947639617776  0.2036063843345488  0.4891516995339487  1.0000
  N   N4        1.0  0.7164613739025967  0.4891490872923541  0.20339261591190905  1.0000
  N   N5        1.0  0.24952590887266973  0.2280147620674455  0.4073209812003284  1.0000
  N   N6        1.0  0.7502984060849016  0.40758525797165385  0.22764221478503543  1.0000
  N   N7        1.0  0.252104890677721  0.03962180039245309  0.1468559617562448  1.0000
  N   N8        1.0  0.7527303043271228  0.14740514505669464  0.03929791365307978  1.0000
  N   N9        1.0  0.6871780701190886  0.6108264828468107  0.4968253970219579  1.0000
  N   N10       1.0  0.18688447545141426  0.4966521812937826  0.6109626577756302  1.0000
  N   N11       1.0  0.255025059040797  0.4235183379599476  0.2356171494108565  1.0000
  N   N12       1.0  0.7541758209795403  0.23591699934657126  0.4229809680494583  1.0000
  N   N13       1.0  0.16829913720815162  0.4473709803112128  0.153336322044467  1.0000
  N   N14       1.0  0.6676008176749876  0.1534009567640524  0.4467736968174449  1.0000
  N   N15       1.0  0.16498783306820286  0.7421239643780524  0.0528606738482083  1.0000
  N   N16       1.0  0.6661228920370518  0.05243170084391829  0.7421861735840309  1.0000
  N   N17       1.0  0.09951990612491093  0.750805830429975  0.3997421248366991  1.0000
  N   N18       1.0  0.5981357351063039  0.399323192028163  0.7499869390705385  1.0000
  N   N19       1.0  0.6725028127455983  0.7132223927862211  0.7185414880096063  1.0000
  N   N20       1.0  0.1712891279587083  0.7176136351902542  0.713217767561659  1.0000
  N   N21       1.0  0.6005244469427495  0.8952790382214599  0.2510642258363234  1.0000
  N   N22       1.0  0.10124178583245681  0.2510957718384503  0.89457795609043  1.0000
  N   N23       1.0  0.31664787380805137  0.949595175107653  0.9186333733629723  1.0000
  N   N24       1.0  0.8163765450316305  0.9186712331522031  0.950189509978628  1.0000
  O   O1        1.0  0.18276216457790173  0.0804097121972092  0.40245049623876383  1.0000
  O   O2        1.0  0.6830050278585701  0.4026409455834994  0.0798463129811324  1.0000
  O   O3        1.0  0.33752324123093297  0.5710134401827387  0.2392408065250606  1.0000
  O   O4        1.0  0.8370321372315104  0.23905283952159095  0.5705333863867494  1.0000
  O   O5        1.0  0.5997781133609976  0.8073035951812455  0.46049804391017096  1.0000
  O   O6        1.0  0.09859922519017769  0.460140899799967  0.8081572704547924  1.0000
  O   O7        1.0  0.004461510171978512  0.8427213973450094  0.19517679284683712  1.0000
  O   O8        1.0  0.5068390714851674  0.19550490859126057  0.8441512053280817  1.0000
  O   O9        1.0  0.2192621540929665  0.7494491430954326  0.4734248057854984  1.0000
  O   O10       1.0  0.7193753501795612  0.4730327612249851  0.7496046671688532  1.0000
  O   O11       1.0  0.9309100772494361  0.7635091149808844  0.40034962796426754  1.0000
  O   O12       1.0  0.4284288296674673  0.39974832293161455  0.7615620932568774  1.0000
  O   O13       1.0  0.1453952120029811  0.7401469057721712  0.3266994070931446  1.0000
  O   O14       1.0  0.6437014052107202  0.3264418951087648  0.7394575570519778  1.0000
  O   O15       1.0  0.7248084569708411  0.777790981209364  0.6735255748985409  1.0000
  O   O16       1.0  0.22337522582409258  0.6724558041615794  0.7774739754385109  1.0000
  O   O17       1.0  0.5293212783251846  0.6482686544223313  0.6781569326279921  1.0000
  O   O18       1.0  0.027194415693720875  0.6775173940403363  0.648602864129643  1.0000
  O   O19       1.0  0.7546080028381184  0.7126093513580398  0.7979267525902926  1.0000
  O   O20       1.0  0.2543946041884268  0.7969318671055559  0.7125419571190434  1.0000
  O   O21       1.0  0.4163912565269428  0.8816375337456819  0.2437069117609525  1.0000
  O   O22       1.0  0.9169469663462949  0.24347140225014385  0.8795417847917619  1.0000
  O   O23       1.0  0.666319835587359  0.8974080244856282  0.18117423694211962  1.0000
  O   O24       1.0  0.16665290961418577  0.18141095288751063  0.8975527484135314  1.0000
  O   O25       1.0  0.7146597118187259  0.9063277772656589  0.3274527259693656  1.0000
  O   O26       1.0  0.21581090651704213  0.3275200484031088  0.9061514934898867  1.0000
  O   O27       1.0  0.40795311531803685  0.9538431523953219  0.0011257032469415974  1.0000
  O   O28       1.0  0.9078093794347595  0.001132793943377  0.9536487225347798  1.0000
  O   O29       1.0  0.1616232392935187  0.8928002185335939  0.8873196123842674  1.0000
  O   O30       1.0  0.6614150255222526  0.8867664249116627  0.8937148184917733  1.0000
  O   O31       1.0  0.387970341663106  0.0063902905394073  0.8699815400624544  1.0000
  O   O32       1.0  0.8874656112242008  0.8707060721920854  0.007411346329597308  1.0000
