data_image0
_chemical_formula_structural       Cu2H22C32N8O14
_chemical_formula_sum              "Cu2 H22 C32 N8 O14"
_cell_length_a       7.278913543833537
_cell_length_b       7.6067316243697505
_cell_length_c       14.358498658056227
_cell_angle_alpha    97.61863910126317
_cell_angle_beta     99.5202021895021
_cell_angle_gamma    90.12222478468932

_space_group_name_H-M_alt    "P 1"
_space_group_IT_number       1

loop_
  _space_group_symop_operation_xyz
  'x, y, z'

loop_
  _atom_site_type_symbol
  _atom_site_label
  _atom_site_symmetry_multiplicity
  _atom_site_fract_x
  _atom_site_fract_y
  _atom_site_fract_z
  _atom_site_occupancy
  Cu  Cu1       1.0  0.49999867423597527  0.49999710165600675  0.5000002764452985  1.0000
  Cu  Cu2       1.0  0.9999977380558036  0.9999973164382326  0.49999985716306117  1.0000
  H   H1        1.0  0.32058088298082765  0.9450941121826092  0.494666088044191  1.0000
  H   H2        1.0  0.6794152426337163  0.05490539573175111  0.5053326384740229  1.0000
  H   H3        1.0  0.2798493937638257  0.15588556876025456  0.4860395056198071  1.0000
  H   H4        1.0  0.7201439353704303  0.8441139513480636  0.5139603747692759  1.0000
  H   H5        1.0  0.4690842695726118  0.7936768929362757  0.9422256396853539  1.0000
  H   H6        1.0  0.5309134029483289  0.20632791789280705  0.057773587315182284  1.0000
  H   H7        1.0  0.40201399458936754  0.46434807502797076  0.932794558959557  1.0000
  H   H8        1.0  0.5979892719914446  0.5356580528496836  0.06720732863320217  1.0000
  H   H9        1.0  0.26837434458078496  0.2945011269218085  0.7776542442121651  1.0000
  H   H10       1.0  0.7316273152180557  0.7054983797185914  0.22234983216057455  1.0000
  H   H11       1.0  0.09915405544236217  0.9455486126002413  0.2798130785894485  1.0000
  H   H12       1.0  0.9008603040249383  0.05445481935015552  0.7201860913188579  1.0000
  H   H13       1.0  0.0097267686275586  0.14189535992662175  0.15798194117408568  1.0000
  H   H14       1.0  0.9902834838106787  0.8581107395674012  0.8420177578866086  1.0000
  H   H15       1.0  0.0599473135504311  0.7068809204440357  0.9377871720962003  1.0000
  H   H16       1.0  0.9400642547798769  0.29312252159905233  0.06221245553786048  1.0000
  H   H17       1.0  0.16362157827916948  0.5164887818287127  0.061204453422540384  1.0000
  H   H18       1.0  0.8363842697975061  0.483509367185512  0.9387936199550422  1.0000
  H   H19       1.0  0.3727308594388105  0.7883358571145465  0.3560403059844929  1.0000
  H   H20       1.0  0.627267970720645  0.21166233289093836  0.643964132795844  1.0000
  H   H21       1.0  0.22177174232201216  0.24766071184185995  0.3335854371802397  1.0000
  H   H22       1.0  0.77822012225392  0.7523361567056811  0.6664134372177201  1.0000
  C   C1        1.0  0.37971415230015276  0.7903509684992471  0.7917364749287685  1.0000
  C   C2        1.0  0.6202821326672352  0.2096538442242775  0.20826193671696555  1.0000
  C   C3        1.0  0.41425409472086727  0.7118225663472659  0.8752224201125783  1.0000
  C   C4        1.0  0.5857477073016212  0.2881809099696113  0.12477846148907187  1.0000
  C   C5        1.0  0.3760232541418348  0.5313920670540782  0.8696287161300443  1.0000
  C   C6        1.0  0.6239743360310256  0.46861009242105217  0.13037101637927856  1.0000
  C   C7        1.0  0.30227630021875745  0.4348599547567176  0.7822083927600826  1.0000
  C   C8        1.0  0.6977251830980363  0.5651329119418237  0.21779311858652045  1.0000
  C   C9        1.0  0.2718710377969061  0.5129485098455363  0.697912097332555  1.0000
  C   C10       1.0  0.7281235911995195  0.48704835911566136  0.30208980006523223  1.0000
  C   C11       1.0  0.310089844370829  0.6952927997697954  0.7015745922779288  1.0000
  C   C12       1.0  0.6899119244925701  0.30470934771820873  0.29842549786043543  1.0000
  C   C13       1.0  0.2651850642674702  0.7886720681899038  0.6139170375038175  1.0000
  C   C14       1.0  0.7348095807588565  0.21132479446748684  0.3860827714586249  1.0000
  C   C15       1.0  0.2005508241874594  0.38400447244500674  0.6094723255647805  1.0000
  C   C16       1.0  0.7994452030491104  0.6159923904192084  0.39052899489757914  1.0000
  C   C17       1.0  0.14064414194986344  0.7207064011100002  0.17720115344326354  1.0000
  C   C18       1.0  0.859360220195299  0.27928910474852847  0.8227986985236695  1.0000
  C   C19       1.0  0.09567525394725612  0.8962557886632255  0.20472017289678487  1.0000
  C   C20       1.0  0.904329213018464  0.10374370158067589  0.7952813573148558  1.0000
  C   C21       1.0  0.042055769680082705  0.005030849246701102  0.13487949601424984  1.0000
  C   C22       1.0  0.957959784828823  0.9949659471712026  0.8651200126580532  1.0000
  C   C23       1.0  0.028437706208400495  0.9418059056667192  0.03707187787627931  1.0000
  C   C24       1.0  0.9715710923581116  0.058197538063979024  0.962925422903069  1.0000
  C   C25       1.0  0.07048557972247949  0.7629414734808578  0.012275379135729696  1.0000
  C   C26       1.0  0.9295287027400435  0.23705930501431993  0.9877236001362559  1.0000
  C   C27       1.0  0.12792256572704733  0.6535509130090987  0.08122061157117598  1.0000
  C   C28       1.0  0.8720806452221906  0.34645255300825545  0.9187783008048026  1.0000
  C   C29       1.0  0.3124146195612454  0.6568473464901602  0.33220254657685183  1.0000
  C   C30       1.0  0.6875828005721731  0.34314951237834634  0.667798893095181  1.0000
  C   C31       1.0  0.2344945572806481  0.3816538082403583  0.31707134984034707  1.0000
  C   C32       1.0  0.7655015138016098  0.6183443792502034  0.6829293697950547  1.0000
  N   N1        1.0  0.4237722032188742  0.9803709517444831  0.8011172971425322  1.0000
  N   N2        1.0  0.5762253922972888  0.019631205629380605  0.19888173922167593  1.0000
  N   N3        1.0  0.20252147524631434  0.6102489400510791  0.24756414709825944  1.0000
  N   N4        1.0  0.7974802497714039  0.3897518828105788  0.7524365438670626  1.0000
  N   N5        1.0  0.33575745350886177  0.5144519381580038  0.3775384893940411  1.0000
  N   N6        1.0  0.6642372139899565  0.48554625753080677  0.6224635033219101  1.0000
  N   N7        1.0  0.1518868424828455  0.43438548744327227  0.23645451094465383  1.0000
  N   N8        1.0  0.8481106760285402  0.5656140164753793  0.7635443347832406  1.0000
  O   O1        1.0  0.4423761837947779  0.044204376609549505  0.7276741119985812  1.0000
  O   O2        1.0  0.5576186152410969  0.9557977929582722  0.27232607823649596  1.0000
  O   O3        1.0  0.4420390185596049  0.068394439317963  0.8815539305950464  1.0000
  O   O4        1.0  0.5579585224242719  0.9316063976321017  0.11844709888634945  1.0000
  O   O5        1.0  0.38050652300457705  0.7843962628890039  0.5569616909902917  1.0000
  O   O6        1.0  0.6194867398114994  0.21560059956156152  0.4430366064722404  1.0000
  O   O7        1.0  0.10688077354305393  0.8621078799858853  0.60552857588884  1.0000
  O   O8        1.0  0.8931166572769625  0.13788897468008096  0.3944714714929629  1.0000
  O   O9        1.0  0.0640605070005904  0.28602121056022867  0.6112211366333111  1.0000
  O   O10       1.0  0.9359342481895965  0.7139796343812608  0.388779654428724  1.0000
  O   O11       1.0  0.29290227138432107  0.36697622992119255  0.5386712975420307  1.0000
  O   O12       1.0  0.7070977366875512  0.633013989419112  0.461330600103686  1.0000
  O   O13       1.0  0.24291522605332014  0.030492727805544496  0.4574024566141332  1.0000
  O   O14       1.0  0.7570780752651416  0.9695054613726273  0.5425959361665561  1.0000
