data_image0
_chemical_formula_structural       Cd2H22C30S4N10
_chemical_formula_sum              "Cd2 H22 C30 S4 N10"
_cell_length_a       8.462190837724364
_cell_length_b       9.783141291121268
_cell_length_c       10.970130689934436
_cell_angle_alpha    85.26223373512272
_cell_angle_beta     76.18730269848248
_cell_angle_gamma    70.43979505870439

_space_group_name_H-M_alt    "P 1"
_space_group_IT_number       1

loop_
  _space_group_symop_operation_xyz
  'x, y, z'

loop_
  _atom_site_type_symbol
  _atom_site_label
  _atom_site_symmetry_multiplicity
  _atom_site_fract_x
  _atom_site_fract_y
  _atom_site_fract_z
  _atom_site_occupancy
  Cd  Cd1       1.0  0.5546861598299985  0.9053082182363923  0.7421486440654377  1.0000
  Cd  Cd2       1.0  0.4453169339729472  0.09468747925081539  0.2578437591659934  1.0000
  H   H1        1.0  0.09847768473386524  0.7782787376367252  0.47824190036582337  1.0000
  H   H2        1.0  0.9015025479748857  0.2217285745458426  0.5217660321106835  1.0000
  H   H3        1.0  0.3566877282755102  0.6007798595978427  0.533605459290918  1.0000
  H   H4        1.0  0.6433031471450262  0.39923402342613906  0.4663976190859244  1.0000
  H   H5        1.0  0.3295473611219392  0.39197628481246477  0.6761523210808137  1.0000
  H   H6        1.0  0.6704682128206302  0.6080232517637896  0.32385602209154735  1.0000
  H   H7        1.0  0.043619822414086684  0.37124548088788606  0.76739247931053  1.0000
  H   H8        1.0  0.956393539865225  0.6287750598753945  0.2326001799692604  1.0000
  H   H9        1.0  0.5122378187287707  0.2456301807201413  0.9235628621441664  1.0000
  H   H10       1.0  0.4877566404455748  0.7543600331576884  0.07643383576917269  1.0000
  H   H11       1.0  0.20163469199822262  0.3651532453060824  0.014175670832095507  1.0000
  H   H12       1.0  0.7983409797781533  0.6348225240843844  0.9858384667293478  1.0000
  H   H13       1.0  0.05932805357193871  0.6277594504445716  0.9796443265832195  1.0000
  H   H14       1.0  0.9407082739761495  0.37221865530652565  0.02035155680204061  1.0000
  H   H15       1.0  0.2251091717625755  0.7812478627448343  0.8583132379932366  1.0000
  H   H16       1.0  0.7748988975397708  0.21874101181768418  0.14169038036538945  1.0000
  H   H17       1.0  0.8051463381750281  0.321508377065804  0.7718802367485793  1.0000
  H   H18       1.0  0.19483858315202698  0.6785090238394745  0.22811393662372836  1.0000
  H   H19       1.0  0.6958538274646598  0.7306687295256253  0.53219603852299  1.0000
  H   H20       1.0  0.30413650318986646  0.2693157851703134  0.4678121261032828  1.0000
  H   H21       1.0  0.808102816107663  0.8431600367742293  0.48153245413920603  1.0000
  H   H22       1.0  0.19191106220696244  0.1568513099668252  0.5184799723487714  1.0000
  C   C1        1.0  0.922690406060852  0.6744389358380544  0.5877557382486387  1.0000
  C   C2        1.0  0.0772868333357835  0.32558669486110864  0.4122560953573355  1.0000
  C   C3        1.0  0.08567760321481202  0.6881106073626312  0.541052045873343  1.0000
  C   C4        1.0  0.9142949960740056  0.3119191863663673  0.4589669759690267  1.0000
  C   C5        1.0  0.23140313006322083  0.5873389800277381  0.5717744026991909  1.0000
  C   C6        1.0  0.7685696011618504  0.41266642344713483  0.42822540183949803  1.0000
  C   C7        1.0  0.21647967043287514  0.47086029789732453  0.6509021148848433  1.0000
  C   C8        1.0  0.7835289426664718  0.5291258127056792  0.3490833000277362  1.0000
  C   C9        1.0  0.05468230976633486  0.4585024351143688  0.7007805305396032  1.0000
  C   C10       1.0  0.9453133236565563  0.5414997882963561  0.29921224029471466  1.0000
  C   C11       1.0  0.9051332807543203  0.5595125486689981  0.6720665234600035  1.0000
  C   C12       1.0  0.09487409206597161  0.4404956584173263  0.32794311586192043  1.0000
  C   C13       1.0  0.7370714382903288  0.5476646883969776  0.732151442120383  1.0000
  C   C14       1.0  0.26292235474516457  0.45233511783428776  0.2678510898134832  1.0000
  C   C15       1.0  0.5418940083566852  0.44818588432499235  0.8394333126738402  1.0000
  C   C16       1.0  0.458120446482674  0.551793183678889  0.1605713551207018  1.0000
  C   C17       1.0  0.4506600464618841  0.3606055800629803  0.9072810279611048  1.0000
  C   C18       1.0  0.5493540792990005  0.6393936544478295  0.09269843022168092  1.0000
  C   C19       1.0  0.27626887110432824  0.4292385789226499  0.9577621303813899  1.0000
  C   C20       1.0  0.7237127597878582  0.57075926431515  0.04223521408070503  1.0000
  C   C21       1.0  0.19647403830570914  0.5787836269636343  0.9402414622222253  1.0000
  C   C22       1.0  0.8035330697978152  0.42119740656505655  0.05977211715349998  1.0000
  C   C23       1.0  0.2875252024652469  0.6659692747778793  0.8725300404094866  1.0000
  C   C24       1.0  0.7124663285307167  0.3340204454652991  0.12748567347941275  1.0000
  C   C25       1.0  0.46319390319693104  0.5989401371643127  0.8223957879331465  1.0000
  C   C26       1.0  0.5368144158114492  0.4010606723389786  0.17760687117262114  1.0000
  C   C27       1.0  0.27985710804387753  0.0426736218623418  0.01641208439318832  1.0000
  C   C28       1.0  0.7201349340213387  0.9573428491989875  0.9835749812970748  1.0000
  C   C29       1.0  0.37530616168398023  0.8925545770549376  0.5082258931555117  1.0000
  C   C30       1.0  0.6247058132970551  0.10744978567637994  0.49176465926522894  1.0000
  S   S1        1.0  0.17019449882111812  0.11395093816556569  0.1526414022911666  1.0000
  S   S2        1.0  0.8298226291465057  0.8860313142076636  0.8473651322254412  1.0000
  S   S3        1.0  0.39489094092878213  0.8475076190917151  0.364020120119207  1.0000
  S   S4        1.0  0.605136147113292  0.15248003860180862  0.6359443312474086  1.0000
  N   N1        1.0  0.5872463588097006  0.6570700560771384  0.755441363230176  1.0000
  N   N2        1.0  0.41275496444017523  0.34297022121209153  0.24454444318389798  1.0000
  N   N3        1.0  0.7130456602184622  0.4202455975676287  0.7802123909031877  1.0000
  N   N4        1.0  0.2869185618764051  0.5797562472099856  0.2198006746188454  1.0000
  N   N5        1.0  0.7779288808124177  0.7766525844534158  0.5534960068377616  1.0000
  N   N6        1.0  0.22207537222835333  0.22333988394981932  0.44649545011558434  1.0000
  N   N7        1.0  0.3558145490676737  0.9903906492001864  0.9171306882658073  1.0000
  N   N8        1.0  0.6441863430604045  0.009615699362299796  0.08286874837599364  1.0000
  N   N9        1.0  0.3595960699385969  0.9275357858670786  0.6126437638083785  1.0000
  N   N10       1.0  0.64043268042866  0.07244465290019518  0.3873473463255478  1.0000
