data_image0
_chemical_formula_structural       Zn8H52C100I4O26
_chemical_formula_sum              "Zn8 H52 C100 I4 O26"
_cell_length_a       20.803460658109216
_cell_length_b       20.87237670618092
_cell_length_c       20.874636084398983
_cell_angle_alpha    104.40963639727899
_cell_angle_beta     112.0546258541889
_cell_angle_gamma    112.04656151248768

_space_group_name_H-M_alt    "P 1"
_space_group_IT_number       1

loop_
  _space_group_symop_operation_xyz
  'x, y, z'

loop_
  _atom_site_type_symbol
  _atom_site_label
  _atom_site_symmetry_multiplicity
  _atom_site_fract_x
  _atom_site_fract_y
  _atom_site_fract_z
  _atom_site_occupancy
  Zn  Zn1       1.0  0.5666376501910407  0.5264620838098822  0.4489695591942321  1.0000
  Zn  Zn2       1.0  0.433337245845422  0.55103574463363  0.47357378396450395  1.0000
  Zn  Zn3       1.0  0.5667209217430624  0.11763691362007479  0.040909343348872175  1.0000
  Zn  Zn4       1.0  0.43324941060028976  0.9590768229942482  0.8823862039133274  1.0000
  Zn  Zn5       1.0  0.5707282528616845  0.545032255865479  0.6083558549142865  1.0000
  Zn  Zn6       1.0  0.4292896565211493  0.39165679734745845  0.45500419781689055  1.0000
  Zn  Zn7       1.0  0.5716492748110369  0.9631973438791873  0.026175183803012054  1.0000
  Zn  Zn8       1.0  0.4283433105390702  0.9738577578919921  0.036814157989830905  1.0000
  H   H1        1.0  0.481778249764993  0.34541547025253294  0.22918566156385375  1.0000
  H   H2        1.0  0.5179686288066919  0.7707422385314403  0.6545079874927282  1.0000
  H   H3        1.0  0.2698538901079743  0.2070136720993716  0.937263853523511  1.0000
  H   H4        1.0  0.17347892277720692  0.06561149916316823  0.8860095694320479  1.0000
  H   H5        1.0  0.20947554085037023  0.9975873525609278  0.9636293588978547  1.0000
  H   H6        1.0  0.33591580699263085  0.06794734266311052  0.08915301784639239  1.0000
  H   H7        1.0  0.6013677677746756  0.9362981273202139  0.7217378659609041  1.0000
  H   H8        1.0  0.7298610004078014  0.06269571535145249  0.7927493841065213  1.0000
  H   H9        1.0  0.8262830778123061  0.11411215016568119  0.9341746949661668  1.0000
  H   H10       1.0  0.7904453183342283  0.036588738118418  0.0023017846998598787  1.0000
  H   H11       1.0  0.6641144361313565  0.9109784897879365  0.9320567099000953  1.0000
  H   H12       1.0  0.4048162105442116  0.39068059411980727  0.2298238262205814  1.0000
  H   H13       1.0  0.4976318492773686  0.26968604590803114  0.15186208077306418  1.0000
  H   H14       1.0  0.2739506129857149  0.37683046976494694  0.2086311655503295  1.0000
  H   H15       1.0  0.16070864156066014  0.2499066077916581  0.17589887621802794  1.0000
  H   H16       1.0  0.18041779907137817  0.13777689452251  0.16372241914735497  1.0000
  H   H17       1.0  0.3096832481207414  0.1512561973568722  0.18386044914979038  1.0000
  H   H18       1.0  0.5947898196892254  0.7700534572578448  0.609050515550038  1.0000
  H   H19       1.0  0.725590058695346  0.7912697061399925  0.622705502287708  1.0000
  H   H20       1.0  0.8390376049258991  0.82416891464797  0.7495693249432165  1.0000
  H   H21       1.0  0.8195723419631235  0.8364417744694493  0.8618321877608962  1.0000
  H   H22       1.0  0.6903676934125115  0.8162724500752248  0.8485574402049494  1.0000
  H   H23       1.0  0.39844520341436157  0.2781451014893222  0.06359165090525923  1.0000
  H   H24       1.0  0.502268121087326  0.8481399597155035  0.7303428390347549  1.0000
  H   H25       1.0  0.620133156904835  0.22685161550471378  0.3944031583597151  1.0000
  H   H26       1.0  0.6763806467571527  0.2225958359070219  0.5185003222021577  1.0000
  H   H27       1.0  0.6030286179317912  0.21417422859230584  0.5901733332760273  1.0000
  H   H28       1.0  0.47107703756203984  0.20957414026504037  0.5335933224740897  1.0000
  H   H29       1.0  0.415243817699654  0.2146350499461036  0.4089377971314576  1.0000
  H   H30       1.0  0.38002736729720255  0.6054818670652793  0.7732082341626381  1.0000
  H   H31       1.0  0.32409737782700904  0.4814243353771774  0.7776142696516716  1.0000
  H   H32       1.0  0.39772435681796026  0.410023953127336  0.7862249827376004  1.0000
  H   H33       1.0  0.5296661268145685  0.4667860331738327  0.7908137144247931  1.0000
  H   H34       1.0  0.5851770240117559  0.5913986852738944  0.785570010728243  1.0000
  H   H35       1.0  0.5768126553862986  0.10958379977081732  0.2652158987589531  1.0000
  H   H36       1.0  0.575623228131711  0.0045894871188352  0.2981813878097199  1.0000
  H   H37       1.0  0.4647669347263205  0.9249975686818744  0.3151335715606364  1.0000
  H   H38       1.0  0.3540460841043043  0.9529315446758632  0.2968066905659867  1.0000
  H   H39       1.0  0.3553478086604684  0.05852584936794611  0.26334272662347047  1.0000
  H   H40       1.0  0.4234041158728843  0.734747128611275  0.8905988092292674  1.0000
  H   H41       1.0  0.42481793451744915  0.7017766752386976  0.995639590786709  1.0000
  H   H42       1.0  0.5358908391093422  0.6850600372729617  0.0752446267025065  1.0000
  H   H43       1.0  0.6466300371337397  0.7036831586716091  0.04728799285215493  1.0000
  H   H44       1.0  0.6450711750949196  0.7370684888757068  0.9416111073056256  1.0000
  H   H45       1.0  0.6037613485488508  0.38065012365577644  0.3045225579504347  1.0000
  H   H46       1.0  0.39610347248031985  0.6953714595561918  0.6194103479150002  1.0000
  H   H47       1.0  0.6088639275839327  0.2927279187773734  0.22476494551401766  1.0000
  H   H48       1.0  0.3910397332218097  0.7751570001372843  0.707364543926758  1.0000
  H   H49       1.0  0.41279526112813153  0.20798544586003226  0.30261798566899495  1.0000
  H   H50       1.0  0.5873371221719523  0.6975050459916902  0.7920132561015052  1.0000
  H   H51       1.0  0.39719204497615124  0.12956196122448918  0.20044772589327658  1.0000
  H   H52       1.0  0.6029051620479604  0.7996519804873542  0.8704261567013061  1.0000
  C   C1        1.0  0.49522978155826536  0.6353121185145625  0.6378441431970502  1.0000
  C   C2        1.0  0.5047248876548736  0.36216469231472803  0.3646788876597498  1.0000
  C   C3        1.0  0.8068571221077078  0.160732624463229  0.14759355954721085  1.0000
  C   C4        1.0  0.19392784506290184  0.3548218024413429  0.3417901479581999  1.0000
  C   C5        1.0  0.806051849933148  0.6582622184464597  0.6451548819671373  1.0000
  C   C6        1.0  0.19311921127842874  0.8524156002303585  0.8392872942026697  1.0000
  C   C7        1.0  0.11935690788297389  0.3177410818238116  0.30492298873345186  1.0000
  C   C8        1.0  0.8806212686076406  0.6951607528370686  0.6822475976099935  1.0000
  C   C9        1.0  0.11855505889233342  0.8147696162782978  0.8018850765089809  1.0000
  C   C10       1.0  0.8814191308680961  0.19811134259646934  0.18523833105832213  1.0000
  C   C11       1.0  0.4967830639829316  0.8582042624122579  0.8600360066508371  1.0000
  C   C12       1.0  0.5032296545977957  0.1400086668610214  0.1417969862020386  1.0000
  C   C13       1.0  0.03787865874614481  0.276932461484094  0.2641564033967967  1.0000
  C   C14       1.0  0.9620997788810187  0.7359050839400539  0.7230690153299122  1.0000
  C   C15       1.0  0.03710491042755853  0.7737181533374199  0.7608532456137027  1.0000
  C   C16       1.0  0.9628748077325042  0.23913771032167117  0.22630896450628774  1.0000
  C   C17       1.0  0.7185696913502467  0.6143874154112936  0.6028244042229574  1.0000
  C   C18       1.0  0.2814106351110723  0.3971593336643481  0.3856456420252528  1.0000
  C   C19       1.0  0.7194235058872424  0.115915538884579  0.1045550328429599  1.0000
  C   C20       1.0  0.2805515763013063  0.8954596046708475  0.8841028506962374  1.0000
  C   C21       1.0  0.500019130433934  0.3934361674430065  0.606644396729429  1.0000
  C   C22       1.0  0.5000023422383961  0.894077498482993  0.10595077941892574  1.0000
  C   C23       1.0  0.49995648268072296  0.6139651541011801  0.3860663561283388  1.0000
  C   C24       1.0  0.4999975429462538  0.1132310589817038  0.8866983846007699  1.0000
  C   C25       1.0  0.49994239941352714  0.6575508795417522  0.34247941061220644  1.0000
  C   C26       1.0  0.5000194884073039  0.8505012158103042  0.14955262243312722  1.0000
  C   C27       1.0  0.4999944241990307  0.15678891507166537  0.8431200326292654  1.0000
  C   C28       1.0  0.49996066567268826  0.6947224297685394  0.30529710248238456  1.0000
  C   C29       1.0  0.5000169606477272  0.19399102357071032  0.8059710133971123  1.0000
  C   C30       1.0  0.4999667205516332  0.7353097451178315  0.26469579486953887  1.0000
  C   C31       1.0  0.5000221152592843  0.23462538912485087  0.7653723531691907  1.0000
  C   C32       1.0  0.5000129155448647  0.34985456437871687  0.6502629256712424  1.0000
  C   C33       1.0  0.49998754396678885  0.7727264222636947  0.22730944812196435  1.0000
  C   C34       1.0  0.5000286272386846  0.2720511708958285  0.7280042774769554  1.0000
  C   C35       1.0  0.5000026483149185  0.8133282620858466  0.18671741452499185  1.0000
  C   C36       1.0  0.5000165881218877  0.31267249041076883  0.6874137176268533  1.0000
  C   C37       1.0  0.36811180996774334  0.27272078278424766  0.20982981055360736  1.0000
  C   C38       1.0  0.35553268892473977  0.3350179280718777  0.215550466127354  1.0000
  C   C39       1.0  0.2818597423094005  0.3273568090470675  0.2037370518902506  1.0000
  C   C40       1.0  0.2184650219837465  0.25637918849783864  0.18522233184835102  1.0000
  C   C41       1.0  0.22966842136456486  0.1936741308708037  0.1786491364242977  1.0000
  C   C42       1.0  0.30358329105967385  0.20175015351246367  0.19085395373807756  1.0000
  C   C43       1.0  0.6317254783247891  0.790167351566332  0.7270666771159853  1.0000
  C   C44       1.0  0.6441695948903359  0.784400585506944  0.664694361171584  1.0000
  C   C45       1.0  0.717803877103556  0.7962315960985862  0.6722357612345036  1.0000
  C   C46       1.0  0.7813064333271812  0.8148336272445178  0.7431841042279359  1.0000
  C   C47       1.0  0.7702434653382612  0.8214527807812859  0.8059614230283572  1.0000
  C   C48       1.0  0.6963572950709391  0.8092270813072063  0.7980123668798526  1.0000
  C   C49       1.0  0.37726227127634354  0.1794213905643289  0.08726042551099765  1.0000
  C   C50       1.0  0.35668092329252227  0.21641072137281722  0.04201913050276567  1.0000
  C   C51       1.0  0.28413150538596454  0.1764289627644047  0.9706739754357656  1.0000
  C   C52       1.0  0.23027987798793964  0.09737359306544142  0.9419465703737657  1.0000
  C   C53       1.0  0.2502531742574519  0.059464489028314894  0.9854415984234776  1.0000
  C   C54       1.0  0.32269897042613144  0.1000155348374605  0.0575024859876692  1.0000
  C   C55       1.0  0.6226670087840916  0.9127234751835689  0.8205144070162902  1.0000
  C   C56       1.0  0.6431784025804177  0.9579320442218561  0.7834618697736884  1.0000
  C   C57       1.0  0.715665011454739  0.029321868499707207  0.8233820427859798  1.0000
  C   C58       1.0  0.7695195616455308  0.058133458272898515  0.9024550761051556  1.0000
  C   C59       1.0  0.7496470251010977  0.0146718878964336  0.9404049655822605  1.0000
  C   C60       1.0  0.677243873032026  0.9425727118651892  0.899914611132793  1.0000
  C   C61       1.0  0.45150914087432176  0.2881556039840234  0.2267621965450104  1.0000
  C   C62       1.0  0.5483583013175845  0.7732114062907699  0.7117672989116457  1.0000
  C   C63       1.0  0.4569384164101892  0.2319117278141718  0.1654623489274698  1.0000
  C   C64       1.0  0.5429920552702612  0.8345264062248177  0.7680774040744253  1.0000
  C   C65       1.0  0.5143745836227609  0.22354919327203504  0.3931369386631189  1.0000
  C   C66       1.0  0.5874246939100091  0.2246180682362251  0.4248705323366693  1.0000
  C   C67       1.0  0.6192303472288857  0.22148839032710296  0.4951842380140619  1.0000
  C   C68       1.0  0.5782333164942202  0.2167175108211623  0.5352287787777712  1.0000
  C   C69       1.0  0.5045879525381594  0.21426241005060112  0.5037437234031542  1.0000
  C   C70       1.0  0.4731817474891216  0.21731204617773872  0.4333823658032756  1.0000
  C   C71       1.0  0.4859003603649796  0.606970017704441  0.7765789264708332  1.0000
  C   C72       1.0  0.4128325932983614  0.5751064821413719  0.775461428596863  1.0000
  C   C73       1.0  0.3812140598191506  0.5048081014667148  0.7786689121333339  1.0000
  C   C74       1.0  0.4224133361290113  0.4649477879605825  0.7836092717910644  1.0000
  C   C75       1.0  0.4960494095297179  0.49653195488159696  0.786063001233778  1.0000
  C   C76       1.0  0.5272537669773172  0.5668624887310187  0.78291162783227  1.0000
  C   C77       1.0  0.4665629008926969  0.09287040332235817  0.2621471764913679  1.0000
  C   C78       1.0  0.5274253267416071  0.07581611921533239  0.2718186371080264  1.0000
  C   C79       1.0  0.5268812076528278  0.0160486130132256  0.29066829960011376  1.0000
  C   C80       1.0  0.4650133149519675  0.97154532869083  0.3001835693541181  1.0000
  C   C81       1.0  0.40315020914196237  0.9871502625958964  0.28982930038462473  1.0000
  C   C82       1.0  0.40397863786331817  0.0467835569944626  0.2707148999366851  1.0000
  C   C83       1.0  0.5337140691668126  0.7379766578376492  0.9072541913042614  1.0000
  C   C84       1.0  0.4728390751340824  0.7281634391977433  0.9243119184987377  1.0000
  C   C85       1.0  0.47351303902973296  0.7093354331393655  0.9841130744700378  1.0000
  C   C86       1.0  0.5355164322516686  0.6999664053549353  0.028640281914377442  1.0000
  C   C87       1.0  0.5973824992256596  0.7104461478637702  0.013021218697609442  1.0000
  C   C88       1.0  0.5964233728510493  0.7295386664554541  0.9533526576306314  1.0000
  C   C89       1.0  0.592866912104796  0.33281996342985554  0.3199436824868868  1.0000
  C   C90       1.0  0.40710015978979913  0.6800008499182655  0.6672792034518764  1.0000
  C   C91       1.0  0.5928690531998199  0.26990978080017664  0.26181934415586733  1.0000
  C   C92       1.0  0.4071292360993439  0.7381415054859772  0.7301943596592153  1.0000
  C   C93       1.0  0.47401064674034643  0.2226654285883143  0.3149059111826062  1.0000
  C   C94       1.0  0.5261204613615648  0.685171884565719  0.7773927473575882  1.0000
  C   C95       1.0  0.46172012506413296  0.158191133706076  0.24478796976278266  1.0000
  C   C96       1.0  0.5384131826166865  0.7552841009400098  0.8418706727352258  1.0000
  C   C97       1.0  0.5083468356013653  0.3005495622333357  0.31090228035311174  1.0000
  C   C98       1.0  0.49163592709739123  0.689097939278625  0.699477319530267  1.0000
  C   C99       1.0  0.5054752909035543  0.1966074789933501  0.20654027559325527  1.0000
  C   C100      1.0  0.49456010486557034  0.7934719800492971  0.8034527695097609  1.0000
  I   I1        1.0  0.6959669296679536  0.4017738472335353  0.44032573448205875  1.0000
  I   I2        1.0  0.30406481671199964  0.559579721031433  0.5984068131479106  1.0000
  I   I3        1.0  0.6940650281654044  0.2501789003865795  0.3060774932511379  1.0000
  I   I4        1.0  0.3060454108267977  0.6938257876702993  0.7500636653400647  1.0000
  O   O1        1.0  0.5000016452120662  0.5040936937850091  0.4959312032031846  1.0000
  O   O2        1.0  0.5436957382775705  0.43110170444266066  0.37416228275166924  1.0000
  O   O3        1.0  0.45787666612043415  0.06818757210009352  0.1185620407565438  1.0000
  O   O4        1.0  0.5403900111263483  0.6087785793083429  0.6608489468454195  1.0000
  O   O5        1.0  0.4596176907195115  0.33915650984815215  0.39124673151471256  1.0000
  O   O6        1.0  0.5421514189587313  0.88145429870427  0.9318521561379214  1.0000
  O   O7        1.0  0.4550110775911095  0.8856813779707409  0.8296592774677547  1.0000
  O   O8        1.0  0.5449382888184999  0.17036046235440244  0.11426746065122022  1.0000
  O   O9        1.0  0.4562051112604379  0.6257995859731267  0.5689140809006119  1.0000
  O   O10       1.0  0.6863809894756089  0.6006292134066129  0.6428476513922448  1.0000
  O   O11       1.0  0.3136027138104538  0.3571463687729661  0.3994059617005731  1.0000
  O   O12       1.0  0.6873009902330693  0.04277719299330579  0.08040665320876877  1.0000
  O   O13       1.0  0.3126848667658422  0.919599097472009  0.9572243503533568  1.0000
  O   O14       1.0  0.4999927634399486  0.004109485312873997  0.9959000607927776  1.0000
  O   O15       1.0  0.5588541772248021  0.463684952958161  0.6428487887180124  1.0000
  O   O16       1.0  0.4412237562042307  0.357239669819336  0.5364126018921169  1.0000
  O   O17       1.0  0.5618367994891288  0.9214771142848336  0.09915388344888504  1.0000
  O   O18       1.0  0.4382007190462999  0.9009030027201064  0.07857172759810978  1.0000
  O   O19       1.0  0.4564691553894208  0.6102853374873832  0.416378791638266  1.0000
  O   O20       1.0  0.5434425628436942  0.5836583041927739  0.3897290621223065  1.0000
  O   O21       1.0  0.4529066862655996  0.0397974171071667  0.8471346779439701  1.0000
  O   O22       1.0  0.5470709871976497  0.15279330800733254  0.9601170333266181  1.0000
  O   O23       1.0  0.6830126557527336  0.5941110068711168  0.5302607947716069  1.0000
  O   O24       1.0  0.3169621330343233  0.4697369778615865  0.4059052098415207  1.0000
  O   O25       1.0  0.6837020912790095  0.15375083313618626  0.09541352113524951  1.0000
  O   O26       1.0  0.3162717192148888  0.9046037789476172  0.8462628436394652  1.0000
