data_image0
_chemical_formula_structural       K4H32C28S4O22
_chemical_formula_sum              "K4 H32 C28 S4 O22"
_cell_length_a       6.199267629714913
_cell_length_b       10.402742656321685
_cell_length_c       16.049922854308363
_cell_angle_alpha    97.19128447119398
_cell_angle_beta     89.98385327552303
_cell_angle_gamma    107.3070839152161

_space_group_name_H-M_alt    "P 1"
_space_group_IT_number       1

loop_
  _space_group_symop_operation_xyz
  'x, y, z'

loop_
  _atom_site_type_symbol
  _atom_site_label
  _atom_site_symmetry_multiplicity
  _atom_site_fract_x
  _atom_site_fract_y
  _atom_site_fract_z
  _atom_site_occupancy
  K   K1        1.0  0.7507921336417241  0.9724714435991973  0.1063796127240693  1.0000
  K   K2        1.0  0.7783816629467567  0.02773489807450601  0.3934349664815998  1.0000
  K   K3        1.0  0.2492158483441855  0.027523043879611492  0.8936169330621125  1.0000
  K   K4        1.0  0.22161716677065615  0.972260645842219  0.6065660234178623  1.0000
  H   H1        1.0  0.396183599247877  0.7856056719243867  0.24049835860870417  1.0000
  H   H2        1.0  0.6103624907304024  0.21492402150354906  0.2594932929492941  1.0000
  H   H3        1.0  0.6038167578141511  0.2143929300107956  0.7595041150484221  1.0000
  H   H4        1.0  0.38963191418135784  0.7850755804081472  0.740507389591734  1.0000
  H   H5        1.0  0.7277812215387627  0.4281801218124529  0.05559352637168761  1.0000
  H   H6        1.0  0.29928086097525153  0.5717987992145624  0.4443865152686968  1.0000
  H   H7        1.0  0.27221580853833427  0.5718215054529523  0.9444066903924266  1.0000
  H   H8        1.0  0.7007147376798103  0.42819673408908454  0.5556132278631409  1.0000
  H   H9        1.0  0.14749244231929032  0.5607567988311644  0.2313209292798462  1.0000
  H   H10       1.0  0.5874991426427911  0.4400410837858716  0.2684961666818637  1.0000
  H   H11       1.0  0.8525020533577037  0.43923975595814113  0.7686795163870741  1.0000
  H   H12       1.0  0.41250476876821557  0.5599646330307522  0.7315074829107289  1.0000
  H   H13       1.0  0.10862798844435424  0.31653938312148006  0.18837517282693034  1.0000
  H   H14       1.0  0.7930013576411242  0.6842139371993595  0.31141878474647905  1.0000
  H   H15       1.0  0.8913723583029736  0.6834591964555444  0.8116248068311904  1.0000
  H   H16       1.0  0.2069988101544169  0.3157907422119663  0.6885822921596089  1.0000
  H   H17       1.0  0.052674383063703145  0.6090830662244571  0.0823380013087274  1.0000
  H   H18       1.0  0.4430121994268107  0.39094464593648587  0.4175914214213492  1.0000
  H   H19       1.0  0.9473279855306205  0.3909195590364547  0.9176604235276997  1.0000
  H   H20       1.0  0.5569793910531261  0.6090590080976312  0.5824083301455545  1.0000
  H   H21       1.0  0.9083457177173672  0.6184362195956936  0.986707415855996  1.0000
  H   H22       1.0  0.2893776994177842  0.38189227518723373  0.51324315239399  1.0000
  H   H23       1.0  0.09165019648828121  0.3815664012076708  0.013290385944443992  1.0000
  H   H24       1.0  0.7106225488282831  0.6181093347435437  0.4867551936389916  1.0000
  H   H25       1.0  0.09799642074700904  0.7686222697650962  0.0428470492251734  1.0000
  H   H26       1.0  0.3289896321513766  0.23158216460940656  0.4572272176325356  1.0000
  H   H27       1.0  0.902001023381935  0.23138341464627385  0.9571528598326822  1.0000
  H   H28       1.0  0.6710065491926118  0.7684113036477316  0.5427686265460849  1.0000
  H   H29       1.0  0.16582189376258333  0.0635845132064574  0.2282054694573858  1.0000
  H   H30       1.0  0.10270579184190626  0.9365631517833394  0.27184370617727893  1.0000
  H   H31       1.0  0.8341812571018609  0.9364099918899739  0.771792947175868  1.0000
  H   H32       1.0  0.8973004162904632  0.063437474939569  0.7281583014710551  1.0000
  C   C1        1.0  0.41804911905236253  0.35950231170086516  0.1199434284770291  1.0000
  C   C2        1.0  0.05891877611254884  0.6408766121943261  0.37996329463225464  1.0000
  C   C3        1.0  0.5819447810423242  0.6404962801872358  0.8800577986443585  1.0000
  C   C4        1.0  0.9410797735731435  0.3591280563209196  0.6200365353902696  1.0000
  C   C5        1.0  0.6025519479757407  0.4591012038040034  0.0938276229027579  1.0000
  C   C6        1.0  0.14341165171649098  0.5410763381309635  0.4060702092936666  1.0000
  C   C7        1.0  0.3974456802623436  0.5408983919521475  0.9061724359066403  1.0000
  C   C8        1.0  0.8565849668874393  0.4589212375780178  0.5939309386764576  1.0000
  C   C9        1.0  0.2527417729279477  0.39459089415792903  0.1688230299989897  1.0000
  C   C10       1.0  0.8586805908048236  0.6060536995340302  0.3310854621536876  1.0000
  C   C11       1.0  0.7472623978853578  0.605405653343837  0.8311767914725436  1.0000
  C   C12       1.0  0.14132976210146356  0.39395199379242746  0.6689156929761495  1.0000
  C   C13       1.0  0.27477532775781555  0.5315472210435175  0.1931518432213863  1.0000
  C   C14       1.0  0.7436786459127022  0.46913099042564  0.3067690383204038  1.0000
  C   C15       1.0  0.7252288430554971  0.46844932645824844  0.806847978250147  1.0000
  C   C16       1.0  0.25632897816964123  0.5308756967217789  0.6932297019616982  1.0000
  C   C17       1.0  0.6239669853940057  0.596107816686157  0.1182058649170941  1.0000
  C   C18       1.0  0.027697982908861753  0.4041109434774342  0.3817336859752558  1.0000
  C   C19       1.0  0.3760321676100277  0.4038948314989169  0.8817950541502172  1.0000
  C   C20       1.0  0.972298638273742  0.5958866378210886  0.6182680854946128  1.0000
  C   C21       1.0  0.4601459210275679  0.632939643931124  0.1696608155337103  1.0000
  C   C22       1.0  0.8272160896165489  0.3675037834083313  0.33025979885226064  1.0000
  C   C23       1.0  0.5398532371338192  0.36706301543302544  0.8303413505330964  1.0000
  C   C24       1.0  0.17278909340959808  0.6324947897301526  0.669739556958298  1.0000
  C   C25       1.0  0.9738174759096769  0.6712736291568222  0.049448217411274704  1.0000
  C   C26       1.0  0.3020786540520178  0.32891477746382247  0.4505597848514498  1.0000
  C   C27       1.0  0.026174715309927935  0.3287279989575751  0.9505519997006573  1.0000
  C   C28       1.0  0.6979138120419535  0.671077714872979  0.5494403451379171  1.0000
  S   S1        1.0  0.39772334065713016  0.1853164599099983  0.096718680017652  1.0000
  S   S2        1.0  0.21309896993849978  0.814926740479777  0.4033391704585014  1.0000
  S   S3        1.0  0.6022764806437026  0.8146810649271149  0.9032768562228384  1.0000
  S   S4        1.0  0.7869078595629376  0.18507190503974164  0.5966682907328575  1.0000
  O   O1        1.0  0.5738191885180726  0.17284771242940883  0.0381635586652607  1.0000
  O   O2        1.0  0.40128574961260466  0.8270743951825285  0.4619384595953164  1.0000
  O   O3        1.0  0.4261836823146582  0.8271559172655502  0.9618336980910557  1.0000
  O   O4        1.0  0.5987087847445379  0.17292224344989648  0.5380713385678533  1.0000
  O   O5        1.0  0.167164631350353  0.11470110329092624  0.0632216857461572  1.0000
  O   O6        1.0  0.05321695533830728  0.885736949501265  0.4368055144015486  1.0000
  O   O7        1.0  0.8328387185126831  0.8853034805322083  0.9367687914323001  1.0000
  O   O8        1.0  0.9467822832735991  0.11426264038234284  0.5631939207921519  1.0000
  O   O9        1.0  0.43571765214188224  0.14123049841845156  0.1794593781526075  1.0000
  O   O10       1.0  0.29559964287941654  0.8590904135176628  0.32063425626531483  1.0000
  O   O11       1.0  0.5642796218654669  0.8587619259948553  0.8205332694919393  1.0000
  O   O12       1.0  0.7044279734740402  0.1409143225676246  0.6793736771670424  1.0000
  O   O13       1.0  0.4930185661203056  0.767423567820714  0.19296937375830944  1.0000
  O   O14       1.0  0.7253687036383668  0.23305446899586704  0.3069760171125537  1.0000
  O   O15       1.0  0.5069704899595282  0.23257501373731063  0.8070306067114004  1.0000
  O   O16       1.0  0.2746266149849747  0.7669501889062931  0.6930225661423535  1.0000
  O   O17       1.0  0.7962576743136296  0.7021172863834623  0.0976116286044117  1.0000
  O   O18       1.0  0.09374168182226586  0.29801065898302437  0.4023929647812992  1.0000
  O   O19       1.0  0.20374368206785937  0.29788331324073175  0.90238726189299  1.0000
  O   O20       1.0  0.9062528138547281  0.7019858958062813  0.5976074808856211  1.0000
  O   O21       1.0  0.033092761258281124  0.999964924538844  0.25001253913451643  1.0000
  O   O22       1.0  0.9669167558082776  3.2637727052498846e-05  0.7499873609085768  1.0000
