data_image0
_chemical_formula_structural       Zn8H24C30O26
_chemical_formula_sum              "Zn8 H24 C30 O26"
_cell_length_a       13.021532645698034
_cell_length_b       13.661719574747778
_cell_length_c       15.305418593166454
_cell_angle_alpha    75.36794624556703
_cell_angle_beta     69.92300581640755
_cell_angle_gamma    72.80380877456966

_space_group_name_H-M_alt    "P 1"
_space_group_IT_number       1

loop_
  _space_group_symop_operation_xyz
  'x, y, z'

loop_
  _atom_site_type_symbol
  _atom_site_label
  _atom_site_symmetry_multiplicity
  _atom_site_fract_x
  _atom_site_fract_y
  _atom_site_fract_z
  _atom_site_occupancy
  Zn  Zn1       1.0  0.19010917658478385  0.08824551513195898  0.9018486027453677  1.0000
  Zn  Zn2       1.0  0.9634682461034744  0.014403978171110094  0.023632093763552534  1.0000
  Zn  Zn3       1.0  0.07007415702052809  0.131277796488213  0.11472467823931251  1.0000
  Zn  Zn4       1.0  0.19284400108765007  0.8994617174458099  0.07742552208943472  1.0000
  Zn  Zn5       1.0  0.6085544055152853  0.5201896066549806  0.6521247293961211  1.0000
  Zn  Zn6       1.0  0.7541542338723773  0.4815344323804425  0.4417987834046429  1.0000
  Zn  Zn7       1.0  0.6344379015584706  0.7098069588841937  0.47535847844669377  1.0000
  Zn  Zn8       1.0  0.48990684211082686  0.5498224042528079  0.488820136141719  1.0000
  H   H1        1.0  0.04699872301357291  0.10408358312094629  0.6739673863948213  1.0000
  H   H2        1.0  0.9308823507553825  0.0489143366278029  0.7476066014106453  1.0000
  H   H3        1.0  0.8134198155032664  0.23231664093275128  0.7753896424899339  1.0000
  H   H4        1.0  0.9871317818109588  0.26061298479186945  0.5794771331180897  1.0000
  H   H5        1.0  0.09529866162327494  0.44026883066511135  0.9018553198281651  1.0000
  H   H6        1.0  0.1550452629257109  0.433575809149275  0.9922370992471556  1.0000
  H   H7        1.0  0.34959304371975  0.40292517323634053  0.877294294462523  1.0000
  H   H8        1.0  0.20835365531326747  0.47331363131048204  0.7376121097140996  1.0000
  H   H9        1.0  0.5546673269074914  0.9502075778584781  0.8263834197260778  1.0000
  H   H10       1.0  0.5580322416450515  0.8542497102934873  0.9308977978010093  1.0000
  H   H11       1.0  0.5104526268723719  0.7305755116955833  0.8567521557685751  1.0000
  H   H12       1.0  0.620651622297615  0.8794676020079136  0.6854416576722996  1.0000
  H   H13       1.0  0.6505249671095116  0.15510097820970967  0.23398453138822362  1.0000
  H   H14       1.0  0.7188407445652629  0.0642188898407028  0.31219391708508937  1.0000
  H   H15       1.0  0.7861318481544971  0.21717058791340083  0.33610025745554856  1.0000
  H   H16       1.0  0.5494306503271034  0.3124439103399794  0.31194251578450866  1.0000
  H   H17       1.0  0.9887000426996553  0.686351440963797  0.9979311516563673  1.0000
  H   H18       1.0  0.10917790817572383  0.6244099150356702  0.037890344751552577  1.0000
  H   H19       1.0  0.9515425197951757  0.5636402018917792  0.16384883898552985  1.0000
  H   H20       1.0  0.8890914739561069  0.787632406186958  0.20293512198171734  1.0000
  H   H21       1.0  0.15293885898502418  0.010565061750540396  0.3813234650335957  1.0000
  H   H22       1.0  0.07357462218904935  0.9183102273762529  0.39776361192470233  1.0000
  H   H23       1.0  0.25271922070558617  0.7758675164188132  0.36565563719204874  1.0000
  H   H24       1.0  0.32758920962653804  0.9386187368458251  0.4229119981783427  1.0000
  C   C1        1.0  0.010272551777461603  0.0977618400441926  0.8229326531869392  1.0000
  C   C2        1.0  0.9727665817545414  0.11253534716739466  0.7356062101437504  1.0000
  C   C3        1.0  0.8913973152047278  0.21391778594430372  0.7190806720200128  1.0000
  C   C4        1.0  0.909943124785656  0.2788576238732147  0.6363585463870366  1.0000
  C   C5        1.0  0.826835145784344  0.37218024610483963  0.609487899005309  1.0000
  C   C6        1.0  0.1621361266826185  0.2876508213040053  0.9612295410169339  1.0000
  C   C7        1.0  0.16809864691265364  0.4017664622738834  0.9291338112998488  1.0000
  C   C8        1.0  0.27388205469364374  0.42018082430961096  0.8550619991731169  1.0000
  C   C9        1.0  0.28081857248943004  0.45677530395817445  0.7638643170641899  1.0000
  C   C10       1.0  0.38532935747560515  0.47839409618593004  0.6917621284907228  1.0000
  C   C11       1.0  0.39397539848017976  0.9258428759479497  0.9172936443710358  1.0000
  C   C12       1.0  0.5193769104891645  0.8852721178946933  0.8729328945179019  1.0000
  C   C13       1.0  0.5400584708821229  0.8009362845969505  0.8183802741878664  1.0000
  C   C14       1.0  0.5923585155944194  0.8091700798797274  0.725528744909994  1.0000
  C   C15       1.0  0.6123847721561972  0.729064222015694  0.6683193758676114  1.0000
  C   C16       1.0  0.8304881038554015  0.11796321593110548  0.18421153620272426  1.0000
  C   C17       1.0  0.7212449385613909  0.13892753207051098  0.26307021283867027  1.0000
  C   C18       1.0  0.7135219104175688  0.22192648991803307  0.31361983185131953  1.0000
  C   C19       1.0  0.6249280955360846  0.30190044827579493  0.3324073906512055  1.0000
  C   C20       1.0  0.6236842449286186  0.3809748298201612  0.3835252507090845  1.0000
  C   C21       1.0  0.04991619372420085  0.7865980734629544  0.04639754330254681  1.0000
  C   C22       1.0  0.02835906084692399  0.6816369430178852  0.05239397261816237  1.0000
  C   C23       1.0  0.9544006443296951  0.6456118882000723  0.14784554543149403  1.0000
  C   C24       1.0  0.8926206274748694  0.7047780394033154  0.21402857123415936  1.0000
  C   C25       1.0  0.8218247589844199  0.6624174085075791  0.30637522404745704  1.0000
  C   C26       1.0  0.1560258612867216  0.9673040240893512  0.25526276868644976  1.0000
  C   C27       1.0  0.15463522318323444  0.9400141706189087  0.35863261939358176  1.0000
  C   C28       1.0  0.24837272968691337  0.8522245198875495  0.37860077766404054  1.0000
  C   C29       1.0  0.3270963458894229  0.8634230970978364  0.41081124503060107  1.0000
  C   C30       1.0  0.4193295232015616  0.7760069577925889  0.43138867963696736  1.0000
  O   O1        1.0  0.10484748751335363  0.033360335652723394  0.02909758236403089  1.0000
  O   O2        1.0  0.935549592599976  0.08859483573667859  0.9024578823407269  1.0000
  O   O3        1.0  0.11332389274267031  0.09471205161855067  0.8088969724655259  1.0000
  O   O4        1.0  0.8533975528494082  0.410475445101369  0.5213541411172855  1.0000
  O   O5        1.0  0.7370414773223642  0.4054594185441617  0.6723949387451571  1.0000
  O   O6        1.0  0.11720296794559462  0.2604885112304273  0.049231562877970696  1.0000
  O   O7        1.0  0.19864366338022424  0.2313760123810056  0.8975171353404008  1.0000
  O   O8        1.0  0.37825497070732433  0.5086089749988005  0.6072863768527911  1.0000
  O   O9        1.0  0.4715003067348462  0.4667229140304767  0.7186677718774988  1.0000
  O   O10       1.0  0.350335396310392  0.8778521037332537  0.9985307805406266  1.0000
  O   O11       1.0  0.3443940169622551  0.0033059773167351983  0.8684891644461034  1.0000
  O   O12       1.0  0.652213380215116  0.7570236541904192  0.5792489065825353  1.0000
  O   O13       1.0  0.5892024123479871  0.6411412735450739  0.7099810746553247  1.0000
  O   O14       1.0  0.9066281469238219  0.1622405174913339  0.17774203967638166  1.0000
  O   O15       1.0  0.8363198186261513  0.056191191707199585  0.1316480187241354  1.0000
  O   O16       1.0  0.5315414594818222  0.44968099880669127  0.4034222990353058  1.0000
  O   O17       1.0  0.712995657195812  0.374941297702307  0.4038662104346925  1.0000
  O   O18       1.0  0.13617465590398578  0.785090869825538  0.06846974006948163  1.0000
  O   O19       1.0  0.9780789139184306  0.8665369498975152  0.02291470512763291  1.0000
  O   O20       1.0  0.7586290837183965  0.7290658181758545  0.35960844957761406  1.0000
  O   O21       1.0  0.8288664146275337  0.5644371643832001  0.3258130960416565  1.0000
  O   O22       1.0  0.18131647136205936  0.8922623486273052  0.21073238258442473  1.0000
  O   O23       1.0  0.12943543205147276  0.0638688566912791  0.22304317691156683  1.0000
  O   O24       1.0  0.49469262901410355  0.8010541552528992  0.45183833926496675  1.0000
  O   O25       1.0  0.4169930565154516  0.6844231739271932  0.4275556326836778  1.0000
  O   O26       1.0  0.619258540833755  0.5656532918028602  0.517551425432565  1.0000
