data_image0
_chemical_formula_structural       Sm2H32C30O22
_chemical_formula_sum              "Sm2 H32 C30 O22"
_cell_length_a       8.01155169556808
_cell_length_b       9.42703985198899
_cell_length_c       12.820037287047304
_cell_angle_alpha    105.29199223418696
_cell_angle_beta     95.69621742994663
_cell_angle_gamma    109.46273597078537

_space_group_name_H-M_alt    "P 1"
_space_group_IT_number       1

loop_
  _space_group_symop_operation_xyz
  'x, y, z'

loop_
  _atom_site_type_symbol
  _atom_site_label
  _atom_site_symmetry_multiplicity
  _atom_site_fract_x
  _atom_site_fract_y
  _atom_site_fract_z
  _atom_site_occupancy
  Sm  Sm1       1.0  0.6372885876140798  0.22398011320829173  0.5146276213795743  1.0000
  Sm  Sm2       1.0  0.36270653987394036  0.7760141388577538  0.4853696709692911  1.0000
  H   H1        1.0  0.5342041692299659  0.013311033248811596  0.8092890912201084  1.0000
  H   H2        1.0  0.46580111905218063  0.9866835375480395  0.19070732124535542  1.0000
  H   H3        1.0  0.7117384460223944  0.944168891459107  0.7792491913418971  1.0000
  H   H4        1.0  0.28827497213269027  0.055840155357465386  0.22075660521963408  1.0000
  H   H5        1.0  0.5916112630930431  0.8856832775358259  0.9289788679738249  1.0000
  H   H6        1.0  0.40839787484554085  0.11431149089833073  0.0710201567805342  1.0000
  H   H7        1.0  0.6618048664372722  0.8060926346039993  0.08779880058091291  1.0000
  H   H8        1.0  0.3382057700001583  0.19390924008181545  0.9122031746955485  1.0000
  H   H9        1.0  0.09420927201285423  0.2618691703953716  0.24082183234680338  1.0000
  H   H10       1.0  0.9058059129803981  0.7381315329043973  0.7591739662154707  1.0000
  H   H11       1.0  0.032793541027650995  0.33808960376711644  0.0729135826061977  1.0000
  H   H12       1.0  0.9672056304055586  0.6619118446483867  0.9270868325932753  1.0000
  H   H13       1.0  0.9372242934186304  0.8086627456899224  0.3227848973168719  1.0000
  H   H14       1.0  0.06276820040164924  0.19134088563303214  0.6772186284549162  1.0000
  H   H15       1.0  0.7522141696585437  0.7620364396931408  0.21647172423423908  1.0000
  H   H16       1.0  0.2477884744602363  0.23796748953041202  0.783530137055429  1.0000
  H   H17       1.0  0.35559849975295077  0.3373682622431673  0.21570026753875024  1.0000
  H   H18       1.0  0.6444091748488745  0.6626324207256289  0.7843044292225726  1.0000
  H   H19       1.0  0.5024668026639603  0.5305678307142402  0.30203277622331365  1.0000
  H   H20       1.0  0.49752887509240645  0.4694310952327997  0.6979646236885414  1.0000
  H   H21       1.0  0.7506312872890746  0.40106942461374473  0.0083437294518305  1.0000
  H   H22       1.0  0.249349403974513  0.5989394483995981  0.991653010032195  1.0000
  H   H23       1.0  0.34080747488646784  0.534990045682328  0.15615977621214233  1.0000
  H   H24       1.0  0.6591671945700173  0.4650032981294744  0.8438290761202579  1.0000
  H   H25       1.0  0.68655325435207  0.5739486073343656  0.5853817449784343  1.0000
  H   H26       1.0  0.3134542548837446  0.42604844088204175  0.41461759661039105  1.0000
  H   H27       1.0  0.8705137349209624  0.5591880224111705  0.5594025517820356  1.0000
  H   H28       1.0  0.12948846814212095  0.4408018052370793  0.4405943653906446  1.0000
  H   H29       1.0  0.06679806929089695  0.3711624992221659  0.5936715178511347  1.0000
  H   H30       1.0  0.9332007382312497  0.6288379517251388  0.40633571415527564  1.0000
  H   H31       1.0  0.9732063374457312  0.22418622802541682  0.4821009161416752  1.0000
  H   H32       1.0  0.02680050437760432  0.7758122517049486  0.517909568246381  1.0000
  C   C1        1.0  0.6885590254016735  0.11116624503267053  0.7019881600315612  1.0000
  C   C2        1.0  0.3114458779781303  0.8888272866355749  0.2980135000434031  1.0000
  C   C3        1.0  0.6769199634174541  0.05066308051108591  0.8001464813910031  1.0000
  C   C4        1.0  0.32308386152793406  0.9493374048203976  0.19985560308142417  1.0000
  C   C5        1.0  0.8143171350819004  0.11495892832324732  0.9876509082596951  1.0000
  C   C6        1.0  0.18568366505407846  0.8850402403100048  0.012349190105304317  1.0000
  C   C7        1.0  0.7066578894330744  0.9681429828243181  0.9945668851451044  1.0000
  C   C8        1.0  0.2933531948805098  0.03186005597131471  0.005434550114131305  1.0000
  C   C9        1.0  0.7454420746667624  0.9235400029069539  0.08744642640953514  1.0000
  C   C10       1.0  0.25456765552272037  0.07645952272901721  0.912555844302659  1.0000
  C   C11       1.0  0.8905356314443722  0.026765158792351  0.17367226646191364  1.0000
  C   C12       1.0  0.109475911240999  0.9732390649433144  0.8263294133788149  1.0000
  C   C13       1.0  0.9891691600370648  0.1783765493871101  0.16982615604084114  1.0000
  C   C14       1.0  0.010844082256369411  0.8216288418468738  0.8301735007494813  1.0000
  C   C15       1.0  0.9528820028177378  0.2218473150159923  0.07747067381277616  1.0000
  C   C16       1.0  0.04712400109877989  0.7781555644142415  0.9225312013881605  1.0000
  C   C17       1.0  0.8448560367717446  0.8574485118377737  0.28925435369351504  1.0000
  C   C18       1.0  0.15514234130134943  0.14255411812925436  0.7107477891206242  1.0000
  C   C19       1.0  0.7370602546166228  0.9009939497298947  0.3759072728986935  1.0000
  C   C20       1.0  0.2629395972888632  0.09900278653270082  0.6240899825071935  1.0000
  C   C21       1.0  0.5495105564232788  0.341636924302712  0.34309619826876053  1.0000
  C   C22       1.0  0.4504916792377287  0.6583692256009784  0.656902143026059  1.0000
  C   C23       1.0  0.4971828064756069  0.41117258016821273  0.25795143318143937  1.0000
  C   C24       1.0  0.502817187240467  0.5888310506555144  0.7420424097925888  1.0000
  C   C25       1.0  0.5532834319899821  0.462371082312835  0.0931187441748733  1.0000
  C   C26       1.0  0.44668944963706286  0.5376305633553572  0.9068785369593542  1.0000
  C   C27       1.0  0.6423637859645199  0.4462234212877548  0.005087274675119619  1.0000
  C   C28       1.0  0.3576162342113989  0.5537739249438616  0.9949143388752046  1.0000
  C   C29       1.0  0.41072305454526514  0.5172891464228613  0.08817034841181481  1.0000
  C   C30       1.0  0.5892588663479259  0.4827034285537409  0.9118242685156089  1.0000
  O   O1        1.0  0.7819986276889209  0.25105855882348044  0.7072250005262004  1.0000
  O   O2        1.0  0.21799785024801832  0.7489262481065426  0.2927651876367747  1.0000
  O   O3        1.0  0.5902272552693901  0.009187647724466796  0.6091060903226334  1.0000
  O   O4        1.0  0.4097809905920613  0.9908177507857304  0.39090028319910175  1.0000
  O   O5        1.0  0.7951664266043393  0.1664143189467211  0.8973122124880887  1.0000
  O   O6        1.0  0.20482728746093676  0.83358925327412  0.1026874764543848  1.0000
  O   O7        1.0  0.9555943362650935  0.9907297493219999  0.263742642781679  1.0000
  O   O8        1.0  0.0443992569808742  0.009266969998115797  0.7362620277900758  1.0000
  O   O9        1.0  0.7833392078772264  0.046737716607594806  0.430663867596884  1.0000
  O   O10       1.0  0.216651300149671  0.9532542595639273  0.5693413076820945  1.0000
  O   O11       1.0  0.6090055115638506  0.7876640136049815  0.38838713285963417  1.0000
  O   O12       1.0  0.39098588965120484  0.2123335922553338  0.6116097639779667  1.0000
  O   O13       1.0  0.4454610666840537  0.3257635312263716  0.4134349082211059  1.0000
  O   O14       1.0  0.5545535995277504  0.6742325606830093  0.5865631365743269  1.0000
  O   O15       1.0  0.6856374014592745  0.3024667046817627  0.347334183525497  1.0000
  O   O16       1.0  0.3143735421547476  0.6975456993175797  0.6526697344916029  1.0000
  O   O17       1.0  0.6118768759173605  0.4192750472600509  0.18058312652100736  1.0000
  O   O18       1.0  0.3881045772194298  0.5807325817111534  0.8194095315522175  1.0000
  O   O19       1.0  0.7654004950567028  0.5107506479949394  0.5901748607121816  1.0000
  O   O20       1.0  0.2346057309602969  0.4892463343423614  0.40982361011367624  1.0000
  O   O21       1.0  0.9894166911353465  0.3357402399406412  0.5208195684455673  1.0000
  O   O22       1.0  0.010590881074286171  0.6642569332569864  0.4791844807355403  1.0000
