data_image0
_chemical_formula_structural       Mn4H20C20N8Cl4O12
_chemical_formula_sum              "Mn4 H20 C20 N8 Cl4 O12"
_cell_length_a       8.719709804435455
_cell_length_b       8.719673193205487
_cell_length_c       11.801298944289028
_cell_angle_alpha    101.7679615536711
_cell_angle_beta     101.7681308196759
_cell_angle_gamma    110.1693409849353

_space_group_name_H-M_alt    "P 1"
_space_group_IT_number       1

loop_
  _space_group_symop_operation_xyz
  'x, y, z'

loop_
  _atom_site_type_symbol
  _atom_site_label
  _atom_site_symmetry_multiplicity
  _atom_site_fract_x
  _atom_site_fract_y
  _atom_site_fract_z
  _atom_site_occupancy
  Mn  Mn1       1.0  0.7049206998494241  0.955099885718539  0.27297356450630866  1.0000
  Mn  Mn2       1.0  0.9550997095279073  0.7049212903311359  0.7729744684595018  1.0000
  Mn  Mn3       1.0  0.29507783926804615  0.044898004762970296  0.7270259733322104  1.0000
  Mn  Mn4       1.0  0.04489935391053023  0.2950778831202073  0.22702703549429504  1.0000
  H   H1        1.0  0.6834462633213151  0.9960555336853717  0.4989312808287564  1.0000
  H   H2        1.0  0.9960554758392559  0.6834462829351153  0.9989296604510682  1.0000
  H   H3        1.0  0.3165551353846324  0.0039436251785503  0.5010688768733047  1.0000
  H   H4        1.0  0.003942934171781985  0.31655417067641156  0.0010685481520837814  1.0000
  H   H5        1.0  0.6818856631112952  0.33357182457563533  0.3924363587478296  1.0000
  H   H6        1.0  0.3335722574048603  0.6818859459816976  0.8924364862392548  1.0000
  H   H7        1.0  0.3181150879470351  0.6664286202218149  0.6075638947988933  1.0000
  H   H8        1.0  0.6664279736673323  0.3181132201759382  0.10756434458867402  1.0000
  H   H9        1.0  0.44226104870148225  0.43992413308315287  0.3727720142800236  1.0000
  H   H10       1.0  0.43992456786028106  0.44226171596073266  0.8727692853450008  1.0000
  H   H11       1.0  0.5577380161818938  0.5600750418115296  0.6272303374726034  1.0000
  H   H12       1.0  0.5600756632119114  0.5577374501969032  0.12723154548292825  1.0000
  H   H13       1.0  0.10003119247380013  0.9643574605276299  0.13662624154227387  1.0000
  H   H14       1.0  0.9643560496283997  0.10003079346671478  0.6366259599913277  1.0000
  H   H15       1.0  0.899970078570668  0.03564426290964919  0.8633734347232502  1.0000
  H   H16       1.0  0.035644699984985144  0.8999696498873958  0.36337344575657216  1.0000
  H   H17       1.0  0.5123325800322859  0.845656830880877  0.41849327225520466  1.0000
  H   H18       1.0  0.8456566104782228  0.5123323329150083  0.9184924632215965  1.0000
  H   H19       1.0  0.487668817228716  0.15434232653970528  0.5815060376480259  1.0000
  H   H20       1.0  0.15434296861151608  0.48766811484613726  0.08150592005451777  1.0000
  C   C1        1.0  0.5516278571495336  0.2516921287311575  0.3347918752839546  1.0000
  C   C2        1.0  0.2516935598548215  0.5516285443201737  0.8347914324488952  1.0000
  C   C3        1.0  0.4483717262750347  0.7483083233600142  0.6652090513886435  1.0000
  C   C4        1.0  0.7483078402960645  0.44837061598708766  0.1652095730519959  1.0000
  C   C5        1.0  0.4207312975837992  0.30992109580001437  0.32478824362652847  1.0000
  C   C6        1.0  0.30991993234586357  0.4207311131043807  0.8247849978674748  1.0000
  C   C7        1.0  0.5792689349333316  0.6900780718009611  0.6752134350002306  1.0000
  C   C8        1.0  0.6900786067716069  0.5792667773771285  0.17521453997105138  1.0000
  C   C9        1.0  0.23016653315145416  0.04640874660522339  0.19415595761343946  1.0000
  C   C10       1.0  0.04640748901572782  0.2301662557002899  0.6941542783323413  1.0000
  C   C11       1.0  0.7698342179068759  0.953591698192227  0.8058442959332905  1.0000
  C   C12       1.0  0.9535915715328259  0.7698329148643809  0.30584553002380227  1.0000
  C   C13       1.0  0.3607600371341348  0.9873997940109405  0.20563927537298096  1.0000
  C   C14       1.0  0.9874008644636589  0.36076027976192654  0.7056399838007363  1.0000
  C   C15       1.0  0.6392395419556038  0.012600653750204999  0.7943591079031261  1.0000
  C   C16       1.0  0.012599365163588111  0.6392388849523697  0.29435999922836936  1.0000
  C   C17       1.0  0.3296891991375901  0.8044281860810328  0.14673017335495325  1.0000
  C   C18       1.0  0.8044322375103761  0.3296974494597364  0.646733170662486  1.0000
  C   C19       1.0  0.6703110261548275  0.19557097430324433  0.8532672662776688  1.0000
  C   C20       1.0  0.19557007639624396  0.6703068341438579  0.35326704663827957  1.0000
  N   N1        1.0  0.5215094530363656  0.0913233684399941  0.27426702835109035  1.0000
  N   N2        1.0  0.0913250601614237  0.5215109949462188  0.7742665741644571  1.0000
  N   N3        1.0  0.47849129802195733  0.9086770763574563  0.7257332251956328  1.0000
  N   N4        1.0  0.9086751694658234  0.47848816976807745  0.22573340886464163  1.0000
  N   N5        1.0  0.2605532749113166  0.207367729796843  0.2534539429064111  1.0000
  N   N6        1.0  0.2073669234734794  0.2605530231738483  0.7534525145234522  1.0000
  N   N7        1.0  0.739446309958204  0.7926327237376614  0.7465478315650101  1.0000
  N   N8        1.0  0.7926321399649581  0.7394461502775015  0.24654898943034442  1.0000
  Cl  Cl1       1.0  0.9642937980207691  0.20414173911527203  0.40475498592935816  1.0000
  Cl  Cl2       1.0  0.2041406696773081  0.964293465239024  0.9047533825770557  1.0000
  Cl  Cl3       1.0  0.03570474543153787  0.7958561556962493  0.5952470953056446  1.0000
  Cl  Cl4       1.0  0.795859557060055  0.0357056965885931  0.09524490485439685  1.0000
  O   O1        1.0  0.46019265089238104  0.7691012688825083  0.1542203419156606  1.0000
  O   O2        1.0  0.7691040320677943  0.46019442035154157  0.6542219449229945  1.0000
  O   O3        1.0  0.5398069296423034  0.23089918032198398  0.8457788891592839  1.0000
  O   O4        1.0  0.23089840950031265  0.5398072986786959  0.34577875381430795  1.0000
  O   O5        1.0  0.17647623301586898  0.6961240332920512  0.09790883092602341  1.0000
  O   O6        1.0  0.6961233640746441  0.17647701019011214  0.5979092114905596  1.0000
  O   O7        1.0  0.8235215250127228  0.3038777019229856  0.9020869301253214  1.0000
  O   O8        1.0  0.30387621212521054  0.823523434684354  0.4020874761878942  1.0000
  O   O9        1.0  0.6387158868348524  0.8879401158406068  0.43148885974326123  1.0000
  O   O10       1.0  0.8879403378958913  0.6387167666782503  0.9314864761771275  1.0000
  O   O11       1.0  0.36128499332990327  0.11205776582683309  0.5685127230388287  1.0000
  O   O12       1.0  0.11205924263879302  0.36128368252624204  0.0685127548978102  1.0000
