data_image0
_chemical_formula_structural       Zn4P4H20C4N4O12
_chemical_formula_sum              "Zn4 P4 H20 C4 N4 O12"
_cell_length_a       5.215733546396487
_cell_length_b       8.438808563759558
_cell_length_c       10.77493896924441
_cell_angle_alpha    89.99995751387364
_cell_angle_beta     89.99776603165134
_cell_angle_gamma    100.78417479007818

_space_group_name_H-M_alt    "P 1"
_space_group_IT_number       1

loop_
  _space_group_symop_operation_xyz
  'x, y, z'

loop_
  _atom_site_type_symbol
  _atom_site_label
  _atom_site_symmetry_multiplicity
  _atom_site_fract_x
  _atom_site_fract_y
  _atom_site_fract_z
  _atom_site_occupancy
  Zn  Zn1       1.0  0.9840306546728144  0.1808961128100819  0.3704606254976213  1.0000
  Zn  Zn2       1.0  0.5160034606644217  0.319127970165539  0.8704702529216847  1.0000
  Zn  Zn3       1.0  0.01598014511893093  0.8191175901488206  0.6295380129817261  1.0000
  Zn  Zn4       1.0  0.4839857891310401  0.680863910531805  0.1295358104255513  1.0000
  P   P1        1.0  0.7672578275886649  0.3750555176262296  0.1433231598286469  1.0000
  P   P2        1.0  0.7327446853649064  0.12494556442995727  0.6433295076894296  1.0000
  P   P3        1.0  0.2327377347015016  0.6249315932598806  0.8566745507538229  1.0000
  P   P4        1.0  0.26726316289576596  0.8750645060521337  0.3566774835382773  1.0000
  H   H1        1.0  0.9981982896822145  0.4872186191423324  0.1647873576738448  1.0000
  H   H2        1.0  0.5017684885649346  0.012784491498756302  0.664775065980173  1.0000
  H   H3        1.0  0.0018047533466471757  0.5127745642114903  0.8352020001151317  1.0000
  H   H4        1.0  0.49823839694302996  0.9872087193793103  0.3352180040919421  1.0000
  H   H5        1.0  0.4625558962286789  0.252463207678545  0.4208339633344309  1.0000
  H   H6        1.0  0.03744831533653327  0.24752196473247065  0.9208462255864945  1.0000
  H   H7        1.0  0.5374549033246083  0.7475504952627006  0.5791702436219381  1.0000
  H   H8        1.0  0.9625302980888859  0.7524662284483981  0.0791579817043129  1.0000
  H   H9        1.0  0.3904428319288299  0.3806740329744541  0.3170611927934814  1.0000
  H   H10       1.0  0.10958406589272576  0.119346805637548  0.8170595835211786  1.0000
  H   H11       1.0  0.6095569877709223  0.6193347762081486  0.6829457985091096  1.0000
  H   H12       1.0  0.8903932465956927  0.8806570272195698  0.1829371991192232  1.0000
  H   H13       1.0  0.3164766858796567  0.3902524574724281  0.5893622295208516  1.0000
  H   H14       1.0  0.1835032150125144  0.10972480905928707  0.089362000265595  1.0000
  H   H15       1.0  0.6835459844751809  0.6097625342748925  0.4106512581207866  1.0000
  H   H16       1.0  0.8164702496181205  0.8902452907452768  0.9106310701481348  1.0000
  H   H17       1.0  0.22148949218762934  0.5305513209499324  0.48324160494539825  1.0000
  H   H18       1.0  0.2784974763671712  0.9694331197904944  0.9832320488680467  1.0000
  H   H19       1.0  0.7785480008575263  0.4694685921067503  0.5167644579176242  1.0000
  H   H20       1.0  0.7214806563376684  0.030546643636910197  0.0167498845331622  1.0000
  C   C1        1.0  0.3608598469224091  0.4502860552667087  0.49930646025549663  1.0000
  C   C2        1.0  0.1391160948027803  0.0496767973643983  0.9993017640206432  1.0000
  C   C3        1.0  0.6391574029588226  0.5497301014187312  0.5007023870358154  1.0000
  C   C4        1.0  0.8608706144044334  0.95029941620308  0.0006857377857798  1.0000
  N   N1        1.0  0.32973634191728246  0.32568403261916506  0.4009036093062761  1.0000
  N   N2        1.0  0.17021461085127498  0.174290038344239  0.9009294866600612  1.0000
  N   N3        1.0  0.6702835156935762  0.6743345502773932  0.599108950275351  1.0000
  N   N4        1.0  0.8297644845267838  0.8257065846813063  0.099068224055749  1.0000
  O   O1        1.0  0.7691067640777688  0.23168656763751727  0.23050160304866546  1.0000
  O   O2        1.0  0.7308794994661695  0.26832352873714876  0.7305372031918012  1.0000
  O   O3        1.0  0.2309039640285205  0.7683066707736257  0.7694923950680703  1.0000
  O   O4        1.0  0.2691058409870238  0.731681565375304  0.2694735005662707  1.0000
  O   O5        1.0  0.5350058153445687  0.4599528554281918  0.1714468599701533  1.0000
  O   O6        1.0  0.9649718471054455  0.040029830922002  0.6714687715067457  1.0000
  O   O7        1.0  0.46498672970391647  0.5400438640057812  0.8285406417490507  1.0000
  O   O8        1.0  0.035032706538096495  0.9599754008705401  0.3285419320769378  1.0000
  O   O9        1.0  0.770450561221736  0.3260288762344743  0.0058338030704732  1.0000
  O   O10       1.0  0.7295707980756417  0.17399118484500778  0.5058335479407177  1.0000
  O   O11       1.0  0.22953752092588076  0.6739521622280478  0.9941583391129499  1.0000
  O   O12       1.0  0.27044103161018995  0.8260261367991575  0.4941641624437382  1.0000
