data_image0
_chemical_formula_structural       Cd4H24C44N40
_chemical_formula_sum              "Cd4 H24 C44 N40"
_cell_length_a       7.902614738330223
_cell_length_b       13.649567111888526
_cell_length_c       13.811117249987218
_cell_angle_alpha    110.79210742493098
_cell_angle_beta     94.61996454674892
_cell_angle_gamma    95.6110645128592

_space_group_name_H-M_alt    "P 1"
_space_group_IT_number       1

loop_
  _space_group_symop_operation_xyz
  'x, y, z'

loop_
  _atom_site_type_symbol
  _atom_site_label
  _atom_site_symmetry_multiplicity
  _atom_site_fract_x
  _atom_site_fract_y
  _atom_site_fract_z
  _atom_site_occupancy
  Cd  Cd1       1.0  0.999998772212166  0.9999998431364221  5.080387673886565e-08  1.0000
  Cd  Cd2       1.0  0.14019039783757847  0.5180063533159469  0.7112698457505217  1.0000
  Cd  Cd3       1.0  0.8598057013982512  0.4819930034317751  0.28872842952460326  1.0000
  Cd  Cd4       1.0  0.4999986133125418  2.6193197158001e-06  0.5000016591176077  1.0000
  H   H1        1.0  0.008735353548729584  0.3186285198391872  0.7770419902736734  1.0000
  H   H2        1.0  0.9912578602027367  0.6813692696124036  0.22295635009729142  1.0000
  H   H3        1.0  0.8736649094031251  0.6213163854606805  0.8669720762510238  1.0000
  H   H4        1.0  0.12633766336725216  0.37868294646563067  0.13303150264538022  1.0000
  H   H5        1.0  0.672388037420788  0.5848466688103998  0.9861511428281559  1.0000
  H   H6        1.0  0.3276161721226316  0.4151542383137823  0.013853050934464763  1.0000
  H   H7        1.0  0.6458936437825288  0.40641832297183095  0.001272370048347633  1.0000
  H   H8        1.0  0.35410782639532107  0.593581805346176  0.9987307230093448  1.0000
  H   H9        1.0  0.0672599577426922  0.23323538935172652  0.9428450401569181  1.0000
  H   H10       1.0  0.9327412321625775  0.7667639419087283  0.05715414169977619  1.0000
  H   H11       1.0  0.5348364151300231  0.19053611573205134  0.8469187842282011  1.0000
  H   H12       1.0  0.4651597607651113  0.809463245911445  0.1530823921907896  1.0000
  H   H13       1.0  0.088169810700812  0.13927722798908357  0.24295944677425746  1.0000
  H   H14       1.0  0.9118337880027955  0.8607213026497577  0.7570417168169852  1.0000
  H   H15       1.0  0.6168453789995495  0.0124630115704747  0.06414981039610979  1.0000
  H   H16       1.0  0.383156659590334  0.9875339487662631  0.9358536394727892  1.0000
  H   H17       1.0  0.4585050970885192  0.09224208244793183  0.2158874714463437  1.0000
  H   H18       1.0  0.5414983746611316  0.907755660924899  0.7841155832316461  1.0000
  H   H19       1.0  0.6273204945334926  0.19680611151057556  0.39149147445572646  1.0000
  H   H20       1.0  0.372688563736439  0.8031939755166775  0.6085111652594009  1.0000
  H   H21       1.0  0.18653280239479392  0.14224048248262025  0.4226120909961466  1.0000
  H   H22       1.0  0.8134747077264068  0.8577588141648887  0.5773865921940811  1.0000
  H   H23       1.0  0.8307073307766687  0.3637355674372245  0.4951556211035992  1.0000
  H   H24       1.0  0.169293324948093  0.6362613922336636  0.5048434317255897  1.0000
  C   C1        1.0  0.9335244255430696  0.376204316744527  0.8249949246994461  1.0000
  C   C2        1.0  0.06647169285758993  0.6237950412271404  0.17500407586164357  1.0000
  C   C3        1.0  0.8564621090388584  0.5448104706494449  0.8758718287116949  1.0000
  C   C4        1.0  0.1435393419741615  0.4551896564446238  0.12413053906002595  1.0000
  C   C5        1.0  0.7450035468932585  0.5241584832607558  0.9414580496829358  1.0000
  C   C6        1.0  0.2549962290170669  0.4758400661875513  0.05854225265063205  1.0000
  C   C7        1.0  0.7280565164729822  0.42465080211794526  0.9486678432188924  1.0000
  C   C8        1.0  0.27194454647832345  0.575347741876506  0.05133322972454833  1.0000
  C   C9        1.0  0.8223080068717509  0.34962835592987324  0.8880719314151476  1.0000
  C   C10       1.0  0.17768833430700678  0.6503717954275173  0.11192880448903952  1.0000
  C   C11       1.0  0.9339665313118531  0.19868100288235274  0.922225529656643  1.0000
  C   C12       1.0  0.0660290337434759  0.801315982275803  0.07777261659096987  1.0000
  C   C13       1.0  0.6591547283800382  0.17698533530784744  0.875096596031504  1.0000
  C   C14       1.0  0.3408399760256771  0.8230132408516654  0.12490352500646647  1.0000
  C   C15       1.0  0.9489478397226919  0.12939268077776234  0.24070502327551677  1.0000
  C   C16       1.0  0.05105598175901344  0.8706066432468021  0.7592978756588238  1.0000
  C   C17       1.0  0.6853106291913706  0.0604144523554524  0.140718304536243  1.0000
  C   C18       1.0  0.3146928233934503  0.9395832897934399  0.8592840248557748  1.0000
  C   C19       1.0  0.5977772975525397  0.1061050441894977  0.22557426140762257  1.0000
  C   C20       1.0  0.40222887523302836  0.8938934755416243  0.7744284434033588  1.0000
  C   C21       1.0  0.691110212486592  0.1645667200414138  0.32209675913624375  1.0000
  C   C22       1.0  0.3088961255825922  0.8354325894036023  0.6779055051599271  1.0000
  C   C23       1.0  0.8694742756325623  0.1752555494343326  0.32945251595920405  1.0000
  C   C24       1.0  0.13053202410696946  0.8247437575628002  0.6705482977650306  1.0000
  C   C25       1.0  0.1246255560090432  0.21012387189525583  0.46379192764557325  1.0000
  C   C26       1.0  0.8753795453138127  0.7898762253738668  0.5362047738101124  1.0000
  C   C27       1.0  0.9379651582647172  0.32179255009381796  0.5026088694051509  1.0000
  C   C28       1.0  0.06203959332608382  0.6782059665235708  0.49738798779418397  1.0000
  C   C29       1.0  0.8291549753335447  0.9227270765267548  0.3529226388983415  1.0000
  C   C30       1.0  0.1708426378194829  0.0772786101715681  0.6470793651179747  1.0000
  C   C31       1.0  0.12075118871780431  0.9339786585556527  0.349561105582076  1.0000
  C   C32       1.0  0.879243004770352  0.0660230892569658  0.6504408345025894  1.0000
  C   C33       1.0  0.5490372271009749  0.25768352893788926  0.6079846345234756  1.0000
  C   C34       1.0  0.4509625145778174  0.7423205600812608  0.3920154400263911  1.0000
  C   C35       1.0  0.4419820055002718  0.3910404401014348  0.7344297822315012  1.0000
  C   C36       1.0  0.5580255470487004  0.6089644010126846  0.2655715743188978  1.0000
  C   C37       1.0  0.37647058691614876  0.707525550609766  0.8827275794354179  1.0000
  C   C38       1.0  0.6235302340922361  0.29247219877501623  0.11727103287896058  1.0000
  C   C39       1.0  0.6527373518087388  0.7992680282770764  0.9215122255731882  1.0000
  C   C40       1.0  0.3472639801171979  0.20072654945460763  0.07848456769448828  1.0000
  C   C41       1.0  0.7743846640419461  0.6071898931922064  0.6497274923012809  1.0000
  C   C42       1.0  0.22560287146322372  0.39281108850398283  0.3502688593909439  1.0000
  C   C43       1.0  0.4804583490548282  0.6021642140209877  0.6316480332911141  1.0000
  C   C44       1.0  0.5195330020438009  0.39783752756415697  0.3683422115702655  1.0000
  N   N1        1.0  0.8674450643844055  0.10732679075020003  0.9244831340109982  1.0000
  N   N2        1.0  0.13255066595453968  0.8926709841218495  0.07551457172181131  1.0000
  N   N3        1.0  0.6931571862737584  0.09307984836768671  0.8948345901996007  1.0000
  N   N4        1.0  0.30683735284834057  0.906917938077932  0.10516597135317345  1.0000
  N   N5        1.0  0.8067703233412831  0.2461819670843752  0.89165201609174  1.0000
  N   N6        1.0  0.19322561061093066  0.7538165999494524  0.10834669969818826  1.0000
  N   N7        1.0  0.9500506896661707  0.4727310946047538  0.8201864600791423  1.0000
  N   N8        1.0  0.04994653132702349  0.5272674669752178  0.17981302632065882  1.0000
  N   N9        1.0  0.06344664181320782  0.351960337573246  0.580160980023841  1.0000
  N   N10       1.0  0.9365606646947241  0.6480381669124782  0.4198366931092679  1.0000
  N   N11       1.0  0.18161483243491014  0.281563419744316  0.5563045198227172  1.0000
  N   N12       1.0  0.8183933963152371  0.7184390394305994  0.4436945771661769  1.0000
  N   N13       1.0  0.9706261852664754  0.23159089150917112  0.4267907510636917  1.0000
  N   N14       1.0  0.029378623818800492  0.7684076287800465  0.5732082819935513  1.0000
  N   N15       1.0  0.8573313233326944  0.07216710489464621  0.14828529131874998  1.0000
  N   N16       1.0  0.14267172202558237  0.9278290529306829  0.851715017959023  1.0000
  N   N17       1.0  0.6966263332751694  0.9507469704469572  0.37607777899439304  1.0000
  N   N18       1.0  0.30336962803811224  0.0492626818482762  0.62392410765797  1.0000
  N   N19       1.0  0.9665601985661922  0.884367260180916  0.3196016173930828  1.0000
  N   N20       1.0  0.0334359430974089  0.1156376410334232  0.6803993312422065  1.0000
  N   N21       1.0  0.2658572180190149  0.9729916568546599  0.3698311755504306  1.0000
  N   N22       1.0  0.7341379319428897  0.027008506076299506  0.6301724161737212  1.0000
  N   N23       1.0  0.5573429466921098  0.1802949587722011  0.5353230271438534  1.0000
  N   N24       1.0  0.4426588581510843  0.8197122909923352  0.46468040767245355  1.0000
  N   N25       1.0  0.5628316702188487  0.3445817275594508  0.6876171617254982  1.0000
  N   N26       1.0  0.43716357246548654  0.6554247622083624  0.3123843111281984  1.0000
  N   N27       1.0  0.3475051642189655  0.44229136138380915  0.7873215102421298  1.0000
  N   N28       1.0  0.6524981121136478  0.5577166738646968  0.21268297995520413  1.0000
  N   N29       1.0  0.22902422555646504  0.6799183740673201  0.8518216926638474  1.0000
  N   N30       1.0  0.7709791503690511  0.3200793631857978  0.14817773558429792  1.0000
  N   N31       1.0  0.5347978798124801  0.7279462740081969  0.9234316270707339  1.0000
  N   N32       1.0  0.46520527333493794  0.2720506698592047  0.07656606583432077  1.0000
  N   N33       1.0  0.77299306810081  0.8598223253986674  0.9256683375035664  1.0000
  N   N34       1.0  0.22700986226850975  0.1401738250830036  0.0743276200583978  1.0000
  N   N35       1.0  0.9109122882120462  0.5791721797564762  0.6476509870315681  1.0000
  N   N36       1.0  0.08907545810622251  0.420828815403077  0.3523533428062962  1.0000
  N   N37       1.0  0.635170151002022  0.6500535856670737  0.6557057863034004  1.0000
  N   N38       1.0  0.36481906747272336  0.34994421157851013  0.34428516523618663  1.0000
  N   N39       1.0  0.33275440263186334  0.5685542499012328  0.6121028934909916  1.0000
  N   N40       1.0  0.6672341396417067  0.43144592928354814  0.38789031761010756  1.0000
