data_image0
_chemical_formula_structural       Ag4H24C16N8O8
_chemical_formula_sum              "Ag4 H24 C16 N8 O8"
_cell_length_a       6.421819720428854
_cell_length_b       6.71998393203096
_cell_length_c       12.291012616256875
_cell_angle_alpha    90.00017375334168
_cell_angle_beta     95.80330631832813
_cell_angle_gamma    89.99967337078098

_space_group_name_H-M_alt    "P 1"
_space_group_IT_number       1

loop_
  _space_group_symop_operation_xyz
  'x, y, z'

loop_
  _atom_site_type_symbol
  _atom_site_label
  _atom_site_symmetry_multiplicity
  _atom_site_fract_x
  _atom_site_fract_y
  _atom_site_fract_z
  _atom_site_occupancy
  Ag  Ag1       1.0  1.9019691421999998e-06  0.9999979267755918  6.680144079999996e-08  1.0000
  Ag  Ag2       1.0  0.9999988068548548  3.0215115316000002e-06  0.4999992605609903  1.0000
  Ag  Ag3       1.0  0.5000048232277976  0.32594351033387886  0.25000132969376654  1.0000
  Ag  Ag4       1.0  0.49999695249650233  0.6740647581358985  0.7499996275600579  1.0000
  H   H1        1.0  0.859561038561637  0.9966167191670436  0.24880021962118795  1.0000
  H   H2        1.0  0.1404415908617338  0.996615770669081  0.25119916984114343  1.0000
  H   H3        1.0  0.1404453536187162  0.0033855968906238  0.7511992941891774  1.0000
  H   H4        1.0  0.8595648790773964  0.0033835691952433  0.7488019747779687  1.0000
  H   H5        1.0  0.7809868945701763  0.5573892298069224  0.0771730315013244  1.0000
  H   H6        1.0  0.2190150240829141  0.5573902667281915  0.4228256226652221  1.0000
  H   H7        1.0  0.21901171283095516  0.4426145743728043  0.9228269854296582  1.0000
  H   H8        1.0  0.7809820574716326  0.442610561260281  0.577175147211939  1.0000
  H   H9        1.0  0.6585498542622902  0.7491327898815001  0.1495386547503514  1.0000
  H   H10       1.0  0.34145257325312167  0.7491312545444159  0.3504603283325308  1.0000
  H   H11       1.0  0.3414534473249944  0.2508725023843397  0.8504615495531596  1.0000
  H   H12       1.0  0.6585475988985793  0.25086510913710214  0.6495397510504475  1.0000
  H   H13       1.0  0.30859764032025083  0.7494462848912491  0.15344883438289258  1.0000
  H   H14       1.0  0.6914064279385884  0.749448713424293  0.3465518424063844  1.0000
  H   H15       1.0  0.691405739042203  0.2505500787860555  0.8465530007252368  1.0000
  H   H16       1.0  0.3085953477898046  0.250558066946688  0.6534491148464026  1.0000
  H   H17       1.0  0.16151931390223945  0.5571885990136494  0.08067674374388639  1.0000
  H   H18       1.0  0.8384857741884703  0.5571905989389447  0.4193228504642548  1.0000
  H   H19       1.0  0.8384825007219378  0.4428107408654754  0.9193250289091424  1.0000
  H   H20       1.0  0.1615128332126616  0.44281320524078194  0.5806771664667281  1.0000
  H   H21       1.0  0.9874178761249438  0.3072127279465634  0.17651461686793368  1.0000
  H   H22       1.0  0.012585497928839097  0.3072128936346914  0.32348532044514394  1.0000
  H   H23       1.0  0.012576114848826592  0.6927866119537002  0.8234868434992677  1.0000
  H   H24       1.0  0.9874084930408314  0.6927879343643613  0.6765161399230876  1.0000
  C   C1        1.0  2.9530055909557514e-07  0.9036501660098324  0.2499994980047617  1.0000
  C   C2        1.0  3.5850007975971326e-06  0.09635049633221371  0.7500005669495593  1.0000
  C   C3        1.0  0.7966740043874979  0.6528345535002202  0.149951466803671  1.0000
  C   C4        1.0  0.2033305181334626  0.6528367685118893  0.350047444915866  1.0000
  C   C5        1.0  0.20332929721207896  0.34716627446922393  0.8500487374967349  1.0000
  C   C6        1.0  0.7966696928812456  0.3471640594681347  0.6499534498756248  1.0000
  C   C7        1.0  0.17182469666394698  0.652017865383101  0.1536204332671289  1.0000
  C   C8        1.0  0.8281782656216237  0.6520210122537407  0.34637841486096477  1.0000
  C   C9        1.0  0.828175475487754  0.34797849829841704  0.8463796461158494  1.0000
  C   C10       1.0  0.17182190650959936  0.34798279192175835  0.6536216645271792  1.0000
  C   C11       1.0  1.680047112994964e-06  0.40071890393659965  0.24999914854961955  1.0000
  C   C12       1.0  0.9999938367814422  0.5992804359573044  0.7500015588693429  1.0000
  C   C13       1.0  0.5122192302675616  0.07858816513270031  0.04793677278935599  1.0000
  C   C14       1.0  0.48777585891442504  0.07857297025183389  0.45205921043490344  1.0000
  C   C15       1.0  0.48778254545264593  0.9214215914358802  0.9520641844654988  1.0000
  C   C16       1.0  0.5122113289340717  0.9214085124500782  0.5479305844155035  1.0000
  N   N1        1.0  0.9841941537480353  0.7798343298210636  0.1498392272107765  1.0000
  N   N2        1.0  0.015808104693981296  0.7798361114325232  0.3501597985395364  1.0000
  N   N3        1.0  0.015809147855641484  0.22016501004959113  0.850160977088606  1.0000
  N   N4        1.0  0.9841920674454343  0.22016471654538353  0.649840280846547  1.0000
  N   N5        1.0  0.8088248869262317  0.524446088163934  0.24816066771058584  1.0000
  N   N6        1.0  0.1911788167506714  0.5244433698682656  0.2518388185357097  1.0000
  N   N7        1.0  0.19117372047080752  0.47555920411458164  0.7518393492214342  1.0000
  N   N8        1.0  0.8088198684174372  0.4755544819205113  0.748162829201952  1.0000
  O   O1        1.0  0.3608676235373379  0.09267956036022441  0.10728130986022677  1.0000
  O   O2        1.0  0.6391224995045164  0.09265574953597168  0.3927104285419388  1.0000
  O   O3        1.0  0.6391341521828622  0.9073301962083562  0.8927196473946281  1.0000
  O   O4        1.0  0.3608534242720154  0.9073108521905909  0.6072724058546868  1.0000
  O   O5        1.0  0.32173799368876393  0.8198012431657491  0.9388115631646913  1.0000
  O   O6        1.0  0.6782630490586001  0.8197992081171465  0.561190652982212  1.0000
  O   O7        1.0  0.6782669503750968  0.18020553719890134  0.061190334407832794  1.0000
  O   O8        1.0  0.3217372008191077  0.1802060841613837  0.43881105721779073  1.0000
