data_image0
_chemical_formula_structural       Co2H26C36N4O12
_chemical_formula_sum              "Co2 H26 C36 N4 O12"
_cell_length_a       8.846864398732203
_cell_length_b       9.778445351360181
_cell_length_c       10.354653956820455
_cell_angle_alpha    93.19828164138328
_cell_angle_beta     106.31443497368494
_cell_angle_gamma    108.81839330757694

_space_group_name_H-M_alt    "P 1"
_space_group_IT_number       1

loop_
  _space_group_symop_operation_xyz
  'x, y, z'

loop_
  _atom_site_type_symbol
  _atom_site_label
  _atom_site_symmetry_multiplicity
  _atom_site_fract_x
  _atom_site_fract_y
  _atom_site_fract_z
  _atom_site_occupancy
  Co  Co1       1.0  0.17549574444288393  0.39238758262573004  0.6409424084834399  1.0000
  Co  Co2       1.0  0.8245050538960754  0.6076137121256691  0.3590594599180221  1.0000
  H   H1        1.0  0.33009767814087354  0.002926014716322798  0.7694742922390887  1.0000
  H   H2        1.0  0.669897215256199  0.9970752395150341  0.23052611907167622  1.0000
  H   H3        1.0  0.614837567954453  0.009656418006102294  0.8975191654444147  1.0000
  H   H4        1.0  0.38515392889088657  0.9903393037913586  0.10248194713323495  1.0000
  H   H5        1.0  0.805731044329775  0.46567547781335594  0.9778702049588761  1.0000
  H   H6        1.0  0.19426985419931236  0.5343171386940071  0.022129137380098002  1.0000
  H   H7        1.0  0.5272401752038007  0.4799346953446175  0.8500425285122192  1.0000
  H   H8        1.0  0.4727682425206579  0.5200678735333779  0.1499564768573123  1.0000
  H   H9        1.0  0.9095683964297551  0.14454010945515708  0.8271704830621404  1.0000
  H   H10       1.0  0.09043215234517996  0.8554546352492096  0.17283085696088563  1.0000
  H   H11       1.0  0.19175366424735782  0.13576061325888839  0.9450555806267219  1.0000
  H   H12       1.0  0.8082460995166231  0.8642351652666204  0.0549475718779036  1.0000
  H   H13       1.0  0.3227600951273287  0.2247262292151006  0.19664926115814302  1.0000
  H   H14       1.0  0.6772386124302869  0.7752728162299221  0.8033538641175612  1.0000
  H   H15       1.0  0.9931451105494274  0.06125899965437749  0.5900941464080844  1.0000
  H   H16       1.0  0.006852223383148525  0.9387423756863664  0.40990301034438664  1.0000
  H   H17       1.0  0.7011998495959516  0.8832224253959705  0.5135198609950464  1.0000
  H   H18       1.0  0.298798492328018  0.11678132227385159  0.48647095072181673  1.0000
  H   H19       1.0  0.5355110380122313  0.25185668229450187  0.5472699993933858  1.0000
  H   H20       1.0  0.4644872057133113  0.7481469342486092  0.4527256090666967  1.0000
  H   H21       1.0  0.8341279581430001  0.410966472716943  0.6213641658985338  1.0000
  H   H22       1.0  0.16587087419662785  0.5890358477515958  0.37863922356638824  1.0000
  H   H23       1.0  0.48257452676929785  0.5916158859944501  0.6316452253784988  1.0000
  H   H24       1.0  0.5174239292325994  0.408385418774273  0.3683551008380449  1.0000
  H   H25       1.0  0.36475463976178446  0.6564625369350023  0.6991706339335693  1.0000
  H   H26       1.0  0.635247833741417  0.3435399389722703  0.30082883304255154  1.0000
  C   C1        1.0  0.40101455912900263  0.2428124170355304  0.7955823037721147  1.0000
  C   C2        1.0  0.5989864032713469  0.7571922051900726  0.20441791012127195  1.0000
  C   C3        1.0  0.43075140131725215  0.10833858821233379  0.8129363277164146  1.0000
  C   C4        1.0  0.5692447123475756  0.8916627265737201  0.1870624563152034  1.0000
  C   C5        1.0  0.5874313884022939  0.10951072598210486  0.8827672847579322  1.0000
  C   C6        1.0  0.41256423108666945  0.8904894157520783  0.11723419211715935  1.0000
  C   C7        1.0  0.6955205018067757  0.36832715400967686  0.9286261515485563  1.0000
  C   C8        1.0  0.3044805607836949  0.631668789971897  0.0713715362823422  1.0000
  C   C9        1.0  0.5417356279574504  0.37425003659486566  0.8598641986621802  1.0000
  C   C10       1.0  0.45826639064926405  0.6257513187112236  0.1401360424601279  1.0000
  C   C11       1.0  0.8838876120647684  0.23415006267102  0.011105085350664002  1.0000
  C   C12       1.0  0.11611167716304038  0.765844569027962  0.9888998006488023  1.0000
  C   C13       1.0  0.9677263971389393  0.18124373781908784  0.936467119324945  1.0000
  C   C14       1.0  0.032269679238204584  0.8187487151455384  0.06353585408469087  1.0000
  C   C15       1.0  0.1263307368327489  0.17735888453395887  0.0032959188328760976  1.0000
  C   C16       1.0  0.8736662100579905  0.822635757182354  0.9967074249816649  1.0000
  C   C17       1.0  0.1989988759994361  0.22720974417726586  0.14288135012824202  1.0000
  C   C18       1.0  0.8009989806842698  0.772787138741414  0.8571204453939174  1.0000
  C   C19       1.0  0.11519834507872416  0.2808627673152769  0.2183992306835449  1.0000
  C   C20       1.0  0.8848035949692487  0.7191384830894447  0.7816048478333499  1.0000
  C   C21       1.0  0.953681725137983  0.28358277053507647  0.1520569934311382  1.0000
  C   C22       1.0  0.04632133003540418  0.7164152916261556  0.8479442342687378  1.0000
  C   C23       1.0  0.8518333915950793  0.3382200292896655  0.2238351244730907  1.0000
  C   C24       1.0  0.1481681651712563  0.661777087743772  0.7761598705143343  1.0000
  C   C25       1.0  0.19751009647767856  0.32777538249812455  0.37024636772859765  1.0000
  C   C26       1.0  0.8024927533632604  0.6722281091089709  0.6297561624959087  1.0000
  C   C27       1.0  0.8867933633877384  0.09795662550614276  0.5780208720693949  1.0000
  C   C28       1.0  0.11320637180096328  0.9020448184933016  0.4219749488220614  1.0000
  C   C29       1.0  0.722555386974598  0.9991994864910224  0.5357235634699223  1.0000
  C   C30       1.0  0.27744592517990435  0.0008030075375841992  0.4642746527394195  1.0000
  C   C31       1.0  0.5883166865811021  0.05027723078038799  0.5230286542747606  1.0000
  C   C32       1.0  0.41168501460693824  0.9497231875019095  0.4769656455532356  1.0000
  C   C33       1.0  0.630871577650815  0.2020007008223245  0.5557960646885292  1.0000
  C   C34       1.0  0.3691265020133372  0.7979995882465828  0.44420119827962884  1.0000
  C   C35       1.0  0.7985262805544763  0.29309863401946495  0.5969267755277771  1.0000
  C   C36       1.0  0.20147097481935808  0.7069026364199115  0.4030742186192668  1.0000
  N   N1        1.0  0.9262856830538768  0.24343086287468904  0.6088485939851226  1.0000
  N   N2        1.0  0.07371200757674495  0.7565715019405345  0.39115258536437386  1.0000
  N   N3        1.0  0.7197306038573501  0.2375815099298819  0.9397628530231755  1.0000
  N   N4        1.0  0.28027128996734524  0.7624165703526913  0.06023712390992131  1.0000
  O   O1        1.0  0.09841962499454131  0.33845629041799447  0.4370623770916425  1.0000
  O   O2        1.0  0.9015830411453223  0.661543847489547  0.562942766989579  1.0000
  O   O3        1.0  0.8970275058384728  0.47819059432151056  0.24681113941485933  1.0000
  O   O4        1.0  0.10297361567106114  0.5218054283360799  0.7531836703701131  1.0000
  O   O5        1.0  0.39163353792407213  0.5674745454519224  0.6752990711253875  1.0000
  O   O6        1.0  0.6083672996942654  0.43252680175015706  0.3247008785787884  1.0000
  O   O7        1.0  0.25333930404766386  0.23956603272807792  0.7264541005090878  1.0000
  O   O8        1.0  0.7466616779923783  0.7604386157228687  0.27354515403565927  1.0000
  O   O9        1.0  0.35156646898162347  0.3487903740857448  0.42372045147192244  1.0000
  O   O10       1.0  0.6484308915345307  0.6512141451518118  0.5762817662129861  1.0000
  O   O11       1.0  0.7271665369815494  0.24530562977535905  0.2435798852984448  1.0000
  O   O12       1.0  0.27283513187100544  0.7546978537277269  0.7564223535079223  1.0000
