data_image0
_chemical_formula_structural       Zn2H20C30N8Cl4O8
_chemical_formula_sum              "Zn2 H20 C30 N8 Cl4 O8"
_cell_length_a       8.920335330885884
_cell_length_b       15.907065454146268
_cell_length_c       17.089277366015057
_cell_angle_alpha    86.5755405318522
_cell_angle_beta     88.41080137668376
_cell_angle_gamma    78.4134100122028

_space_group_name_H-M_alt    "P 1"
_space_group_IT_number       1

loop_
  _space_group_symop_operation_xyz
  'x, y, z'

loop_
  _atom_site_type_symbol
  _atom_site_label
  _atom_site_symmetry_multiplicity
  _atom_site_fract_x
  _atom_site_fract_y
  _atom_site_fract_z
  _atom_site_occupancy
  Zn  Zn1       1.0  0.47274058911297345  0.593264256054468  0.4991956095942669  1.0000
  Zn  Zn2       1.0  0.522689085966256  0.4098046870979815  0.4989256930952094  1.0000
  H   H1        1.0  0.46925063166610664  0.6192917025975788  0.7462707503275822  1.0000
  H   H2        1.0  0.42146192875831207  0.3841740582988038  0.25704113058035466  1.0000
  H   H3        1.0  0.42492673225161337  0.6119212260195185  0.8928252622768865  1.0000
  H   H4        1.0  0.40283558379084633  0.39249980347526764  0.1096296220847535  1.0000
  H   H5        1.0  0.3960529645836317  0.6568170181844835  0.2523137404373585  1.0000
  H   H6        1.0  0.5367036591460419  0.34437166093567134  0.7469453763332226  1.0000
  H   H7        1.0  0.6179603961741974  0.7209999337558914  0.4090219397184782  1.0000
  H   H8        1.0  0.39142140789126506  0.27995746858844234  0.5931015696997903  1.0000
  H   H9        1.0  0.6255396404201219  0.8785191125321392  0.41517907875288523  1.0000
  H   H10       1.0  0.3896323762735819  0.12149520505497692  0.5886653960849415  1.0000
  H   H11       1.0  0.671840441478068  0.275847189080217  0.3959849574877836  1.0000
  H   H12       1.0  0.32641666761549015  0.7274998789850572  0.6019747952917739  1.0000
  H   H13       1.0  0.6912870555434836  0.044317244197458215  0.3680925638791662  1.0000
  H   H14       1.0  0.8305631629203136  0.09771976609136601  0.2674902098708287  1.0000
  H   H15       1.0  0.873732952590224  0.17243056012363675  0.3327861881362892  1.0000
  H   H16       1.0  0.7056496400144782  0.19949517691181742  0.2749439357492917  1.0000
  H   H17       1.0  0.3189778583760797  0.9571730266016589  0.6336156549019876  1.0000
  H   H18       1.0  0.17754861231640715  0.9043084829843979  0.7336583688239813  1.0000
  H   H19       1.0  0.297093533645672  0.8012700684554802  0.7242378879306628  1.0000
  H   H20       1.0  0.12900704432068708  0.8326127763901358  0.666842306218072  1.0000
  C   C1        1.0  0.44150749596529687  0.514198373006494  0.34934483731878874  1.0000
  C   C2        1.0  0.5248373968783895  0.48672734623026787  0.6506933737762282  1.0000
  C   C3        1.0  0.45410040220087217  0.24022118555738814  0.5484764753098759  1.0000
  C   C4        1.0  0.5539022555922273  0.7610466340888495  0.4530370188707025  1.0000
  C   C5        1.0  0.4533470768267449  0.15382307245828034  0.5453965694538141  1.0000
  C   C6        1.0  0.5582104673630893  0.8469083652271084  0.4572009838698676  1.0000
  C   C7        1.0  0.5347675409183879  0.10658785467559541  0.4854125355670433  1.0000
  C   C8        1.0  0.47565369160173526  0.8945208614740638  0.5166301376099085  1.0000
  C   C9        1.0  0.6172207228036443  0.14983675897482132  0.4282675368689296  1.0000
  C   C10       1.0  0.3897364347061655  0.8519893541418144  0.5725927135284506  1.0000
  C   C11       1.0  0.6117585588269064  0.23842444516849784  0.43688147831237956  1.0000
  C   C12       1.0  0.39063463072989896  0.764144975952789  0.5625395222026484  1.0000
  C   C13       1.0  0.7903198921795748  0.48756446703866635  0.47484935733481853  1.0000
  C   C14       1.0  0.20360553052440622  0.5176933446617512  0.5237548845075254  1.0000
  C   C15       1.0  0.9600273825272082  0.48507785605672643  0.4728038524106566  1.0000
  C   C16       1.0  0.03392810033557938  0.519863886866972  0.5262390684464149  1.0000
  C   C17       1.0  0.41456077246056827  0.5196858229712618  0.2626802874188456  1.0000
  C   C18       1.0  0.5048492330784597  0.48234027463524154  0.738301248766774  1.0000
  C   C19       1.0  0.41247257289092687  0.4450429342283542  0.22295302122726915  1.0000
  C   C20       1.0  0.473087217045162  0.5581503290108218  0.779210291968269  1.0000
  C   C21       1.0  0.4017824672854219  0.44950921806296423  0.1421164014302008  1.0000
  C   C22       1.0  0.4482796951366055  0.5542762754604809  0.8594807261625234  1.0000
  C   C23       1.0  0.3923094109550932  0.5285200253385227  0.09857837573552788  1.0000
  C   C24       1.0  0.4543735017940521  0.47467297312671525  0.9015968566901191  1.0000
  C   C25       1.0  0.38452684889968214  0.6038881861909077  0.13961147273168703  1.0000
  C   C26       1.0  0.4869211403151326  0.39884141495048914  0.8598681211883701  1.0000
  C   C27       1.0  0.39695482714988356  0.5992027222489967  0.22087268598959744  1.0000
  C   C28       1.0  0.5119731592095748  0.40279183843392746  0.7790414143396731  1.0000
  C   C29       1.0  0.78042261410495  0.14665222038274092  0.30827130690533266  1.0000
  C   C30       1.0  0.2246165095417964  0.855840925903671  0.6918855810892166  1.0000
  N   N1        1.0  0.3941730266692432  0.5366982397407796  0.016307354325917303  1.0000
  N   N2        1.0  0.43994713312299893  0.46623828641763515  0.9835829194789838  1.0000
  N   N3        1.0  0.5330899585771007  0.2808289665178165  0.4947098050575748  1.0000
  N   N4        1.0  0.46964074564431957  0.7214575382223175  0.5049448883973751  1.0000
  N   N5        1.0  0.5422634812212904  0.019843936556384303  0.4754577864519333  1.0000
  N   N6        1.0  0.4692834493158671  0.9810920178520564  0.5268898310585826  1.0000
  N   N7        1.0  0.6960708897508  0.10745357436416471  0.3689135799298526  1.0000
  N   N8        1.0  0.31142433152309223  0.8944890906171923  0.6320244070848985  1.0000
  Cl  Cl1       1.0  0.057217533204337194  0.43300308811099353  0.3950836100391512  1.0000
  Cl  Cl2       1.0  0.9375367959376111  0.5718863224855112  0.6041082456932825  1.0000
  Cl  Cl3       1.0  0.3676895666627615  0.7031058870297217  0.08959155221433687  1.0000
  Cl  Cl4       1.0  0.49405227179435224  0.2994279683662811  0.9081662591289258  1.0000
  O   O1        1.0  0.4326309218186068  0.5846626944317778  0.3823506020232584  1.0000
  O   O2        1.0  0.5539246422567388  0.4158551400091711  0.617118483107788  1.0000
  O   O3        1.0  0.47398129018870355  0.4389848668357886  0.3822780668786194  1.0000
  O   O4        1.0  0.507502349764387  0.5615463754682891  0.6169569637158643  1.0000
  O   O5        1.0  0.704990050819731  0.5615230690145696  0.47493316438949756  1.0000
  O   O6        1.0  0.289511849913822  0.44384228231012923  0.5247799402381829  1.0000
  O   O7        1.0  0.7492430094582404  0.415625703179238  0.4767140692989997  1.0000
  O   O8        1.0  0.24361231200499142  0.5899434508973016  0.5204657097731554  1.0000
