data_image0
_chemical_formula_structural       Cd2H22C24N10Cl4O6
_chemical_formula_sum              "Cd2 H22 C24 N10 Cl4 O6"
_cell_length_a       7.296355434482246
_cell_length_b       9.191711912903164
_cell_length_c       11.4375914823094
_cell_angle_alpha    83.26147422746693
_cell_angle_beta     89.14488004968345
_cell_angle_gamma    88.0897491747904

_space_group_name_H-M_alt    "P 1"
_space_group_IT_number       1

loop_
  _space_group_symop_operation_xyz
  'x, y, z'

loop_
  _atom_site_type_symbol
  _atom_site_label
  _atom_site_symmetry_multiplicity
  _atom_site_fract_x
  _atom_site_fract_y
  _atom_site_fract_z
  _atom_site_occupancy
  Cd  Cd1       1.0  0.2490271425810704  0.42296838051296254  0.4951447263255843  1.0000
  Cd  Cd2       1.0  0.7509748969710515  0.5770316502586754  0.5048557668390998  1.0000
  H   H1        1.0  0.48289083397225596  0.42295549959475665  0.2730222153737714  1.0000
  H   H2        1.0  0.5171098886365328  0.5770423458613579  0.7269776327592723  1.0000
  H   H3        1.0  0.0707486792692578  0.2392585806192856  0.7229150874452442  1.0000
  H   H4        1.0  0.9292503626738126  0.7607469435285806  0.2770805648459671  1.0000
  H   H5        1.0  0.015751951818756993  0.9773181263011993  0.8067142906585119  1.0000
  H   H6        1.0  0.9842388461392346  0.02268853520823201  0.19328226879241578  1.0000
  H   H7        1.0  0.1104540570531682  0.7772229148050087  0.6853191708479045  1.0000
  H   H8        1.0  0.8895396684544252  0.2227804454030036  0.31468202313095617  1.0000
  H   H9        1.0  0.2652860388942598  0.8423981704389548  0.490289502609869  1.0000
  H   H10       1.0  0.734709197583399  0.15760079875038707  0.5097120813521769  1.0000
  H   H11       1.0  0.3832858184884174  0.03274476728065421  0.3367517491830796  1.0000
  H   H12       1.0  0.6167162076385678  0.9672541671242315  0.6632462248991189  1.0000
  H   H13       1.0  0.6628647452354315  0.5524778990162035  0.1782780751602075  1.0000
  H   H14       1.0  0.3371415765658341  0.4475188234751712  0.8217261557394266  1.0000
  H   H15       1.0  0.838309973923856  0.4329389362164662  0.835100736541193  1.0000
  H   H16       1.0  0.1616920817798828  0.5670610946649575  0.16490063070857267  1.0000
  H   H17       1.0  0.721664850336566  0.1940840656506353  0.8390943245618417  1.0000
  H   H18       1.0  0.2783343963318856  0.8059170747867485  0.16090523676079016  1.0000
  H   H19       1.0  0.5276993887393502  0.15139586633761581  0.9323609770717312  1.0000
  H   H20       1.0  0.472299925262071  0.8486041782819315  0.06764043559383738  1.0000
  H   H21       1.0  0.7504960562689291  0.08923809252552671  0.9811086554033751  1.0000
  H   H22       1.0  0.24950459900689032  0.910760848748424  0.018889341386731883  1.0000
  C   C1        1.0  0.11081356279392907  0.1471981404479905  0.6749624736788178  1.0000
  C   C2        1.0  0.8891828236578831  0.8528052054729756  0.32503430445881776  1.0000
  C   C3        1.0  0.0806034306273347  0.0026566094709536995  0.7207311586778786  1.0000
  C   C4        1.0  0.9193902302737769  0.9973467502979291  0.27926653896064113  1.0000
  C   C5        1.0  0.13499569068544295  0.8913872848357087  0.6535751399065788  1.0000
  C   C6        1.0  0.8649980186705405  0.10861607526252469  0.3464251799872002  1.0000
  C   C7        1.0  0.21987134010736747  0.9272243242218466  0.5444436645252749  1.0000
  C   C8        1.0  0.7801251487071355  0.0727768298438818  0.4555550681280707  1.0000
  C   C9        1.0  0.2473355228743301  0.07493588129304381  0.5047121107185149  1.0000
  C   C10       1.0  0.7526623906991718  0.9250630737190308  0.49528593148738753  1.0000
  C   C11       1.0  0.3418361913259744  0.11699138080210501  0.3923298095816676  1.0000
  C   C12       1.0  0.6581631442800315  0.8830064714132886  0.6076691871741886  1.0000
  C   C13       1.0  0.5346639120728867  0.24631404400509643  0.17434236867024566  1.0000
  C   C14       1.0  0.4653381975386849  0.7536837946917387  0.8256583308399783  1.0000
  C   C15       1.0  0.6356125967293879  0.34935811800524874  0.0912790148749494  1.0000
  C   C16       1.0  0.364392305765854  0.6506386110258405  0.9087226164773269  1.0000
  C   C17       1.0  0.6851108048997431  0.49154284323461195  0.10344903537524888  1.0000
  C   C18       1.0  0.3148940436876657  0.5084560779810587  0.8965532637165694  1.0000
  C   C19       1.0  0.7749389336469861  0.5438960890977568  0.9978827351628253  1.0000
  C   C20       1.0  0.22506452521115958  0.45610393513417363  0.0021203575492094824  1.0000
  C   C21       1.0  0.779970793175977  0.4333872045517424  0.9229752893129514  1.0000
  C   C22       1.0  0.22002992670633154  0.5666117371613382  0.07702620381748908  1.0000
  C   C23       1.0  0.6726813528323845  0.17866825182941426  0.9304553860550725  1.0000
  C   C24       1.0  0.32732070287136134  0.8213317790520094  0.06954598119470026  1.0000
  N   N1        1.0  0.19080574261460737  0.1819229888465301  0.5698868494284497  1.0000
  N   N2        1.0  0.8091920847478207  0.8180781581305681  0.4301101123468243  1.0000
  N   N3        1.0  0.3763693380906901  0.2541686260263846  0.3656793818491408  1.0000
  N   N4        1.0  0.6236313683664747  0.7458292193199513  0.6343195921988212  1.0000
  N   N5        1.0  0.4685477404942092  0.31257807716726654  0.2706336169767951  1.0000
  N   N6        1.0  0.531452998266204  0.6874197683986268  0.7293671052413302  1.0000
  N   N7        1.0  0.6961201678747172  0.31641306671343017  0.9802684506451628  1.0000
  N   N8        1.0  0.3038819228587499  0.6835858681305922  0.019733019777376577  1.0000
  N   N9        1.0  0.8474572846326538  0.6858268109925021  0.9718776442845892  1.0000
  N   N10       1.0  0.1525434352496546  0.31417213072058553  0.02812384884585129  1.0000
  Cl  Cl1       1.0  0.957601245974068  0.4731958318153816  0.35110883627506684  1.0000
  Cl  Cl2       1.0  0.04239805187572901  0.5268042126943867  0.6488917023054199  1.0000
  Cl  Cl3       1.0  0.4340869828518592  0.6236430472706971  0.3704153554381903  1.0000
  Cl  Cl4       1.0  0.5659178172806918  0.37635587361562983  0.6295843213983758  1.0000
  O   O1        1.0  0.5078786023407176  0.11684730636218178  0.1621892033705734  1.0000
  O   O2        1.0  0.4921248269406676  0.8831516213932037  0.8378104961739011  1.0000
  O   O3        1.0  0.9190990325600338  0.7184907178871641  0.8729662351912423  1.0000
  O   O4        1.0  0.0808989456199498  0.2815082375640472  0.12703530335500088  1.0000
  O   O5        1.0  0.8355182650028254  0.7708674451161031  0.04967488798068587  1.0000
  O   O6        1.0  0.16448519658180064  0.22913148285885396  0.950326559733952  1.0000
