data_image0
_chemical_formula_structural       Ag4H16C22N14O12
_chemical_formula_sum              "Ag4 H16 C22 N14 O12"
_cell_length_a       6.776322224926463
_cell_length_b       10.365726570907443
_cell_length_c       11.515441389746394
_cell_angle_alpha    64.90435581191441
_cell_angle_beta     89.51567772952214
_cell_angle_gamma    73.1499346840916

_space_group_name_H-M_alt    "P 1"
_space_group_IT_number       1

loop_
  _space_group_symop_operation_xyz
  'x, y, z'

loop_
  _atom_site_type_symbol
  _atom_site_label
  _atom_site_symmetry_multiplicity
  _atom_site_fract_x
  _atom_site_fract_y
  _atom_site_fract_z
  _atom_site_occupancy
  Ag  Ag1       1.0  0.883042721594464  0.20177636157730916  0.5587598728218239  1.0000
  Ag  Ag2       1.0  0.11695668306849438  0.7982214815447363  0.4412393697571774  1.0000
  Ag  Ag3       1.0  0.7505848332599001  0.0384465022335689  0.4360472734660875  1.0000
  Ag  Ag4       1.0  0.24941513676736116  0.9615535699902008  0.5639519695721023  1.0000
  H   H1        1.0  0.745404518556427  0.9880573102091146  0.023481747162755345  1.0000
  H   H2        1.0  0.2545984671486252  0.011942729185491897  0.9765192002470828  1.0000
  H   H3        1.0  0.7261339778086865  0.7098904165513813  0.8544148923163493  1.0000
  H   H4        1.0  0.27386950473057686  0.29010849924353  0.1455873494228116  1.0000
  H   H5        1.0  0.7486440366986998  0.5464043322291515  0.09565503379444361  1.0000
  H   H6        1.0  0.25135598452239083  0.45359573831154165  0.9043459461757736  1.0000
  H   H7        1.0  0.7657903462791112  0.24973270540651527  0.940312103896645  1.0000
  H   H8        1.0  0.23421503854560657  0.7502650737402661  0.059688810493618495  1.0000
  H   H9        1.0  0.09827086958848245  0.39325078993942225  0.3296865154606366  1.0000
  H   H10       1.0  0.9017261359548177  0.6067493134304411  0.6703127601379396  1.0000
  H   H11       1.0  0.3535200894123136  0.5262449371390047  0.30026538100975847  1.0000
  H   H12       1.0  0.6464706100527596  0.47375970314108407  0.6997331084421534  1.0000
  H   H13       1.0  0.4417875188311984  0.3637785662832228  0.7162698829509184  1.0000
  H   H14       1.0  0.5582095123090199  0.6362215362451025  0.28373026111367494  1.0000
  H   H15       1.0  0.1865588393258832  0.2337706430433356  0.728101456905698  1.0000
  H   H16       1.0  0.8134381662174166  0.7662294603265277  0.27189781869287827  1.0000
  C   C1        1.0  0.17951812437319603  0.3883510228690881  0.41295991979344404  1.0000
  C   C2        1.0  0.8204774245250377  0.6116490952322804  0.5870402405513392  1.0000
  C   C3        1.0  0.3239043728338944  0.46373199205221016  0.3976996097870754  1.0000
  C   C4        1.0  0.6760878088731701  0.5362726326548355  0.6022988633846397  1.0000
  C   C5        1.0  0.42407623050813487  0.4591820811864692  0.5062246098078449  1.0000
  C   C6        1.0  0.5759164224362225  0.5408214207624125  0.49377428922718297  1.0000
  C   C7        1.0  0.3724267979605715  0.3737502963976523  0.6272245709740292  1.0000
  C   C8        1.0  0.6275678084630628  0.6262520672200294  0.37277473764412167  1.0000
  C   C9        1.0  0.22784629940660048  0.30035648904085116  0.635098147342305  1.0000
  C   C10       1.0  0.7721463535377567  0.6996470129080378  0.36490075169272274  1.0000
  C   C11       1.0  0.7693924668963634  0.0748574336673613  0.8264164934799328  1.0000
  C   C12       1.0  0.23061093885215908  0.9251414846521582  0.1735831428611905  1.0000
  C   C13       1.0  0.728342075029261  0.8312455385803827  0.9583098421154336  1.0000
  C   C14       1.0  0.27166133071925463  0.16875337973913665  0.04168979422568951  1.0000
  C   C15       1.0  0.7379952966834795  0.9234074046512504  0.7267307930762926  1.0000
  C   C16       1.0  0.2620070980603586  0.07659040648316306  0.27326928540833967  1.0000
  C   C17       1.0  0.7596453246272861  0.3304934198526509  0.2302544205743403  1.0000
  C   C18       1.0  0.2403531887549094  0.6695066671026239  0.7697457072100563  1.0000
  C   C19       1.0  0.7526630388279473  0.16454064580091193  0.1390862190747059  1.0000
  C   C20       1.0  0.24734335700145502  0.8354582405309826  0.8609142531720483  1.0000
  C   C21       1.0  0.7536256708053557  0.41863835396163296  0.9972242551488791  1.0000
  C   C22       1.0  0.24637430748256156  0.5813583630361021  0.002778887157482891  1.0000
  N   N1        1.0  0.13075751158211812  0.30761662923864447  0.5295967763369945  1.0000
  N   N2        1.0  0.8692390483207934  0.6923845960478373  0.4704029418642792  1.0000
  N   N3        1.0  0.7640139925996793  0.05089802138456178  0.718496613218747  1.0000
  N   N4        1.0  0.23598642306796344  0.9491009289225899  0.2815021872167451  1.0000
  N   N5        1.0  0.7424041319222855  0.9666803411616409  0.942624044876148  1.0000
  N   N6        1.0  0.2575992994231484  0.033318576316347  0.05737645993098541  1.0000
  N   N7        1.0  0.7310310566398502  0.8127377722189021  0.8466117897626977  1.0000
  N   N8        1.0  0.2689723491086725  0.18726114610061725  0.15338784657842558  1.0000
  N   N9        1.0  0.7551789026705437  0.44006981291710895  0.10665982590611393  1.0000
  N   N10       1.0  0.244823046432913  0.5599291201339226  0.8933406951812162  1.0000
  N   N11       1.0  0.7583302768669924  0.277025861148566  0.018447314399047298  1.0000
  N   N12       1.0  0.24167461112351432  0.7229730415979103  0.9815523056618861  1.0000
  N   N13       1.0  0.7555046698187128  0.19390980464013546  0.24366581347752722  1.0000
  N   N14       1.0  0.24449829028942824  0.8060902355960022  0.7563342654662937  1.0000
  O   O1        1.0  0.797425051517756  0.19043256484554408  0.8221192701731397  1.0000
  O   O2        1.0  0.20257687198878235  0.809566369047026  0.17788038244817997  1.0000
  O   O3        1.0  0.7157722441618976  0.7325339348191658  0.06473424862950611  1.0000
  O   O4        1.0  0.284229773471651  0.26746835093329213  0.9352649785876894  1.0000
  O   O5        1.0  0.7222337872684366  0.8959163095615565  0.630613098135534  1.0000
  O   O6        1.0  0.2777671252334173  0.10408151714590724  0.369386996629288  1.0000
  O   O7        1.0  0.7670864690391855  0.3610880482829513  0.3231916715004887  1.0000
  O   O8        1.0  0.23290566973469862  0.638913222881129  0.6768089640073784  1.0000
  O   O9        1.0  0.7478427394009445  0.519852509666748  0.8875629816901667  1.0000
  O   O10       1.0  0.25215826722791235  0.4801486689005969  0.11243668767053092  1.0000
  O   O11       1.0  0.7460351974988128  0.04140742054457999  0.1482664155759323  1.0000
  O   O12       1.0  0.2539731518098661  0.9585903274561076  0.8517344662539444  1.0000
