data_image0
_chemical_formula_structural       Cu2H12C12N8Cl8
_chemical_formula_sum              "Cu2 H12 C12 N8 Cl8"
_cell_length_a       3.7864908394679175
_cell_length_b       10.477905975477174
_cell_length_c       13.548920525098463
_cell_angle_alpha    87.82582489527023
_cell_angle_beta     87.74033757003481
_cell_angle_gamma    80.37466688605788

_space_group_name_H-M_alt    "P 1"
_space_group_IT_number       1

loop_
  _space_group_symop_operation_xyz
  'x, y, z'

loop_
  _atom_site_type_symbol
  _atom_site_label
  _atom_site_symmetry_multiplicity
  _atom_site_fract_x
  _atom_site_fract_y
  _atom_site_fract_z
  _atom_site_occupancy
  Cu  Cu1       1.0  0.4981409525549124  0.999745589749978  0.2508405266218787  1.0000
  Cu  Cu2       1.0  0.5018692205554914  0.000252721263287  0.7491602777836519  1.0000
  H   H1        1.0  0.7117589287146089  0.09679188606704511  0.44476857101312106  1.0000
  H   H2        1.0  0.28822880865456574  0.90320349928291  0.5552355120653658  1.0000
  H   H3        1.0  0.8244193877535652  0.9083166354628601  0.0557965399738762  1.0000
  H   H4        1.0  0.17556828452977416  0.09168456084943702  0.9442058915772477  1.0000
  H   H5        1.0  0.5383448240437972  0.3222605693213296  0.5156069495307206  1.0000
  H   H6        1.0  0.46163589832569585  0.6777328688750756  0.48439652881894096  1.0000
  H   H7        1.0  0.09619233519146063  0.29052999176925454  0.22702164711385814  1.0000
  H   H8        1.0  0.9038257863066691  0.7094683205721993  0.7729753826838176  1.0000
  H   H9        1.0  0.901921630898009  0.6806925987708539  0.9831525603272978  1.0000
  H   H10       1.0  0.09807828399774365  0.31931635850327217  0.0168472921171201  1.0000
  H   H11       1.0  0.3719756478032395  0.703721779617645  0.27455743065278426  1.0000
  H   H12       1.0  0.6280252468865939  0.29627942675018204  0.7254426462735424  1.0000
  C   C1        1.0  0.45193413613018424  0.2945898688801237  0.44545779036262445  1.0000
  C   C2        1.0  0.5480647277558504  0.705398735345959  0.5545412138129392  1.0000
  C   C3        1.0  0.2479060344619199  0.3639915868217116  0.3717440376455059  1.0000
  C   C4        1.0  0.7520901133190565  0.6360028284141066  0.6282548192295891  1.0000
  C   C5        1.0  0.23260693280872163  0.27688861713799173  0.2962675155218263  1.0000
  C   C6        1.0  0.7674063486750317  0.7231087238559083  0.7037310711340936  1.0000
  C   C7        1.0  0.775766646458401  0.7064815238653425  0.05431887839993268  1.0000
  C   C8        1.0  0.22423336621281464  0.29352161215397393  0.9456774590622031  1.0000
  C   C9        1.0  0.6278852259342714  0.6341996300865702  0.1286679815492988  1.0000
  C   C10       1.0  0.3721178530807662  0.36580254914654386  0.8713327808184772  1.0000
  C   C11       1.0  0.5075354503828607  0.7199466446170604  0.20464658468805647  1.0000
  C   C12       1.0  0.4924751754117197  0.2800506978945805  0.7953542442675569  1.0000
  N   N1        1.0  0.4184643141781805  0.1613082016317477  0.3227993696102445  1.0000
  N   N2        1.0  0.5815418685402564  0.8386930090523635  0.6771999130807274  1.0000
  N   N3        1.0  0.5460327489078411  0.17318835979630623  0.41273196406466883  1.0000
  N   N4        1.0  0.4539544800312144  0.8268138020769131  0.5872689667907663  1.0000
  N   N5        1.0  0.5790250251820767  0.837938334102432  0.1780011529666652  1.0000
  N   N6        1.0  0.42098115286641763  0.16206287805202632  0.8219988677971058  1.0000
  N   N7        1.0  0.739905572311045  0.8276038202271823  0.0874191344689095  1.0000
  N   N8        1.0  0.260095182867218  0.17240901100605305  0.9125791155483114  1.0000
  Cl  Cl1       1.0  0.82826499904278  0.09937988358506539  0.1284430133031904  1.0000
  Cl  Cl2       1.0  0.17172790085328415  0.9006271265355182  0.8715562344124095  1.0000
  Cl  Cl3       1.0  0.11410694338393772  0.9151163880190083  0.3690585470492422  1.0000
  Cl  Cl4       1.0  0.8858996780088406  0.08488385857452842  0.6309429744102174  1.0000
  Cl  Cl5       1.0  0.053574426574840586  0.5232008488343496  0.3717578836919627  1.0000
  Cl  Cl6       1.0  0.9464181694885029  0.476795501981755  0.6282416902370542  1.0000
  Cl  Cl7       1.0  0.5950416207013377  0.47365659075340716  0.1283511245187654  1.0000
  Cl  Cl8       1.0  0.40496985938560215  0.5263446213062791  0.8716458877912315  1.0000
