data_image0
_chemical_formula_structural       Ag4H64C40S4N12O24
_chemical_formula_sum              "Ag4 H64 C40 S4 N12 O24"
_cell_length_a       8.005490577008054
_cell_length_b       11.569824401625144
_cell_length_c       16.8913752279139
_cell_angle_alpha    98.60239913129801
_cell_angle_beta     90.02361315547202
_cell_angle_gamma    110.2470101590442

_space_group_name_H-M_alt    "P 1"
_space_group_IT_number       1

loop_
  _space_group_symop_operation_xyz
  'x, y, z'

loop_
  _atom_site_type_symbol
  _atom_site_label
  _atom_site_symmetry_multiplicity
  _atom_site_fract_x
  _atom_site_fract_y
  _atom_site_fract_z
  _atom_site_occupancy
  Ag  Ag1       1.0  0.2936880675692565  0.07761919504133633  0.26382121091464233  1.0000
  Ag  Ag2       1.0  0.21608089633467398  0.9225765223872318  0.7362737465801744  1.0000
  Ag  Ag3       1.0  0.7307273734028003  0.9637646464739549  0.24372180256747814  1.0000
  Ag  Ag4       1.0  0.7670450004990386  0.0364065196035028  0.7563959943365219  1.0000
  H   H1        1.0  0.36455797771909454  0.7729174409677312  0.2229325829660098  1.0000
  H   H2        1.0  0.5915444835747082  0.22682585936260583  0.777080274965627  1.0000
  H   H3        1.0  0.09481656812220515  0.4786740818964149  0.7587444138423933  1.0000
  H   H4        1.0  0.6160459337832194  0.521504711049218  0.24139031954422308  1.0000
  H   H5        1.0  0.18664324089299103  0.5462796140594577  0.9648120399525624  1.0000
  H   H6        1.0  0.6402917993888337  0.4537786135192762  0.03539670392702021  1.0000
  H   H7        1.0  0.9569122423623783  0.4602105595134845  0.9728324751925117  1.0000
  H   H8        1.0  0.49642992393376767  0.5396395053543089  0.027253602381478004  1.0000
  H   H9        1.0  0.28182923109161356  0.8568569444041786  0.4598128921807146  1.0000
  H   H10       1.0  0.42473378935952166  0.143284631101082  0.5401890933875535  1.0000
  H   H11       1.0  0.8941271909270585  0.6629198245216801  0.9795448939140742  1.0000
  H   H12       1.0  0.23116903300185507  0.3366833962803072  0.020419035073018708  1.0000
  H   H13       1.0  0.1257828099116408  0.7447368037122643  0.9830726211575327  1.0000
  H   H14       1.0  0.381296898139709  0.25511458627951816  0.0169247917696751  1.0000
  H   H15       1.0  0.9235683400083091  0.15283626173071957  0.047801146318064994  1.0000
  H   H16       1.0  0.7708932547812424  0.8472561365961654  0.9520298921442176  1.0000
  H   H17       1.0  0.15387721974666851  0.6428783059301112  0.105937618369687  1.0000
  H   H18       1.0  0.5111022335557537  0.35718654093766133  0.8941583221733751  1.0000
  H   H19       1.0  0.9183579731620598  0.5856183171872688  0.10496355950726871  1.0000
  H   H20       1.0  0.33275559476454214  0.4143343985090623  0.8951086911043546  1.0000
  H   H21       1.0  0.1351069709108756  0.27051175932654564  0.277898599968772  1.0000
  H   H22       1.0  0.8643248204515431  0.7293197215477891  0.7219748915961404  1.0000
  H   H23       1.0  0.820578513210002  0.4796621084403513  0.7457636464463206  1.0000
  H   H24       1.0  0.3407274546267089  0.5202521981924947  0.25427631879014  1.0000
  H   H25       1.0  0.1697221480851143  0.8589419970694724  0.1352785014723992  1.0000
  H   H26       1.0  0.3110077981335593  0.14109358954380014  0.8646691376455422  1.0000
  H   H27       1.0  0.9425361407662365  0.8197505990508773  0.10737869915921999  1.0000
  H   H28       1.0  0.12290941929025931  0.18012896643475781  0.8925204308602376  1.0000
  H   H29       1.0  0.849025152425469  0.7136364135554489  0.2233863399857583  1.0000
  H   H30       1.0  0.13570601416590483  0.28654576956494543  0.7765724117149732  1.0000
  H   H31       1.0  0.07211900528220383  0.6325781781908476  0.2584287689016165  1.0000
  H   H32       1.0  0.44019913224213536  0.3674095682332209  0.7416578919896821  1.0000
  H   H33       1.0  0.004377867981645538  0.6904119756237109  0.3930525767062321  1.0000
  H   H34       1.0  0.31408684336664555  0.30984512071167103  0.6070206033378369  1.0000
  H   H35       1.0  0.02162590490247134  0.937392258059333  0.4229153202622484  1.0000
  H   H36       1.0  0.08415535411154451  0.06291855426023571  0.577049726272449  1.0000
  H   H37       1.0  0.8272406392893359  0.8119008280830753  0.3770693739749972  1.0000
  H   H38       1.0  0.015450066078251678  0.1884427850836232  0.6229437632027341  1.0000
  H   H39       1.0  0.7840890529562332  0.4470620324166391  0.5372537694043231  1.0000
  H   H40       1.0  0.33689434144673674  0.5529767045468361  0.4627531323863892  1.0000
  H   H41       1.0  0.7293039771020987  0.29093276348506697  0.5495676296831249  1.0000
  H   H42       1.0  0.43835199739658043  0.7091126705118854  0.4504622824636542  1.0000
  H   H43       1.0  0.019369148993888478  0.28638421336131603  0.5044901649099031  1.0000
  H   H44       1.0  0.7329220008920958  0.7136413639441771  0.4956510736224331  1.0000
  H   H45       1.0  0.1124292202026922  0.4501707795106498  0.522365606217818  1.0000
  H   H46       1.0  0.6621928990234522  0.5498649722367689  0.4776687514689257  1.0000
  H   H47       1.0  0.07226895233445418  0.397789554099397  0.3813168773338589  1.0000
  H   H48       1.0  0.6744638085473724  0.6021817185053991  0.6187589845446482  1.0000
  H   H49       1.0  0.90225206997048  0.4559625484605264  0.41104578761079585  1.0000
  H   H50       1.0  0.44623524416769567  0.5438390240048534  0.5889320798123876  1.0000
  H   H51       1.0  0.8609835842830621  0.17937757390755144  0.3648786042115191  1.0000
  H   H52       1.0  0.6813724010358299  0.8204899230560655  0.6350593078480102  1.0000
  H   H53       1.0  0.6873605739750063  0.228291153851032  0.4031482179132482  1.0000
  H   H54       1.0  0.4588330900703994  0.7714630946209554  0.5967108665810272  1.0000
  H   H55       1.0  0.685769802232933  0.33652842608196926  0.2883644371762202  1.0000
  H   H56       1.0  0.3489549221927676  0.6635096543666422  0.7115493190242576  1.0000
  H   H57       1.0  0.97991766748752  0.41053996216568583  0.2429231353617425  1.0000
  H   H58       1.0  0.5686931465879539  0.5892458668220542  0.756991524425807  1.0000
  H   H59       1.0  0.8475536436833552  0.34821530057916317  0.1107930657912277  1.0000
  H   H60       1.0  0.49922343055922624  0.651675907893683  0.8891400576127566  1.0000
  H   H61       1.0  0.6075313451381703  0.10489829005135223  0.0859115958458219  1.0000
  H   H62       1.0  0.5028132231236314  0.8950233788729492  0.913993914972103  1.0000
  H   H63       1.0  0.5499371215903608  0.23507174716365145  0.1309195737475335  1.0000
  H   H64       1.0  0.31491217668973787  0.7649348692067617  0.8689577629429196  1.0000
  C   C1        1.0  0.011074662112015724  0.524787401672434  0.8639111564454823  1.0000
  C   C2        1.0  0.48605760637659057  0.4751153294617438  0.1361811894341258  1.0000
  C   C3        1.0  0.050999707948769034  0.5441362576530581  0.9526473150031264  1.0000
  C   C4        1.0  0.5067129485199758  0.45576288963654576  0.047462412140902195  1.0000
  C   C5        1.0  0.024043115327032218  0.6603704937026081  0.9985776861455663  1.0000
  C   C6        1.0  0.3637180359167261  0.33945249959231216  0.0014554578727157023  1.0000
  C   C7        1.0  0.034117745347956  0.6619135852769987  0.0890674611534195  1.0000
  C   C8        1.0  0.37229938926932254  0.33804684979457994  0.9109841265920552  1.0000
  C   C9        1.0  0.03711225418633297  0.786737889266853  0.1361409190098186  1.0000
  C   C10       1.0  0.2505369135829483  0.2132636336247842  0.8638228239431882  1.0000
  C   C11       1.0  0.9878677524841282  0.776420115000413  0.22232362550745682  1.0000
  C   C12       1.0  0.2116029894780738  0.22369101011690162  0.7776570029953334  1.0000
  C   C13       1.0  0.10609571126562398  0.734270984663361  0.2744044721122165  1.0000
  C   C14       1.0  0.3720634710280919  0.2657669657171979  0.7256325561609884  1.0000
  C   C15       1.0  0.07654859316422584  0.7715935817283464  0.3647517263240445  1.0000
  C   C16       1.0  0.305081857342195  0.2286042845238897  0.6352747060317938  1.0000
  C   C17       1.0  0.9703239590226005  0.8609764519947946  0.3724540637521799  1.0000
  C   C18       1.0  0.10933889978557693  0.13927432755580332  0.6275423803858899  1.0000
  C   C19       1.0  0.3824732151624702  0.8435375632266402  0.34399687206005325  1.0000
  C   C20       1.0  0.5388113695023763  0.15640704497467078  0.6559908410538284  1.0000
  C   C21       1.0  0.8971760666102426  0.4213244612676732  0.6419012694458104  1.0000
  C   C22       1.0  0.475745200228836  0.5787407633277298  0.3581554651186778  1.0000
  C   C23       1.0  0.8412553960317906  0.38011714596716206  0.5545510226187176  1.0000
  C   C24       1.0  0.4610444535232574  0.6199183540959937  0.44548330407258163  1.0000
  C   C25       1.0  0.9903066125786425  0.37171332025876325  0.5004607799204237  1.0000
  C   C26       1.0  0.6185235317878722  0.6282785181885019  0.49960781569837565  1.0000
  C   C27       1.0  0.9479202814435937  0.3767518366556999  0.41298029704663003  1.0000
  C   C28       1.0  0.5710647608402369  0.623131602667236  0.5870487504807116  1.0000
  C   C29       1.0  0.8083356344674684  0.256425558967095  0.3692603253901225  1.0000
  C   C30       1.0  0.5517149839344528  0.7434459727278694  0.6306738287676836  1.0000
  C   C31       1.0  0.7570719610458881  0.27008190034296586  0.28526345440056383  1.0000
  C   C32       1.0  0.4868203749498648  0.729881059480981  0.7146611491009054  1.0000
  C   C33       1.0  0.9118885583640832  0.3086563856653157  0.2291136098724849  1.0000
  C   C34       1.0  0.6029358305938076  0.6911626780031028  0.7708148157904589  1.0000
  C   C35       1.0  0.8374787080791537  0.2675994158057335  0.1397980314818454  1.0000
  C   C36       1.0  0.5697969586196763  0.7322845244045694  0.8601343224959592  1.0000
  C   C37       1.0  0.6399429434413335  0.18307181580125592  0.1355302180764966  1.0000
  C   C38       1.0  0.4569541222420171  0.81687887175535  0.8643681096743734  1.0000
  C   C39       1.0  0.06603727923216239  0.18947709238087634  0.1588033953207173  1.0000
  C   C40       1.0  0.8764421512463515  0.8103814629644718  0.8410797782013759  1.0000
  S   S1        1.0  0.9967100649971743  0.9259457289569614  0.2797102789232397  1.0000
  S   S2        1.0  0.0707554998841857  0.07422133663050093  0.7202342589707341  1.0000
  S   S3        1.0  0.6031607765140379  0.1227933031705177  0.2298653852331967  1.0000
  S   S4        1.0  0.4804473867707911  0.8772012922092144  0.770044487727013  1.0000
  N   N1        1.0  0.2958962435804651  0.7994522085411974  0.2690463158214484  1.0000
  N   N2        1.0  0.49622997685241194  0.2002785386665097  0.7309770611542916  1.0000
  N   N3        1.0  0.25708218738446925  0.8304463268854575  0.3993056040147565  1.0000
  N   N4        1.0  0.4266058677963401  0.16974138607742623  0.6006906458834536  1.0000
  N   N5        1.0  0.9526939718686124  0.20364565455390252  0.1040732062254008  1.0000
  N   N6        1.0  0.7490900758416288  0.7961818457917219  0.8958477006493908  1.0000
  N   N7        1.0  0.03697349821158008  0.2439363401247192  0.2333136861302734  1.0000
  N   N8        1.0  0.7928410236537431  0.7556804032490589  0.7666334630069115  1.0000
  N   N9        1.0  0.35767265656592434  0.2597947509153401  0.4191787639773922  1.0000
  N   N10       1.0  0.09812363367642965  0.740286736517966  0.5807972511152855  1.0000
  N   N11       1.0  0.5681171807831903  0.7972989920222207  0.0829129071135597  1.0000
  N   N12       1.0  0.7709313540771777  0.20288919398812774  0.9171177533646357  1.0000
  O   O1        1.0  0.1381530960073079  0.5052765979967475  0.8191638956321795  1.0000
  O   O2        1.0  0.6327412804354324  0.4948808490053481  0.1809851392406614  1.0000
  O   O3        1.0  0.8682094707225546  0.5249787604077697  0.8347114842518479  1.0000
  O   O4        1.0  0.34291814283916  0.47476987675102583  0.1653120168921944  1.0000
  O   O5        1.0  0.5478570315758093  0.8876178593112558  0.35794109602390733  1.0000
  O   O6        1.0  0.6600602996408045  0.11234814666345024  0.6420554987277356  1.0000
  O   O7        1.0  0.7755395294336582  0.4489178351310415  0.6859244187225357  1.0000
  O   O8        1.0  0.32645400661942864  0.5509852280562414  0.314089646949995  1.0000
  O   O9        1.0  0.04508293615889163  0.42851754192488306  0.6706453870988085  1.0000
  O   O10       1.0  0.6165501719559362  0.5716823944240235  0.3294654217598634  1.0000
  O   O11       1.0  0.1771557504851842  0.1363586062583764  0.1447675195865159  1.0000
  O   O12       1.0  0.040721825473283936  0.8637889111841731  0.855116344774885  1.0000
  O   O13       1.0  0.3382078350597482  0.283644790643713  0.3484544134547747  1.0000
  O   O14       1.0  0.0544693951781952  0.7164644502543142  0.6514827985986144  1.0000
  O   O15       1.0  0.3382140457828982  0.14777092473556766  0.427177178904266  1.0000
  O   O16       1.0  0.19097148016658863  0.8522722627992185  0.57284169189127  1.0000
  O   O17       1.0  0.3972090486993594  0.3453134288995443  0.47800918599251224  1.0000
  O   O18       1.0  0.05218330601790201  0.6547714021092262  0.5219582625948007  1.0000
  O   O19       1.0  0.5549189149862104  0.7722726129705682  0.15515965454221003  1.0000
  O   O20       1.0  0.7824181394793612  0.22788279076767287  0.8448709909818959  1.0000
  O   O21       1.0  0.6953571858170307  0.8922909616009349  0.0685496740333988  1.0000
  O   O22       1.0  0.8038056536492634  0.10812790530221865  0.9314873855439529  1.0000
  O   O23       1.0  0.4562789927727665  0.727197797257425  0.028874916749863606  1.0000
  O   O24       1.0  0.728938111225297  0.2727890548348739  0.9711488574334695  1.0000
