data_image0
_chemical_formula_structural       Cd2H24C36S4I4N12
_chemical_formula_sum              "Cd2 H24 C36 S4 I4 N12"
_cell_length_a       9.977122643607697
_cell_length_b       10.530490667483441
_cell_length_c       11.643946930494835
_cell_angle_alpha    93.17102693322099
_cell_angle_beta     109.90014011306185
_cell_angle_gamma    98.08159103947514

_space_group_name_H-M_alt    "P 1"
_space_group_IT_number       1

loop_
  _space_group_symop_operation_xyz
  'x, y, z'

loop_
  _atom_site_type_symbol
  _atom_site_label
  _atom_site_symmetry_multiplicity
  _atom_site_fract_x
  _atom_site_fract_y
  _atom_site_fract_z
  _atom_site_occupancy
  Cd  Cd1       1.0  0.7978623185239117  0.17188727372437285  0.9622258532351964  1.0000
  Cd  Cd2       1.0  0.20213941817045375  0.8281133766120664  0.037775404248250814  1.0000
  H   H1        1.0  0.7858059534288556  0.5601327054123431  0.26948799705861154  1.0000
  H   H2        1.0  0.2141950780699489  0.4398698727377521  0.7305114339235318  1.0000
  H   H3        1.0  0.2159819558329303  0.6503568702801773  0.27405344570431106  1.0000
  H   H4        1.0  0.784016578957221  0.3496437731762968  0.725943443995199  1.0000
  H   H5        1.0  0.8850142435616845  0.42472849230867377  0.14457679103526294  1.0000
  H   H6        1.0  0.11498535972116743  0.5752721536286175  0.8554229863076088  1.0000
  H   H7        1.0  0.4825059414793317  0.19919142610787333  0.965096716173214  1.0000
  H   H8        1.0  0.5174947274371178  0.8008092218602487  0.03490251269609964  1.0000
  H   H9        1.0  0.3664086605465826  0.32357495256555785  0.08152993266698161  1.0000
  H   H10       1.0  0.633590762874654  0.6764247285057366  0.9184714616779317  1.0000
  H   H11       1.0  0.2865962210454214  0.5088433270478276  0.1320689733659393  1.0000
  H   H12       1.0  0.7134033808078755  0.4911573186644704  0.8679290859184688  1.0000
  H   H13       1.0  0.18704717779851884  0.9931581368362149  0.330738078176779  1.0000
  H   H14       1.0  0.8129527666679832  0.006838650880432301  0.6692616054961107  1.0000
  H   H15       1.0  0.7440053291393268  0.8783512630474494  0.3083390807786516  1.0000
  H   H16       1.0  0.2559932077951643  0.12164938074651845  0.6916603860085431  1.0000
  H   H17       1.0  0.2361823546155719  0.8336451683393024  0.4293553565179451  1.0000
  H   H18       1.0  0.7638179524332925  0.16635354955932513  0.5706445292677671  1.0000
  H   H19       1.0  0.28158298166011525  0.6701335504207578  0.5783714561957041  1.0000
  H   H20       1.0  0.7184178706918444  0.3298680629758408  0.4216304508177089  1.0000
  H   H21       1.0  0.09646169953589377  0.11816667472874093  0.1551549949335893  1.0000
  H   H22       1.0  0.9035387888041484  0.8818330082608841  0.8448449919085447  1.0000
  H   H23       1.0  0.6708350124460624  0.0098664899183305  0.13300385726374497  1.0000
  H   H24       1.0  0.3291656557556024  0.9901341579372914  0.8669945125763476  1.0000
  C   C1        1.0  0.5091882860958775  0.5311643845865464  0.2608296687921836  1.0000
  C   C2        1.0  0.4908113179017592  0.46883626146323837  0.7391709675799233  1.0000
  C   C3        1.0  0.7151248121697478  0.4819859324923003  0.2017307412316498  1.0000
  C   C4        1.0  0.2848771051010246  0.518015682822629  0.7982697582789768  1.0000
  C   C5        1.0  0.5528536770609023  0.6538858824653248  0.4408316836514601  1.0000
  C   C6        1.0  0.44714485915881147  0.34611476121614265  0.5591669241065134  1.0000
  C   C7        1.0  0.3260934539723693  0.6294394794559397  0.3005269881200689  1.0000
  C   C8        1.0  0.6739063291721051  0.3705621313473487  0.6994711722207538  1.0000
  C   C9        1.0  0.7706438134471083  0.4066377205614773  0.13319879132711074  1.0000
  C   C10       1.0  0.2293579218177015  0.5933629295499685  0.8668007480978731  1.0000
  C   C11       1.0  0.5678114853331023  0.45434337577390954  0.18481444345079012  1.0000
  C   C12       1.0  0.43218936558929505  0.5456582373976958  0.8151857455041664  1.0000
  C   C13       1.0  0.5451426212886474  0.2810634404983716  0.03259581725131968  1.0000
  C   C14       1.0  0.45485875353814015  0.7189352797685802  0.9674060971485332  1.0000
  C   C15       1.0  0.4811997068825207  0.35171950615222874  0.09728547207634362  1.0000
  C   C16       1.0  0.5188009634634767  0.6482811420408795  0.9027154748514334  1.0000
  C   C17       1.0  0.36540197158308263  0.5510383070818534  0.2210631224534438  1.0000
  C   C18       1.0  0.6345965646366237  0.4489623365996138  0.7789354853045224  1.0000
  C   C19       1.0  0.016832476244097443  0.8353166869909573  0.430040109454616  1.0000
  C   C20       1.0  0.9831667644563992  0.16468202876434654  0.5699594657754333  1.0000
  C   C21       1.0  0.9718367931988894  0.921860273669495  0.3332614595600063  1.0000
  C   C22       1.0  0.028162084919245  0.0781365119038284  0.6667379135572133  1.0000
  C   C23       1.0  0.9554312139665414  0.7040473756915518  0.5590507553258847  1.0000
  C   C24       1.0  0.044570522727831005  0.29595327464488724  0.44095050215756254  1.0000
  C   C25       1.0  0.07129764301024727  0.9924914527948449  0.2902860684910067  1.0000
  C   C26       1.0  0.9287024827474325  0.007506300012799701  0.7097137162382979  1.0000
  C   C27       1.0  0.8252325011065978  0.9300775104072161  0.27702778316757565  1.0000
  C   C28       1.0  0.17476567324553116  0.0699212032047711  0.7229714815067964  1.0000
  C   C29       1.0  0.153164666617613  0.7979169542116509  0.4661784086992213  1.0000
  C   C30       1.0  0.8468360051579464  0.2020836942064506  0.533824256287005  1.0000
  C   C31       1.0  0.1792038801493518  0.7064281312630671  0.5498280770640491  1.0000
  C   C32       1.0  0.8207991041845587  0.29357348630768604  0.45017359203148294  1.0000
  C   C33       1.0  0.021761787607985607  0.06332926127038263  0.1917973726677005  1.0000
  C   C34       1.0  0.9782385187261011  0.9366694565157515  0.8082016540887834  1.0000
  C   C35       1.0  0.7844687778370201  0.0027492321297728  0.17887532123536698  1.0000
  C   C36       1.0  0.2155315284970669  0.9972494856563616  0.8211237055211242  1.0000
  S   S1        1.0  0.6675180100797108  0.7263637878427788  0.5899220276781919  1.0000
  S   S2        1.0  0.3324805268547805  0.2736368559511889  0.4100774391090027  1.0000
  S   S3        1.0  0.8383290569886839  0.6316743666761584  0.6316479223168089  1.0000
  S   S4        1.0  0.1616705477237304  0.36832627948612645  0.3683535730845194  1.0000
  I   I1        1.0  0.04651479120141031  0.3048585865226415  0.9482569406915929  1.0000
  I   I2        1.0  0.9534858762854694  0.6951420612204802  0.05174057011926444  1.0000
  I   I3        1.0  0.5796457160253113  0.008310405596368801  0.7853187602280727  1.0000
  I   I4        1.0  0.42035388868709594  0.9916902405659161  0.21468273517326247  1.0000
  N   N1        1.0  0.687351074886699  0.30757213096069347  0.050295733398030465  1.0000
  N   N2        1.0  0.31264834781976  0.6924275499981007  0.9497048019176545  1.0000
  N   N3        1.0  0.6041527357953456  0.5839944491949896  0.3719968360754962  1.0000
  N   N4        1.0  0.395848295703459  0.4160081289551132  0.628002594906647  1.0000
  N   N5        1.0  0.41884412377245184  0.6816496699462392  0.4115682865538944  1.0000
  N   N6        1.0  0.5811552982192224  0.318350010900062  0.5884313897325626  1.0000
  N   N7        1.0  0.9166574853795383  0.7878660005273659  0.4779305810804218  1.0000
  N   N8        1.0  0.08334175532095861  0.212132715227945  0.5220689941496204  1.0000
  N   N9        1.0  0.08041723827550133  0.6580622098474651  0.5968919340284629  1.0000
  N   N10       1.0  0.9195834327852805  0.3419384384581435  0.4031098719285353  1.0000
  N   N11       1.0  0.8804493998065296  0.06726244024582681  0.135739945171821  1.0000
  N   N12       1.0  0.11955108853351258  0.9327372427437983  0.8642600416703132  1.0000
