data_image0
_chemical_formula_structural       Zr6H24C52S10N4O37
_chemical_formula_sum              "Zr6 H24 C52 S10 N4 O37"
_cell_length_a       16.442972799781284
_cell_length_b       16.470730802284464
_cell_length_c       16.51659953290009
_cell_angle_alpha    62.1528776109143
_cell_angle_beta     59.983135151047215
_cell_angle_gamma    60.25932073228391

_space_group_name_H-M_alt    "P 1"
_space_group_IT_number       1

loop_
  _space_group_symop_operation_xyz
  'x, y, z'

loop_
  _atom_site_type_symbol
  _atom_site_label
  _atom_site_symmetry_multiplicity
  _atom_site_fract_x
  _atom_site_fract_y
  _atom_site_fract_z
  _atom_site_occupancy
  Zr  Zr1       1.0  0.8900046913509667  0.9018888675756643  0.5996717418545429  1.0000
  Zr  Zr2       1.0  0.1097768451445162  0.10537068712356762  0.3964649192100822  1.0000
  Zr  Zr3       1.0  0.10428045141657089  0.8973402778560384  0.6046770359674056  1.0000
  Zr  Zr4       1.0  0.895536200360624  0.10936246157544356  0.3929883946067604  1.0000
  Zr  Zr5       1.0  0.10963688238958699  0.8937888421654705  0.38923394755895646  1.0000
  Zr  Zr6       1.0  0.8905133302299929  0.11245139145382413  0.6084453718341648  1.0000
  H   H1        1.0  0.0806229303389542  0.7543092278091522  0.5773162208557494  1.0000
  H   H2        1.0  0.0892228893000748  0.08233752402750133  0.2494761209286551  1.0000
  H   H3        1.0  0.08343452002543472  0.08531167609093873  0.5876516930825416  1.0000
  H   H4        1.0  0.7442491416958462  0.09246855533254461  0.580752856928555  1.0000
  H   H5        1.0  0.12489317713807677  0.611762425691083  0.3608019147645791  1.0000
  H   H6        1.0  0.6100981684558205  0.12706284175263263  0.902110602592984  1.0000
  H   H7        1.0  0.8662460725307284  0.12480252424824563  0.11942974047946815  1.0000
  H   H8        1.0  0.6214320488664172  0.3954880730142706  0.36497016211477973  1.0000
  H   H9        1.0  0.8671059370820375  0.6477608067779456  0.8284906707180967  1.0000
  H   H10       1.0  0.15445092248804565  0.3360084646365706  0.14358425870274516  1.0000
  H   H11       1.0  0.6214276089218983  0.872275943255417  0.6096604281575678  1.0000
  H   H12       1.0  0.8080222232330098  0.454760048872707  0.6743229085762935  1.0000
  H   H13       1.0  0.44893438379738626  0.8136867691953783  0.06007004223250324  1.0000
  H   H14       1.0  0.1712414531138291  0.8147333775817245  0.9352256427277013  1.0000
  H   H15       1.0  0.43563041394539653  0.5837841403837418  0.6712221959604605  1.0000
  H   H16       1.0  0.437471183256825  0.1726023096318343  0.31691877955067593  1.0000
  H   H17       1.0  0.2346760963703217  0.49523958483228364  0.9213385313965504  1.0000
  H   H18       1.0  0.24714835193785922  0.4283471119076552  0.029600029562168083  1.0000
  H   H19       1.0  0.1018454019556073  0.720582223783275  0.8382024257092054  1.0000
  H   H20       1.0  0.13700417799253725  0.6292897140835618  0.9393825077654083  1.0000
  H   H21       1.0  0.8511473570708926  0.4257608500259026  0.9834168575948823  1.0000
  H   H22       1.0  0.7948686065695224  0.535386889768816  0.9205074146689255  1.0000
  H   H23       1.0  0.843866137071444  0.3374134776530796  0.2106691778518838  1.0000
  H   H24       1.0  0.7968034730541047  0.43855437592471025  0.11993658670174767  1.0000
  C   C1        1.0  0.9962118359101736  0.7386401637386298  0.4850116853405025  1.0000
  C   C2        1.0  0.2802873044697731  0.9899781487091206  0.2336032400295095  1.0000
  C   C3        1.0  0.9945411158750372  0.2754836611832874  0.5040482786815444  1.0000
  C   C4        1.0  0.7261669677793634  0.00804667732872834  0.770838342820838  1.0000
  C   C5        1.0  0.9844811023389892  0.7431435116026036  0.7662221181374703  1.0000
  C   C6        1.0  0.7317103241258068  0.002690394021016115  0.4898466255035885  1.0000
  C   C7        1.0  0.005719964881805541  0.2714342904586503  0.2375360453726287  1.0000
  C   C8        1.0  0.2764680601644047  0.9958397129271359  0.4963548996849667  1.0000
  C   C9        1.0  0.2747942903124427  0.7335856782296516  0.49467211867413124  1.0000
  C   C10       1.0  0.9929660134466473  0.9995830930426877  0.7763606015449369  1.0000
  C   C11       1.0  0.7312458639596071  0.2806253320195322  0.4961351328803402  1.0000
  C   C12       1.0  0.9973163645189516  0.9984540539412519  0.22964573439931935  1.0000
  C   C13       1.0  0.9237266842890292  0.425313579876999  0.5631932219214092  1.0000
  C   C14       1.0  0.061315641088839266  0.5933083743521267  0.4224397489564282  1.0000
  C   C15       1.0  0.9916479571358322  0.36705159673194027  0.5005869928768547  1.0000
  C   C16       1.0  0.9945826072792271  0.6499255425889601  0.4855435143582837  1.0000
  C   C17       1.0  0.03559369331532011  0.5115692905032034  0.45000327534843626  1.0000
  C   C18       1.0  0.9491733773149774  0.507960440650159  0.5339622381992015  1.0000
  C   C19       1.0  0.4236189175444449  0.9257033760587564  0.0884762434725062  1.0000
  C   C20       1.0  0.5895837914064826  0.06535950936565628  0.9209661103549891  1.0000
  C   C21       1.0  0.36995495122100386  0.9891116927330332  0.14601373752292784  1.0000
  C   C22       1.0  0.6408692305386195  0.0033825509365922714  0.8633294317662816  1.0000
  C   C23       1.0  0.510484494761684  0.037221466179175905  0.003424606961011932  1.0000
  C   C24       1.0  0.5037938860767281  0.9536669823754026  0.00682246743063769  1.0000
  C   C25       1.0  0.05752206414157236  0.9282339982457517  0.9177745670837538  1.0000
  C   C26       1.0  0.927021114205793  0.062417478691330165  0.09496395135194295  1.0000
  C   C27       1.0  0.9915223099634429  0.9959124215244586  0.867305624024027  1.0000
  C   C28       1.0  0.9941337874700692  0.9961894634543215  0.14314158960846854  1.0000
  C   C29       1.0  0.9493682045990326  0.037776369277239014  0.01304654136910691  1.0000
  C   C30       1.0  0.03328948769771481  0.9525691171150826  0.0008762886511560637  1.0000
  C   C31       1.0  0.4161096258579417  0.5987966739810987  0.5597836983822544  1.0000
  C   C32       1.0  0.5965337878245053  0.42098583287641833  0.4263117176207272  1.0000
  C   C33       1.0  0.36581480254874754  0.6475942912201234  0.49352914711045764  1.0000
  C   C34       1.0  0.6446415468518581  0.3720403730775458  0.49344395818310005  1.0000
  C   C35       1.0  0.513557754298148  0.5041340012599845  0.4495730714919689  1.0000
  C   C36       1.0  0.5004078339501771  0.5167734453939801  0.534414329897629  1.0000
  C   C37       1.0  0.04137709492493959  0.6127718796043384  0.9073896383890983  1.0000
  C   C38       1.0  0.9102856944318131  0.6142769265293634  0.8760166165627933  1.0000
  C   C39       1.0  0.896472423099169  0.5345169009814867  0.955516451681241  1.0000
  C   C40       1.0  0.9565378810274012  0.4888196880372392  0.015536982407311856  1.0000
  C   C41       1.0  0.9392670417901954  0.41049356169650497  0.10513470705581784  1.0000
  C   C42       1.0  0.09767570518150123  0.38258612763569744  0.10950519782426936  1.0000
  C   C43       1.0  0.1109564217977236  0.4626266423213111  0.0301251811345437  1.0000
  C   C44       1.0  0.03674029542173673  0.5219295261399708  0.9842790561809238  1.0000
  C   C45       1.0  0.9790936397937169  0.6566388108856532  0.8516483187428251  1.0000
  C   C46       1.0  0.01205773726871937  0.35665004171310943  0.15056745618797857  1.0000
  C   C47       1.0  0.41987942581713594  0.059762915710543034  0.42531343515186393  1.0000
  C   C48       1.0  0.5972677784694724  0.931786934468086  0.550431582012642  1.0000
  C   C49       1.0  0.368623524169308  0.9940499204626434  0.4909244143382308  1.0000
  C   C50       1.0  0.6460195187890034  0.9986703586268534  0.4868969959471411  1.0000
  C   C51       1.0  0.5152621485273696  0.9530062912527629  0.527888143864466  1.0000
  C   C52       1.0  0.5037452719147666  0.035932557235966625  0.44692311457350087  1.0000
  S   S1        1.0  0.08559524281918131  0.413681818403802  0.4064920027854201  1.0000
  S   S2        1.0  0.8994629690174277  0.6049692191055132  0.5788370776296219  1.0000
  S   S3        1.0  0.4183823531328058  0.08157504867593703  0.10070427640793161  1.0000
  S   S4        1.0  0.5944730495873074  0.9097517805087492  0.9089165500042427  1.0000
  S   S5        1.0  0.8998754678272362  0.08804774044816102  0.9224995183481612  1.0000
  S   S6        1.0  0.0845766868142873  0.9027684071188489  0.09002254182159662  1.0000
  S   S7        1.0  0.42255936265723865  0.5933629484380348  0.40042246526831343  1.0000
  S   S8        1.0  0.5899880701278163  0.4268664316885946  0.585287067516468  1.0000
  S   S9        1.0  0.4235238205532282  0.9035489681813615  0.5775318845284544  1.0000
  S   S10       1.0  0.5936313257923301  0.08749283885536843  0.39841020129031074  1.0000
  N   N1        1.0  0.1990218321447443  0.48405594518806794  0.9949677089942667  1.0000
  N   N2        1.0  0.10302965069775641  0.65543912386844  0.8908469754837115  1.0000
  N   N3        1.0  0.8229523509884941  0.4988342298849346  0.975637039330593  1.0000
  N   N4        1.0  0.8537995746398295  0.38996723945142264  0.14523917672988756  1.0000
  O   O1        1.0  0.9252859126834205  0.776153061685122  0.5533927395086237  1.0000
  O   O2        1.0  0.24490565196987285  0.05940982971851839  0.2701474719700485  1.0000
  O   O3        1.0  0.0672331474078476  0.2368836440224698  0.43679411526613177  1.0000
  O   O4        1.0  0.7589882325013801  0.9417907743816158  0.7313194475515984  1.0000
  O   O5        1.0  0.0536220463870478  0.7780748244568444  0.7340542287645561  1.0000
  O   O6        1.0  0.7655308961708159  0.07135726749119446  0.424570940492913  1.0000
  O   O7        1.0  0.9338002090331158  0.2387992576073898  0.2727977838519847  1.0000
  O   O8        1.0  0.2399775181412808  0.9299129330245177  0.565342186836915  1.0000
  O   O9        1.0  0.24185261126206817  0.7652835568163213  0.42561373665469654  1.0000
  O   O10       1.0  0.9246374424060804  0.07027182336646826  0.7427810259143899  1.0000
  O   O11       1.0  0.7623215558060892  0.24650426084719604  0.5666811415891715  1.0000
  O   O12       1.0  0.06694559643642602  0.9297253141153378  0.2617251338829972  1.0000
  O   O13       1.0  0.06357944250175512  0.9325765222704947  0.7366941424104425  1.0000
  O   O14       1.0  0.7663975389822895  0.24265225243838265  0.42805346814076733  1.0000
  O   O15       1.0  0.9305789024419154  0.07012440794746079  0.26391314901146495  1.0000
  O   O16       1.0  0.2345309903137576  0.7695928131894263  0.5654002278946207  1.0000
  O   O17       1.0  0.9199558529292271  0.7791085919414087  0.7251005079265264  1.0000
  O   O18       1.0  0.23875763124762256  0.06481008370950993  0.4320213595992115  1.0000
  O   O19       1.0  0.07476430142924063  0.2311345240853911  0.2737814072428364  1.0000
  O   O20       1.0  0.7635433758417703  0.937419213030573  0.5591859900627866  1.0000
  O   O21       1.0  0.7590425808130945  0.07753365244013817  0.7375842907611627  1.0000
  O   O22       1.0  0.06810637667754775  0.7692125128357433  0.41860548327732494  1.0000
  O   O23       1.0  0.24303749062514837  0.9237600737195139  0.2659134232479089  1.0000
  O   O24       1.0  0.9262121916268665  0.24058812605816382  0.5732177685587772  1.0000
  O   O25       1.0  0.816691694930448  0.06783063024987261  0.5574437745203226  1.0000
  O   O26       1.0  0.05876693462943188  0.062127788846083755  0.5630127701804996  1.0000
  O   O27       1.0  0.0637102053345657  0.05860617378448301  0.3202316049677734  1.0000
  O   O28       1.0  0.05795458139355234  0.8250875710991039  0.5534113455363536  1.0000
  O   O29       1.0  0.13350116742817156  0.95613815348446  0.4551129466393462  1.0000
  O   O30       1.0  0.9559523093547354  0.9598265052557268  0.45060954971026473  1.0000
  O   O31       1.0  0.9559986359969199  0.13452307647374787  0.4587127813141762  1.0000
  O   O32       1.0  0.9515745487182199  0.9632748600298269  0.6296219304751459  1.0000
  O   O33       1.0  0.8443163244161126  0.403918197070148  0.641842418243094  1.0000
  O   O34       1.0  0.4000825198107803  0.8483135436789198  0.10894733034763944  1.0000
  O   O35       1.0  0.13522437168499798  0.8495972413280272  0.8897361169171633  1.0000
  O   O36       1.0  0.3866589233826258  0.6265569337698267  0.6387130443533237  1.0000
  O   O37       1.0  0.39126774642669193  0.1366350897455959  0.35179120264645997  1.0000
