data_image0
_chemical_formula_structural       Zn16H128C176N16Cl32O64
_chemical_formula_sum              "Zn16 H128 C176 N16 Cl32 O64"
_cell_length_a       21.99144424093674
_cell_length_b       21.991415807092036
_cell_length_c       24.654123743802863
_cell_angle_alpha    63.5121572206063
_cell_angle_beta     63.512061597052934
_cell_angle_gamma    89.99715256727119

_space_group_name_H-M_alt    "P 1"
_space_group_IT_number       1

loop_
  _space_group_symop_operation_xyz
  'x, y, z'

loop_
  _atom_site_type_symbol
  _atom_site_label
  _atom_site_symmetry_multiplicity
  _atom_site_fract_x
  _atom_site_fract_y
  _atom_site_fract_z
  _atom_site_occupancy
  Zn  Zn1       1.0  0.023223013009904016  0.027151505496504875  0.42558111661356435  1.0000
  Zn  Zn2       1.0  0.551180518351977  0.5472632630338764  0.4256099668253555  1.0000
  Zn  Zn3       1.0  0.277175619163316  0.30114733678649214  0.9256237087691588  1.0000
  Zn  Zn4       1.0  0.7972515296004656  0.7732017961643647  0.9256125455821621  1.0000
  Zn  Zn5       1.0  0.7267953892725815  0.7027454887156566  0.07438936972968684  1.0000
  Zn  Zn6       1.0  0.19885380003444209  0.22282729683437447  0.07437564805586308  1.0000
  Zn  Zn7       1.0  0.47284923524564004  0.47677961630132154  0.5744190416210841  1.0000
  Zn  Zn8       1.0  0.9527346062055033  0.9488198054051933  0.5743923509494451  1.0000
  Zn  Zn9       1.0  0.22676726744611395  0.7228249511158111  0.07438671509724051  1.0000
  Zn  Zn10      1.0  0.6988665484755928  0.20273809055382944  0.07439867367288848  1.0000
  Zn  Zn11      1.0  0.9728439860130891  0.4487895515472003  0.5744049945556429  1.0000
  Zn  Zn12      1.0  0.45273766335865445  0.9768130342614897  0.5743958284788134  1.0000
  Zn  Zn13      1.0  0.5231893879055534  0.047266257587636855  0.4256008807641012  1.0000
  Zn  Zn14      1.0  0.051209802898675716  0.5271550149305425  0.42559523129863663  1.0000
  Zn  Zn15      1.0  0.777175984112894  0.2732323858933652  0.9256139520366419  1.0000
  Zn  Zn16      1.0  0.297263634652012  0.8011345596888828  0.9256016925915064  1.0000
  H   H1        1.0  0.21737655198528918  0.21050443432957874  0.19274940557359346  1.0000
  H   H2        1.0  0.14754821246027217  0.25111546548244223  0.1947591521779231  1.0000
  H   H3        1.0  0.15164958831594078  0.06810142088812646  0.18157418613165532  1.0000
  H   H4        1.0  0.2209876686173687  0.106888379046346  0.1833986155439646  1.0000
  H   H5        1.0  0.35336092943204994  0.01808506013929897  0.4012983795072956  1.0000
  H   H6        1.0  0.016464101238810418  0.7211226647799618  0.4026345793529771  1.0000
  H   H7        1.0  0.05295425866366804  0.19836294770717436  0.1915961000116653  1.0000
  H   H8        1.0  0.05594004238587053  0.12134911091929007  0.18507147039385072  1.0000
  H   H9        1.0  0.5898863215450306  0.5967644930869439  0.19276981750677186  1.0000
  H   H10       1.0  0.6576813897389259  0.554122019070185  0.19481597982168347  1.0000
  H   H11       1.0  0.6667959563940398  0.7503475598916153  0.1815758210780133  1.0000
  H   H12       1.0  0.5956178185240973  0.7097204648219061  0.1834308857933209  1.0000
  H   H13       1.0  0.24531460338181427  0.5806003260439994  0.4012973273073542  1.0000
  H   H14       1.0  0.580832568300302  0.8762472641560918  0.402648895541347  1.0000
  H   H15       1.0  0.7554740062069883  0.6100787354048051  0.19158521619072388  1.0000
  H   H16       1.0  0.7589912574241992  0.6935988458170071  0.18508908384115594  1.0000
  H   H17       1.0  0.4604377465069335  0.33981161163816126  0.6928117505431289  1.0000
  H   H18       1.0  0.5010384869456957  0.40761422562541577  0.694837132023018  1.0000
  H   H19       1.0  0.3180419781772913  0.41679191765816614  0.6816337393577997  1.0000
  H   H20       1.0  0.3567746195966138  0.34559048021743166  0.6834779346877937  1.0000
  H   H21       1.0  0.26820684570309095  0.9953129006010426  0.9011859052191795  1.0000
  H   H22       1.0  0.9711643069398905  0.3309217182338954  0.9026279801502214  1.0000
  H   H23       1.0  0.44835821894121614  0.5054390959097574  0.6915658249282899  1.0000
  H   H24       1.0  0.3713511700326962  0.5089718512492849  0.6850361459290966  1.0000
  H   H25       1.0  0.8467024165956546  0.9673415019180281  0.692796958659116  1.0000
  H   H26       1.0  0.8041023504326436  0.897492404061118  0.694825802837194  1.0000
  H   H27       1.0  0.00032502281118243584  0.9016532434244552  0.6815822404905489  1.0000
  H   H28       1.0  0.9596756286158482  0.9709731905637894  0.6834625032103716  1.0000
  H   H29       1.0  0.8306097349558145  0.10340931297682222  0.901182438160852  1.0000
  H   H30       1.0  0.12626301998565756  0.7665137747095868  0.9025742274153216  1.0000
  H   H31       1.0  0.8601081475810374  0.802974683880393  0.6915493463884134  1.0000
  H   H32       1.0  0.9436396898215593  0.8059770741069625  0.68503966596532  1.0000
  H   H33       1.0  0.5326587428159685  0.6532965392414524  0.3072013376072604  1.0000
  H   H34       1.0  0.6025055118948189  0.6958951018730343  0.3051762449760461  1.0000
  H   H35       1.0  0.5983476077667121  0.4996752343829911  0.31841745039070457  1.0000
  H   H36       1.0  0.5290272711508026  0.540322974936181  0.3165395476680359  1.0000
  H   H37       1.0  0.39658963047288864  0.6693900837026732  0.09882010105034311  1.0000
  H   H38       1.0  0.7334837722249292  0.3737363186887563  0.09742637697102902  1.0000
  H   H39       1.0  0.6970245605412658  0.6398938603704777  0.3084494403452639  1.0000
  H   H40       1.0  0.6940223096996688  0.556360287080487  0.31496389231652  1.0000
  H   H41       1.0  0.16018954381471676  0.039562232891896074  0.30718421670651713  1.0000
  H   H42       1.0  0.09238635228607003  0.9989614283245842  0.305159303171422  1.0000
  H   H43       1.0  0.08320765846140435  0.18195892495359797  0.3183659532346894  1.0000
  H   H44       1.0  0.15441079416565637  0.14322601271210533  0.3165195491352364  1.0000
  H   H45       1.0  0.5046865770463783  0.23179569242165596  0.09881318378403851  1.0000
  H   H46       1.0  0.1690779379773488  0.5288364165720195  0.09737095050358849  1.0000
  H   H47       1.0  0.9945580616017368  0.05164396619540665  0.30843417221029773  1.0000
  H   H48       1.0  0.9910302378044163  0.12865267867591962  0.3149613468721314  1.0000
  H   H49       1.0  0.28949682354532763  0.2826232373646601  0.8072477649001615  1.0000
  H   H50       1.0  0.24888690272352698  0.35245093704173047  0.805238661969689  1.0000
  H   H51       1.0  0.43189928758035007  0.3483488801173279  0.8184226632980653  1.0000
  H   H52       1.0  0.39311209468245084  0.2790132313881627  0.816596449371204  1.0000
  H   H53       1.0  0.48191344973355393  0.1466400823914567  0.5986999529453173  1.0000
  H   H54       1.0  0.7788783511905069  0.4835357619201659  0.5973643242297089  1.0000
  H   H55       1.0  0.30163739309325177  0.4470434276297153  0.80840107185481  1.0000
  H   H56       1.0  0.3786489445748559  0.44405957556105563  0.8149274557107095  1.0000
  H   H57       1.0  0.903237438646855  0.9101114454769924  0.8072329917641526  1.0000
  H   H58       1.0  0.9458774715270976  0.8423146126030049  0.8051851864325529  1.0000
  H   H59       1.0  0.749649772382867  0.8332097220118514  0.8184275156229219  1.0000
  H   H60       1.0  0.7902841707591648  0.9043877789241884  0.8165677281189476  1.0000
  H   H61       1.0  0.9193989335336497  0.25468504062502695  0.5987017366892503  1.0000
  H   H62       1.0  0.6237517683504381  0.9191684380657391  0.5973509349249823  1.0000
  H   H63       1.0  0.8899124588101441  0.7445210937260354  0.8084202431438502  1.0000
  H   H64       1.0  0.8063934713326546  0.7410110568131927  0.8149121349096621  1.0000
  H   H65       1.0  0.03264103200225324  0.5395280086081797  0.30720091970999874  1.0000
  H   H66       1.0  0.1024944049050164  0.49894943626474486  0.30518528997870226  1.0000
  H   H67       1.0  0.09837628958941033  0.6819613683317839  0.31837238807433016  1.0000
  H   H68       1.0  0.029037661464180166  0.6432023849141543  0.3165249979173268  1.0000
  H   H69       1.0  0.8966223023866887  0.731828263084914  0.09877749191224448  1.0000
  H   H70       1.0  0.2335284658469163  0.02885682590184047  0.09731701805122843  1.0000
  H   H71       1.0  0.19701014985511028  0.5516681975027993  0.30846144289921545  1.0000
  H   H72       1.0  0.19401289654022946  0.6287105887154992  0.31493512808940943  1.0000
  H   H73       1.0  0.660161176701145  0.15322948716623594  0.30721570324172376  1.0000
  H   H74       1.0  0.5923521105638302  0.19585747452391913  0.3052073435452058  1.0000
  H   H75       1.0  0.5831754001764012  0.9996669730137809  0.3183824748487325  1.0000
  H   H76       1.0  0.6543719958209808  0.04022669189075861  0.3165549920190357  1.0000
  H   H77       1.0  0.004669535738237625  0.16939877399438066  0.09879149879829902  1.0000
  H   H78       1.0  0.6691126047955934  0.8737695405738535  0.09738403590322532  1.0000
  H   H79       1.0  0.4945728410335733  0.1399755851264145  0.3084258260741351  1.0000
  H   H80       1.0  0.49100206561310966  0.05645055736860621  0.31493008285003304  1.0000
  H   H81       1.0  0.7895192919640623  0.41012799388393245  0.8072479335125706  1.0000
  H   H82       1.0  0.7489170351184599  0.34232391863963557  0.8052219190283979  1.0000
  H   H83       1.0  0.9319153843344523  0.33320657623425387  0.8184244786535899  1.0000
  H   H84       1.0  0.8931476155110616  0.4043817513221624  0.8165820212699659  1.0000
  H   H85       1.0  0.9818897643648655  0.7546918617351321  0.5987261928922437  1.0000
  H   H86       1.0  0.2788474007743035  0.4190396208176849  0.5974250515318219  1.0000
  H   H87       1.0  0.8016534132631608  0.24453061198330747  0.8084345018808679  1.0000
  H   H88       1.0  0.8786871284438577  0.2410268962921547  0.8149122193036223  1.0000
  H   H89       1.0  0.4032694258013976  0.7826536797068684  0.807208586831358  1.0000
  H   H90       1.0  0.44585900689400404  0.8524789937163958  0.8052206043418694  1.0000
  H   H91       1.0  0.24967662258485038  0.8484000756320854  0.8183835346330569  1.0000
  H   H92       1.0  0.2902621679391116  0.7790283501621075  0.8165719281533727  1.0000
  H   H93       1.0  0.4193608873341007  0.6465888323638607  0.5987860311886308  1.0000
  H   H94       1.0  0.12372092337351165  0.9835969169132779  0.5973947729802517  1.0000
  H   H95       1.0  0.38989157470359026  0.9470483497273886  0.8084107050157884  1.0000
  H   H96       1.0  0.3063477082017202  0.9440283993835339  0.8149544397865826  1.0000
  H   H97       1.0  0.7173462919908148  0.09672719195312846  0.1927915716635269  1.0000
  H   H98       1.0  0.6475195911996892  0.05414018591527975  0.19477971075124167  1.0000
  H   H99       1.0  0.6516088389235649  0.25032411837042895  0.18161323287104375  1.0000
  H   H100      1.0  0.7209767277627678  0.20973263513431553  0.18342856874530608  1.0000
  H   H101      1.0  0.8534119245610936  0.0806387277581988  0.4012124683355653  1.0000
  H   H102      1.0  0.5164046755937123  0.37628080091688787  0.4026037662931259  1.0000
  H   H103      1.0  0.5529534888916248  0.1101089210041764  0.19158884763328388  1.0000
  H   H104      1.0  0.5559743728500094  0.19365456501645878  0.18504271924371818  1.0000
  H   H105      1.0  0.08987045506196993  0.7104792518714546  0.19275382224511617  1.0000
  H   H106      1.0  0.15767606562484104  0.7510821461861567  0.19477751756561898  1.0000
  H   H107      1.0  0.16678869640905705  0.5680810050314377  0.1815789246872868  1.0000
  H   H108      1.0  0.09561373526599944  0.6068486808787199  0.18342291572069772  1.0000
  H   H109      1.0  0.7453066754737564  0.518107090461548  0.4012754315155221  1.0000
  H   H110      1.0  0.08096117637196448  0.22115198476859618  0.40257428878435775  1.0000
  H   H111      1.0  0.2554708451674659  0.6983439007211558  0.1915627869155898  1.0000
  H   H112      1.0  0.2589698422983347  0.6213076991931814  0.1850886436356234  1.0000
  H   H113      1.0  0.9604696934216151  0.46735672505150916  0.6928038621046825  1.0000
  H   H114      1.0  0.001048296433857904  0.39750414303177434  0.6948185084262306  1.0000
  H   H115      1.0  0.8180392367761941  0.40162423656335  0.6816279687665273  1.0000
  H   H116      1.0  0.8567974954814093  0.47096188797888777  0.6834769265826709  1.0000
  H   H117      1.0  0.7681755112018609  0.6033776086322714  0.9012198110815605  1.0000
  H   H118      1.0  0.47114230140446983  0.26647040705748976  0.9026845670263131  1.0000
  H   H119      1.0  0.9483318300131741  0.3029898283193686  0.6915409241536141  1.0000
  H   H120      1.0  0.8712925507465457  0.30598719336399677  0.685062025159887  1.0000
  H   H121      1.0  0.34676984932199434  0.8398390882570226  0.692785467087198  1.0000
  H   H122      1.0  0.30414360300789417  0.9076503740164198  0.694790234868755  1.0000
  H   H123      1.0  0.5003338289254271  0.9168245081028842  0.6816171335567562  1.0000
  H   H124      1.0  0.45977263361797344  0.8456284472035945  0.6834445054688845  1.0000
  H   H125      1.0  0.3306035744022753  0.49532966434729503  0.9012099770368424  1.0000
  H   H126      1.0  0.6262304519713597  0.8308865956544409  0.9026158156383063  1.0000
  H   H127      1.0  0.3600295558866551  0.00543089663240424  0.691571618733157  1.0000
  H   H128      1.0  0.4435537569525395  0.008997970145500729  0.6850685376613229  1.0000
  C   C1        1.0  0.0037179038312801305  0.6714927050744135  0.5054979790870319  1.0000
  C   C2        1.0  0.9949615739759851  0.8043113522459676  0.49582066250529533  1.0000
  C   C3        1.0  0.9912194396726123  0.8726865902131987  0.49560019998177324  1.0000
  C   C4        1.0  0.007792991991344426  0.6031153948571912  0.5058201119248978  1.0000
  C   C5        1.0  0.16045426375664823  0.20025769167128965  0.2137981528696358  1.0000
  C   C6        1.0  0.16391428512226724  0.09447221312924366  0.2054847588201412  1.0000
  C   C7        1.0  0.30267401028493174  0.01058936808251329  0.44434107194554434  1.0000
  C   C8        1.0  0.009126998425045982  0.7286900656330173  0.44568677226453  1.0000
  C   C9        1.0  0.004689477434155397  0.7941025857026601  0.44038812983797715  1.0000
  C   C10       1.0  0.24260198399595384  0.006314052583050471  0.439006631422842  1.0000
  C   C11       1.0  0.06661700488554348  0.1477991608758771  0.20969560169398702  1.0000
  C   C12       1.0  0.4907334865072527  0.8230211122143132  0.5055026525016261  1.0000
  C   C13       1.0  0.5091694974017643  0.6998679066850357  0.4958467329568707  1.0000
  C   C14       1.0  0.5131554530135745  0.6317005984747296  0.49566873552188895  1.0000
  C   C15       1.0  0.4863982505126644  0.8910988026134061  0.505786897286562  1.0000
  C   C16       1.0  0.6257550158926577  0.5859644128421093  0.21383225106827558  1.0000
  C   C17       1.0  0.6306098444033453  0.7000685034880972  0.2055045285185173  1.0000
  C   C18       1.0  0.2529695664861792  0.5450767574350762  0.44434631471478525  1.0000
  C   C19       1.0  0.5451191377450898  0.8256281640202302  0.44569477202607294  1.0000
  C   C20       1.0  0.5548632285358936  0.7655039726965639  0.44042044299986577  1.0000
  C   C21       1.0  0.31836801603388676  0.5547040106182448  0.43902515309148527  1.0000
  C   C22       1.0  0.7236905549817223  0.6425246039042776  0.20970850894610762  1.0000
  C   C23       1.0  0.9215476594885388  0.24079903775398756  0.005480691209228857  1.0000
  C   C24       1.0  0.05430541054109041  0.25923927766102367  0.9958910617474077  1.0000
  C   C25       1.0  0.12263992824305357  0.26315787838009885  0.995697739927387  1.0000
  C   C26       1.0  0.853202131002526  0.2364503725630911  0.0057612970319311525  1.0000
  C   C27       1.0  0.45017673323053503  0.3756867897933488  0.7138654490062493  1.0000
  C   C28       1.0  0.34440222157117995  0.3805933168977446  0.7055373630680393  1.0000
  C   C29       1.0  0.26069065254333895  0.0029861746946123415  0.9442173106751213  1.0000
  C   C30       1.0  0.9787326757021404  0.2952170141918771  0.9456958892447249  1.0000
  C   C31       1.0  0.04413348986564369  0.30495804501380497  0.9404463649656095  1.0000
  C   C32       1.0  0.25633303731846996  0.06836885201749952  0.9389176945991978  1.0000
  C   C33       1.0  0.3977857161569887  0.4736682417591279  0.7096895085740871  1.0000
  C   C34       1.0  0.07304066809754772  0.7537621921739798  0.005443698174275482  1.0000
  C   C35       1.0  0.94985733243751  0.7448858633453098  0.9958816327310561  1.0000
  C   C36       1.0  0.8816799059234199  0.7411022851500276  0.9957416374164298  1.0000
  C   C37       1.0  0.14109264619114015  0.7578042553335251  0.005763870726305207  1.0000
  C   C38       1.0  0.8359368047573457  0.9104191372330278  0.7138400543245496  1.0000
  C   C39       1.0  0.9500531580210281  0.9139165468305278  0.705504675886573  1.0000
  C   C40       1.0  0.7950791342015647  0.052719229436590215  0.9442609515645871  1.0000
  C   C41       1.0  0.0756470835077608  0.7591851024115001  0.9456317381319864  1.0000
  C   C42       1.0  0.01547306069580421  0.7546354534142377  0.9404403006295398  1.0000
  C   C43       1.0  0.8047014441372655  0.992641996758962  0.9389359131229968  1.0000
  C   C44       1.0  0.8925454298900063  0.8166137984448122  0.7096876959426767  1.0000
  C   C45       1.0  0.7462388222344672  0.42695964312633067  0.9945548835085846  1.0000
  C   C46       1.0  0.7551167493927555  0.5501419066853116  0.0041164453107497044  1.0000
  C   C47       1.0  0.7588993237001417  0.6183217491200209  0.004254800023325276  1.0000
  C   C48       1.0  0.7421948356024757  0.35890390707253733  0.994238604958632  1.0000
  C   C49       1.0  0.5895817520966345  0.6640621742462613  0.2861590305792774  1.0000
  C   C50       1.0  0.5860838426953168  0.5499468825976803  0.29449540038367417  1.0000
  C   C51       1.0  0.4472789361084253  0.7049216251507957  0.055741073941028736  1.0000
  C   C52       1.0  0.7408143016435248  0.4243513728731542  0.05436869600807635  1.0000
  C   C53       1.0  0.7453639491916634  0.4845254532020816  0.05955978838976968  1.0000
  C   C54       1.0  0.507354716272218  0.6952989456346401  0.06106829136291483  1.0000
  C   C55       1.0  0.6833858132802318  0.607453702136368  0.29031266961050767  1.0000
  C   C56       1.0  0.25920163199511154  0.578451614017325  0.994519445370486  1.0000
  C   C57       1.0  0.24076421978510607  0.4456933974251029  0.0041101381363687515  1.0000
  C   C58       1.0  0.23684572161746334  0.37736191430556687  0.0043013207199465095  1.0000
  C   C59       1.0  0.2635506316112952  0.6467962014311722  0.9942407391210608  1.0000
  C   C60       1.0  0.12431390476803025  0.049823920527053644  0.2861308057972494  1.0000
  C   C61       1.0  0.11940731196180819  0.155598722457519  0.2944607924723216  1.0000
  C   C62       1.0  0.4970126637133347  0.23930991143063093  0.055784327966982517  1.0000
  C   C63       1.0  0.20478434695305486  0.5212670822667533  0.05430340139447761  1.0000
  C   C64       1.0  0.19504540807812998  0.4558663814287272  0.059552929905713356  1.0000
  C   C65       1.0  0.4316301623742121  0.24366761185877547  0.06108344711840632  1.0000
  C   C66       1.0  0.02633105488323652  0.10221582442577662  0.2903088787902349  1.0000
  C   C67       1.0  0.8285076878867911  0.49628083525806227  0.49450220936173395  1.0000
  C   C68       1.0  0.6956862820593914  0.5050340823416731  0.5041818361143839  1.0000
  C   C69       1.0  0.6273123318705345  0.5087739436727998  0.5044039249364759  1.0000
  C   C70       1.0  0.8968872360290518  0.4922109000359711  0.49417271365070536  1.0000
  C   C71       1.0  0.29974503904056593  0.3395453897491052  0.7861990956943502  1.0000
  C   C72       1.0  0.4055287264379929  0.33608532033222366  0.7945112478241043  1.0000
  C   C73       1.0  0.4894099920612124  0.1973282237423034  0.5556575622900582  1.0000
  C   C74       1.0  0.7713097123994  0.4908734365026104  0.554311817301418  1.0000
  C   C75       1.0  0.705898535146375  0.49530986191744125  0.559611056377513  1.0000
  C   C76       1.0  0.49368655103636894  0.2573983938349329  0.5609925072161631  1.0000
  C   C77       1.0  0.3522018433155553  0.4333817645771062  0.790302084880274  1.0000
  C   C78       1.0  0.6769784655634794  0.0092681167959512  0.49449592741230214  1.0000
  C   C79       1.0  0.8001322651795421  0.9908316183081496  0.5041531901140814  1.0000
  C   C80       1.0  0.868294502445856  0.9868459660089142  0.5043329916057501  1.0000
  C   C81       1.0  0.608901796342643  0.013604847353569408  0.4942094895183757  1.0000
  C   C82       1.0  0.9140358732343902  0.8742437528808505  0.786168569633695  1.0000
  C   C83       1.0  0.7999316570084576  0.8693935742499118  0.7944959436077357  1.0000
  C   C84       1.0  0.9549214364363717  0.24703113132398585  0.555653146882179  1.0000
  C   C85       1.0  0.6743719685253069  0.9548840752162634  0.5543037452908948  1.0000
  C   C86       1.0  0.7344957919638516  0.9451384554350352  0.5595795647457111  1.0000
  C   C87       1.0  0.9452950385252522  0.18163191312574156  0.5609744167959788  1.0000
  C   C88       1.0  0.8574716621319711  0.7763087232820068  0.7902930562071688  1.0000
  C   C89       1.0  0.24626509307871913  0.07845874456642578  0.9944743346083416  1.0000
  C   C90       1.0  0.2552022137829158  0.945716646669794  0.004057652013095372  1.0000
  C   C91       1.0  0.25893722447140993  0.8773650135023486  0.004253240854552649  1.0000
  C   C92       1.0  0.2421987819581944  0.1468187810649722  0.9941928164980639  1.0000
  C   C93       1.0  0.08956448936763914  0.5497960753900912  0.2861512030368801  1.0000
  C   C94       1.0  0.08610598104914405  0.655586363290041  0.29446606668040687  1.0000
  C   C95       1.0  0.9473002354335237  0.739370289253955  0.05572387241466004  1.0000
  C   C96       1.0  0.24088999826850707  0.021274034439926485  0.05426507552331832  1.0000
  C   C97       1.0  0.24541520078115323  0.9558893262031275  0.05951651955221843  1.0000
  C   C98       1.0  0.007397834088990964  0.7437255695942467  0.06099598933857917  1.0000
  C   C99       1.0  0.1833738625997158  0.6022447092309307  0.29030220565125114  1.0000
  C   C100      1.0  0.7592041895383659  0.9269861880682554  0.994500148619892  1.0000
  C   C101      1.0  0.74077460136796  0.050159974768789105  0.00411617099714328  1.0000
  C   C102      1.0  0.736899413149807  0.1183398075306242  0.004272570630483676  1.0000
  C   C103      1.0  0.763579319873706  0.85892590485097  0.9941872723996358  1.0000
  C   C104      1.0  0.6242837768187501  0.1640343145047395  0.2861653402999593  1.0000
  C   C105      1.0  0.6193830702623515  0.04992431341277378  0.2944795325385599  1.0000
  C   C106      1.0  0.9970125861435903  0.2049185464903685  0.05574799376792352  1.0000
  C   C107      1.0  0.7048123376912728  0.9243857627568558  0.054308395921069036  1.0000
  C   C108      1.0  0.6950760894156575  0.9845347452735635  0.05955560001749667  1.0000
  C   C109      1.0  0.931617871347093  0.1952864225980163  0.061060897903715466  1.0000
  C   C110      1.0  0.5263200930732027  0.10751142073603856  0.29029675909615804  1.0000
  C   C111      1.0  0.3284689846431379  0.5091901548545933  0.494576577825363  1.0000
  C   C112      1.0  0.1956891108573302  0.49073246189931286  0.5041946098955208  1.0000
  C   C113      1.0  0.12735954750564102  0.48675965432031626  0.5043635974217225  1.0000
  C   C114      1.0  0.39684422959237514  0.5135819863494149  0.4942445081845364  1.0000
  C   C115      1.0  0.7997758944940401  0.3742585588549401  0.7861921279475227  1.0000
  C   C116      1.0  0.9055505825183945  0.3693881499536002  0.7945027348709814  1.0000
  C   C117      1.0  0.9894129134000379  0.7470282586510778  0.5556815030222991  1.0000
  C   C118      1.0  0.2712840006274322  0.45475212427899664  0.554370347903209  1.0000
  C   C119      1.0  0.20588956024916175  0.44501214438845665  0.5596197944522602  1.0000
  C   C120      1.0  0.9936828870010503  0.6816205663873377  0.5610237512192383  1.0000
  C   C121      1.0  0.8522121555552009  0.27632189933541434  0.7903075867271667  1.0000
  C   C122      1.0  0.17696543662714956  0.9963445378602883  0.4945258151760044  1.0000
  C   C123      1.0  0.3001106530327959  0.005059174563335431  0.5041878493898723  1.0000
  C   C124      1.0  0.36825987277106986  0.00880774391346514  0.5043816147063893  1.0000
  C   C125      1.0  0.10889600673574054  0.9922317623411702  0.4942406436871495  1.0000
  C   C126      1.0  0.4140447010583939  0.8395749724586351  0.7861765838506686  1.0000
  C   C127      1.0  0.2999292949953514  0.836091636933766  0.794490383272944  1.0000
  C   C128      1.0  0.45486273736931093  0.6972936547725792  0.5557089789544563  1.0000
  C   C129      1.0  0.17434175595284537  0.9909267959350956  0.554342894183293  1.0000
  C   C130      1.0  0.23448755467817511  0.9954097931843219  0.5595863113547779  1.0000
  C   C131      1.0  0.4452346965433875  0.7573649962413923  0.5610529717615976  1.0000
  C   C132      1.0  0.3574355244860997  0.9333874423846992  0.7903038314368018  1.0000
  C   C133      1.0  0.5036573466718651  0.32303603026394967  0.5054729868766614  1.0000
  C   C134      1.0  0.49494049439273624  0.19988971153033222  0.4958115988376334  1.0000
  C   C135      1.0  0.4911962942124148  0.1317430253685926  0.4956150206043405  1.0000
  C   C136      1.0  0.5077710180708906  0.3911047674896009  0.5057571761746688  1.0000
  C   C137      1.0  0.660425130076824  0.08595389408974084  0.21382369672261362  1.0000
  C   C138      1.0  0.6639140036954174  0.2000701240705851  0.2055085100433162  1.0000
  C   C139      1.0  0.802706693322179  0.04513794520595838  0.44429101668467313  1.0000
  C   C140      1.0  0.5090757001176273  0.32565832352580776  0.44565629247165367  1.0000
  C   C141      1.0  0.5045923838403539  0.2655147697994167  0.4404112104778548  1.0000
  C   C142      1.0  0.7426365206637159  0.05476761086288206  0.43894463060724587  1.0000
  C   C143      1.0  0.5666137719417678  0.14256601408659006  0.20969588315615073  1.0000
  C   C144      1.0  0.9908107269300997  0.1715301749706057  0.5054233766540365  1.0000
  C   C145      1.0  0.009265651773098738  0.3043116796938248  0.4958051009541436  1.0000
  C   C146      1.0  0.01323782915194737  0.3726405371816312  0.4956329010451483  1.0000
  C   C147      1.0  0.9864189364328697  0.10315193773470105  0.5057581700339071  1.0000
  C   C148      1.0  0.12573962029057392  0.7002230257216977  0.21380962550649227  1.0000
  C   C149      1.0  0.1306086802248957  0.5944462752084404  0.20550004732674415  1.0000
  C   C150      1.0  0.7529715922396109  0.5105832512706953  0.44431926437409425  1.0000
  C   C151      1.0  0.04524789731214447  0.22871661402424334  0.44562919818984875  1.0000
  C   C152      1.0  0.05498719915468096  0.29411033018757843  0.4403809221045806  1.0000
  C   C153      1.0  0.8183780941328606  0.5063139103121086  0.43897629339623034  1.0000
  C   C154      1.0  0.22367696357981984  0.6477843807666304  0.2096929467412707  1.0000
  C   C155      1.0  0.42154086804811897  0.253734327385537  0.005527798578839375  1.0000
  C   C156      1.0  0.5542822829212856  0.24479868290917023  0.9959435098988935  1.0000
  C   C157      1.0  0.6226299941184337  0.24105912833442728  0.9957553605442018  1.0000
  C   C158      1.0  0.35318416192471613  0.2578036903089469  0.005804654379545552  1.0000
  C   C159      1.0  0.950202482429397  0.4104341689319852  0.7138518852218071  1.0000
  C   C160      1.0  0.8444123717992156  0.41389410878629457  0.705535121821967  1.0000
  C   C161      1.0  0.760630729127435  0.5526982916933816  0.9442764813096929  1.0000
  C   C162      1.0  0.4787247241392408  0.25910930132891247  0.945737007917451  1.0000
  C   C163      1.0  0.5441088244812067  0.2545842417188805  0.9404861131595866  1.0000
  C   C164      1.0  0.7562763832326383  0.4926017183441187  0.9390029570762906  1.0000
  C   C165      1.0  0.8977556160137823  0.3166259357490656  0.7096978409125471  1.0000
  C   C166      1.0  0.5730130200618504  0.7407965201351772  0.005501543865364126  1.0000
  C   C167      1.0  0.44983835945532047  0.7592247330548005  0.9958854703063977  1.0000
  C   C168      1.0  0.3816567961894109  0.763099296737998  0.9957324123967767  1.0000
  C   C169      1.0  0.6410735869590951  0.7364195545009267  0.005816465150829242  1.0000
  C   C170      1.0  0.33596534248673765  0.8757183160926089  0.7138345606022084  1.0000
  C   C171      1.0  0.4500759697306549  0.8806174672197498  0.7055194150709525  1.0000
  C   C172      1.0  0.29508453892592734  0.5029855294225597  0.9442529048739203  1.0000
  C   C173      1.0  0.575611785638607  0.7951864474743002  0.9456947962227461  1.0000
  C   C174      1.0  0.5154631630962145  0.8049230847898697  0.9404459561678636  1.0000
  C   C175      1.0  0.3047156783776471  0.5683796350745282  0.9389399554497615  1.0000
  C   C176      1.0  0.3924904981118334  0.9736817531272663  0.7097030112013626  1.0000
  N   N1        1.0  0.14353467024366048  0.16242398381194076  0.18300402764842258  1.0000
  N   N2        1.0  0.6734634278286366  0.6545834483399487  0.18303017689958517  1.0000
  N   N3        1.0  0.4123751818530721  0.4234102932680344  0.6830435914406366  1.0000
  N   N4        1.0  0.9045730312283025  0.8935309320004802  0.6830242429505093  1.0000
  N   N5        1.0  0.6064699823843753  0.5954263524312892  0.31697333928344307  1.0000
  N   N6        1.0  0.07659036612383831  0.08762491753963524  0.3169542151885453  1.0000
  N   N7        1.0  0.3375794836982352  0.35646557486064256  0.8169914982445264  1.0000
  N   N8        1.0  0.8454134819278144  0.8265352073614165  0.8169738461721182  1.0000
  N   N9        1.0  0.10646179851580943  0.5876275668840093  0.3169596839174957  1.0000
  N   N10       1.0  0.5765583524130946  0.0954175092299323  0.3169725408048266  1.0000
  N   N11       1.0  0.8375983460724754  0.3265466318343399  0.816983861636615  1.0000
  N   N12       1.0  0.3454049297066462  0.8564703354385585  0.8169772687553661  1.0000
  N   N13       1.0  0.6435330037576037  0.15459496354561242  0.1830220072553815  1.0000
  N   N14       1.0  0.17345136460618701  0.6623995907185006  0.18301676237015138  1.0000
  N   N15       1.0  0.9123732795950518  0.3935388086211517  0.6830407542951635  1.0000
  N   N16       1.0  0.4045848548285705  0.9234431912449848  0.6830270319530953  1.0000
  Cl  Cl1       1.0  0.22456167915763825  0.9916149236527968  0.6348922494086936  1.0000
  Cl  Cl2       1.0  0.252399122376147  0.01087491750894991  0.36346989867119833  1.0000
  Cl  Cl3       1.0  0.14052935116102114  0.3734913116050293  0.6349092385758796  1.0000
  Cl  Cl4       1.0  0.3841039026519085  0.6256484281014278  0.363461158010658  1.0000
  Cl  Cl5       1.0  0.2415835259872311  0.8905134292906922  0.13485362031627102  1.0000
  Cl  Cl6       1.0  0.2608805531406163  0.13412081959103242  0.8633702189248923  1.0000
  Cl  Cl7       1.0  0.6235815171568857  0.9746177308110688  0.13484936943475395  1.0000
  Cl  Cl8       1.0  0.8756926105473258  0.0024163683100081363  0.8634063620205127  1.0000
  Cl  Cl9       1.0  0.5253760004907522  0.876414148692646  0.8651537031314973  1.0000
  Cl  Cl10      1.0  0.4975776546591818  0.624308020211636  0.1365982487426791  1.0000
  Cl  Cl11      1.0  0.6094853985206113  0.2584162453057386  0.8651481527615064  1.0000
  Cl  Cl12      1.0  0.36587985081602187  0.23912422158660723  0.13662502936423948  1.0000
  Cl  Cl13      1.0  0.5083915027749344  0.2754419691678364  0.36510348645435897  1.0000
  Cl  Cl14      1.0  0.48912954835303424  0.2476060724819574  0.6365255900803036  1.0000
  Cl  Cl15      1.0  0.12650760466621594  0.3594727391800133  0.36509008876913646  1.0000
  Cl  Cl16      1.0  0.8743488949812105  0.11589313942435109  0.636540710372202  1.0000
  Cl  Cl17      1.0  0.02538309534168809  0.7584188316035705  0.8651338401888965  1.0000
  Cl  Cl18      1.0  0.9976171577280225  0.7391587389645337  0.13654355495662435  1.0000
  Cl  Cl19      1.0  0.1095003858376488  0.37644851370178134  0.8651248603471943  1.0000
  Cl  Cl20      1.0  0.8658674180763908  0.12431086718471807  0.13658939850022747  1.0000
  Cl  Cl21      1.0  0.008470413084573745  0.8594585433492622  0.3650890655689238  1.0000
  Cl  Cl22      1.0  0.9890796800189535  0.6158854359085808  0.6365995507233394  1.0000
  Cl  Cl23      1.0  0.6263647159108532  0.7754594243207577  0.36510632746092136  1.0000
  Cl  Cl24      1.0  0.37428256744317445  0.7475502359743442  0.6366376686920033  1.0000
  Cl  Cl25      1.0  0.7245422507322634  0.8736361464802725  0.6348915964155424  1.0000
  Cl  Cl26      1.0  0.7524483252489916  0.12571921265598  0.36335793179869574  1.0000
  Cl  Cl27      1.0  0.6405399545965694  0.4915319744638038  0.6349075795555734  1.0000
  Cl  Cl28      1.0  0.8841189915730753  0.5109155204241772  0.3633996712769516  1.0000
  Cl  Cl29      1.0  0.741576006822008  0.4746126753241952  0.1348656049142606  1.0000
  Cl  Cl30      1.0  0.7608465350159151  0.5023834401070102  0.8634558058478917  1.0000
  Cl  Cl31      1.0  0.12355769107274038  0.39049559045632515  0.13487329718640956  1.0000
  Cl  Cl32      1.0  0.3756921866842191  0.6341303141982378  0.863411176193985  1.0000
  O   O1        1.0  0.9497066613164906  0.8679813861317173  0.5541756439802015  1.0000
  O   O2        1.0  0.030602338147588358  0.9285936017009248  0.43864327921554025  1.0000
  O   O3        1.0  0.9654673567216179  0.5476178240569209  0.5617669261090938  1.0000
  O   O4        1.0  0.05567210025114389  0.9475645915489322  0.5515710618638964  1.0000
  O   O5        1.0  0.49609842312375474  0.5778208922268249  0.5542524784733303  1.0000
  O   O6        1.0  0.5307744610215368  0.6327566676850509  0.43871114183057364  1.0000
  O   O7        1.0  0.47279170408788235  0.8906648302333623  0.5617188489687452  1.0000
  O   O8        1.0  0.39273450636245855  0.5008313782400363  0.551610899798476  1.0000
  O   O9        1.0  0.1179243053212602  0.2459894753460077  0.05430304525337703  1.0000
  O   O10       1.0  0.17854517469576348  0.2807536786501072  0.9387449623570847  1.0000
  O   O11       1.0  0.7977071900397519  0.22284907661466474  0.06169333741758016  1.0000
  O   O12       1.0  0.19762051709845715  0.14267290496972146  0.0515886644660881  1.0000
  O   O13       1.0  0.8278132527101718  0.6996257451030843  0.05432700060077891  1.0000
  O   O14       1.0  0.8826777538008133  0.7804736624594069  0.9388085066772976  1.0000
  O   O15       1.0  0.14060962625467982  0.7154681722488901  0.061721157176115905  1.0000
  O   O16       1.0  0.7508382026128543  0.805669369552568  0.05153056649557902  1.0000
  O   O17       1.0  0.8003751387072671  0.6721870651253353  0.945667602579242  1.0000
  O   O18       1.0  0.7195274098747861  0.6173243796990276  0.06118774970779126  1.0000
  O   O19       1.0  0.7845362931725007  0.3593890805433516  0.9382771900102471  1.0000
  O   O20       1.0  0.6943313999638434  0.7491599137128302  0.9484705034906398  1.0000
  O   O21       1.0  0.25401443050752454  0.38207773724313626  0.9456990062788223  1.0000
  O   O22       1.0  0.21924782168354542  0.3214530970584732  0.0612575423684873  1.0000
  O   O23       1.0  0.27715254505608317  0.7022938297422101  0.9383038740526856  1.0000
  O   O24       1.0  0.3573296194701996  0.30237979669085036  0.9484123170035093  1.0000
  O   O25       1.0  0.6320148168825028  0.5502863217645454  0.44583184950956684  1.0000
  O   O26       1.0  0.5714044669965404  0.46939250528896537  0.56136493339492  1.0000
  O   O27       1.0  0.9523763794921507  0.5345309486648941  0.43823601126639045  1.0000
  O   O28       1.0  0.5524376407471651  0.44432696471849914  0.44842873935415645  1.0000
  O   O29       1.0  0.9221773457033108  0.003902781118611475  0.4457513653987065  1.0000
  O   O30       1.0  0.8672382729213058  0.9692239384413597  0.5612939847067224  1.0000
  O   O31       1.0  0.6093367228264412  0.027213156179598633  0.4382786153774419  1.0000
  O   O32       1.0  0.9991754269026388  0.10726208815111704  0.448388013162493  1.0000
  O   O33       1.0  0.3004181633138005  0.8820736317403329  0.9456678253450264  1.0000
  O   O34       1.0  0.21952344883966657  0.8214695124346603  0.06119689512698298  1.0000
  O   O35       1.0  0.2845126310043683  0.2023190873177112  0.9382580662765748  1.0000
  O   O36       1.0  0.19436773166306426  0.8023804985058476  0.9484053977117171  1.0000
  O   O37       1.0  0.7540517937274063  0.17223387148672462  0.9456783488818987  1.0000
  O   O38       1.0  0.7193345408364351  0.11728950612037889  0.0612248699898572  1.0000
  O   O39       1.0  0.7772135500179688  0.8594065753854991  0.9382208420473861  1.0000
  O   O40       1.0  0.8573417631972119  0.24923571941366157  0.9483812485702927  1.0000
  O   O41       1.0  0.13209201648768953  0.5038814194429548  0.4457686757077753  1.0000
  O   O42       1.0  0.07143062218899132  0.4691568503725134  0.561314485562747  1.0000
  O   O43       1.0  0.4523339769579594  0.5271985962038953  0.4383144021212147  1.0000
  O   O44       1.0  0.05243200735494476  0.6072236216751462  0.4484735243501419  1.0000
  O   O45       1.0  0.4221340045647963  0.050288940629251044  0.44579649830921386  1.0000
  O   O46       1.0  0.3672338223907092  0.9694638560231964  0.5613284679144358  1.0000
  O   O47       1.0  0.10933211720629296  0.03458108344205612  0.4383059917698445  1.0000
  O   O48       1.0  0.49916551257963704  0.9443445860476416  0.44842040796532967  1.0000
  O   O49       1.0  0.4497129617984968  0.07786692538937254  0.5542060468193526  1.0000
  O   O50       1.0  0.5305363941105625  0.13276883641405118  0.4386723389699655  1.0000
  O   O51       1.0  0.4654209391471512  0.390667953471798  0.561694028417044  1.0000
  O   O52       1.0  0.5556545339965383  0.0008366310442440223  0.5515786160409277  1.0000
  O   O53       1.0  0.9961103549874576  0.36790495234912135  0.5542350016371531  1.0000
  O   O54       1.0  0.030840210277162328  0.4285685638677421  0.4386889088650677  1.0000
  O   O55       1.0  0.9727975836102446  0.047662667919865974  0.5616876545157937  1.0000
  O   O56       1.0  0.8927747946315918  0.44756167210967124  0.5515295661047261  1.0000
  O   O57       1.0  0.6179261316289342  0.19958511534598958  0.05433055027886979  1.0000
  O   O58       1.0  0.6785310026937594  0.28048060736793434  0.9388013676656399  1.0000
  O   O59       1.0  0.29767916246823495  0.21548721679171473  0.061744599030966234  1.0000
  O   O60       1.0  0.6976218179745858  0.30563438705514295  0.05159339545188153  1.0000
  O   O61       1.0  0.327767734363519  0.7459525482251195  0.05432032790114501  1.0000
  O   O62       1.0  0.3827085003015612  0.7806661339433132  0.9387760034070426  1.0000
  O   O63       1.0  0.6405913643386967  0.7227850013013607  0.06178172718885121  1.0000
  O   O64       1.0  0.2507677330671925  0.6426606645619657  0.05161564213902644  1.0000
