data_image0
_chemical_formula_structural       Zn4H36C60N8O16F12
_chemical_formula_sum              "Zn4 H36 C60 N8 O16 F12"
_cell_length_a       8.913768067346899
_cell_length_b       10.510588958741272
_cell_length_c       16.38903729433137
_cell_angle_alpha    89.99928910850265
_cell_angle_beta     90.00035466870693
_cell_angle_gamma    106.39451917139951

_space_group_name_H-M_alt    "P 1"
_space_group_IT_number       1

loop_
  _space_group_symop_operation_xyz
  'x, y, z'

loop_
  _atom_site_type_symbol
  _atom_site_label
  _atom_site_symmetry_multiplicity
  _atom_site_fract_x
  _atom_site_fract_y
  _atom_site_fract_z
  _atom_site_occupancy
  Zn  Zn1       1.0  0.19131060110500192  0.41023035359155824  0.17094344231233546  1.0000
  Zn  Zn2       1.0  0.6913096033369683  0.41023221815910915  0.3290554552613543  1.0000
  Zn  Zn3       1.0  0.8086882126496134  0.5897688719365561  0.8290544083861987  1.0000
  Zn  Zn4       1.0  0.30869369374819655  0.5897669950543686  0.6709442259366085  1.0000
  H   H1        1.0  0.8831428230507682  0.7702441881724482  0.2266261163159768  1.0000
  H   H2        1.0  0.38313975194342476  0.7702533960529719  0.2733736041989517  1.0000
  H   H3        1.0  0.11685856591271457  0.22975602293018935  0.7733735648748236  1.0000
  H   H4        1.0  0.6168598491081952  0.22974483463853804  0.7266266871607241  1.0000
  H   H5        1.0  0.4703212211857917  0.12993389542992162  0.9932007652695699  1.0000
  H   H6        1.0  0.9703246342303372  0.12993658362391614  0.506802072040621  1.0000
  H   H7        1.0  0.529682956317792  0.8700712712875782  0.006800136234083699  1.0000
  H   H8        1.0  0.029677542035166465  0.8700626326256325  0.493201880303225  1.0000
  H   H9        1.0  0.3558731631227444  0.4571570152444123  0.8729286310365723  1.0000
  H   H10       1.0  0.855870844300824  0.45715854755139423  0.6270699969459271  1.0000
  H   H11       1.0  0.6441227418852833  0.542840232958106  0.1270686095010163  1.0000
  H   H12       1.0  0.14412415322044578  0.5428426737220561  0.37293151472208297  1.0000
  H   H13       1.0  0.2327454905583863  0.7705135556667955  0.9918395920359373  1.0000
  H   H14       1.0  0.732745335227946  0.770512258576801  0.5081585691230328  1.0000
  H   H15       1.0  0.7672520821550107  0.22948865123611736  0.008157648484683502  1.0000
  H   H16       1.0  0.26725729477173127  0.22948497116751546  0.49183989175378423  1.0000
  H   H17       1.0  0.4815668350269817  0.2703231680866196  0.8678585123446112  1.0000
  H   H18       1.0  0.9815685735919641  0.27032658331965814  0.6321420237019452  1.0000
  H   H19       1.0  0.5184330995606956  0.7296760543614624  0.1321399485197716  1.0000
  H   H20       1.0  0.018429786428477368  0.7296746287136956  0.36786131846361764  1.0000
  H   H21       1.0  0.20501545543024946  0.5819468193884845  0.9514364593766159  1.0000
  H   H22       1.0  0.7050142806382524  0.5819477760019537  0.5485618911729162  1.0000
  H   H23       1.0  0.7949774206247042  0.41805142977771953  0.04856078115193439  1.0000
  H   H24       1.0  0.2949848666624604  0.41805244124975627  0.45143779001412543  1.0000
  H   H25       1.0  0.9714717805275085  0.9709458310615772  0.139617302980831  1.0000
  H   H26       1.0  0.4714715484649544  0.9709504874512831  0.3603835540902977  1.0000
  H   H27       1.0  0.028530275523138488  0.0290563635047363  0.8603842086950877  1.0000
  H   H28       1.0  0.5285336567419066  0.029047727873049205  0.6396161271148273  1.0000
  H   H29       1.0  0.14348844703020788  0.9682806750107885  0.0194831889787679  1.0000
  H   H30       1.0  0.6434897342685061  0.968280800428289  0.4805159843457787  1.0000
  H   H31       1.0  0.8565086719373056  0.0317235184358324  0.9805152718611153  1.0000
  H   H32       1.0  0.35651659176807016  0.031717411826996104  0.5194830866972565  1.0000
  H   H33       1.0  0.3376990484619141  0.18312770636195103  0.11897509578804488  1.0000
  H   H34       1.0  0.8377023652778275  0.1831306092161498  0.3810254895883886  1.0000
  H   H35       1.0  0.6622978571726889  0.8168725170498162  0.8810233650672997  1.0000
  H   H36       1.0  0.16230059827463347  0.8168676122297781  0.6189772424328054  1.0000
  C   C1        1.0  0.008862104148526811  0.6570850584110702  0.16090800803664954  1.0000
  C   C2        1.0  0.5088598001650624  0.6570927019158149  0.3390895341417347  1.0000
  C   C3        1.0  0.991139618352676  0.34291614444263263  0.8390904528228231  1.0000
  C   C4        1.0  0.49114125525399294  0.3429065174577275  0.6609089267245307  1.0000
  C   C5        1.0  0.10789187134110992  0.6570542439214649  0.09309882137168297  1.0000
  C   C6        1.0  0.6078889386104578  0.6570576909587941  0.40689844147368587  1.0000
  C   C7        1.0  0.8921098511617699  0.3429469589267384  0.9069002496517626  1.0000
  C   C8        1.0  0.39211223701675374  0.3429385501199675  0.5931000194046447  1.0000
  C   C9        1.0  0.2838567625904033  0.41576714696846306  0.9981166268532674  1.0000
  C   C10       1.0  0.7838627238647431  0.415770909336672  0.5018808701587644  1.0000
  C   C11       1.0  0.716137234297605  0.5842310991177156  0.0018812238411243  1.0000
  C   C12       1.0  0.21614157384532007  0.5842312790915544  0.4981194211929889  1.0000
  C   C13       1.0  0.9609064961862259  0.7713972308354613  0.17530412997594877  1.0000
  C   C14       1.0  0.46090125153881434  0.7714015505252405  0.324694620622452  1.0000
  C   C15       1.0  0.03909668069245949  0.22860496066730457  0.8246961613739144  1.0000
  C   C16       1.0  0.5390991368031165  0.22859568535165659  0.6753056707424959  1.0000
  C   C17       1.0  0.418325621660223  0.2119110079228861  0.9926451027251487  1.0000
  C   C18       1.0  0.9183285839989423  0.2119156726769802  0.507356297742362  1.0000
  C   C19       1.0  0.5816775552167853  0.7880911835853651  0.007354578460755998  1.0000
  C   C20       1.0  0.08167201768426927  0.788085533207301  0.49264704442695967  1.0000
  C   C21       1.0  0.9434783715932153  0.5402781472124188  0.2163629548360788  1.0000
  C   C22       1.0  0.4434672976203799  0.5402832217320395  0.283637578878178  1.0000
  C   C23       1.0  0.056523350907994506  0.45972305564128396  0.7836355060234013  1.0000
  C   C24       1.0  0.5565338780135319  0.4597130193247451  0.7163633226560151  1.0000
  C   C25       1.0  0.1596403305955505  0.2120064372382373  0.2988064788743968  1.0000
  C   C26       1.0  0.6596314799336014  0.2120026830665296  0.20118596009123013  1.0000
  C   C27       1.0  0.8403618185898977  0.7880027056247343  0.7011986937577959  1.0000
  C   C28       1.0  0.34036106258696464  0.7879945743376169  0.7988137210965787  1.0000
  C   C29       1.0  0.35447491864677255  0.3932125490601308  0.9255225766664663  1.0000
  C   C30       1.0  0.8544742195090008  0.3932140307117038  0.5744747255994511  1.0000
  C   C31       1.0  0.6455228944829441  0.606783701253235  0.0744746638782843  1.0000
  C   C32       1.0  0.14552526133612528  0.6067871782690943  0.4255261759121253  1.0000
  C   C33       1.0  0.15486639657130033  0.7702453495284586  0.04308696954434769  1.0000
  C   C34       1.0  0.6548667670683129  0.7702468948797614  0.4569107686635404  1.0000
  C   C35       1.0  0.8451334178082133  0.2297568512143968  0.9569114913079702  1.0000
  C   C36       1.0  0.34513698376441937  0.22975033178452267  0.5430883023791253  1.0000
  C   C37       1.0  0.42376558031704536  0.28946773607140125  0.9232288890648802  1.0000
  C   C38       1.0  0.9237732864648506  0.2894741166241345  0.5767731320031473  1.0000
  C   C39       1.0  0.5762335669853441  0.710532481174809  0.07677140228612697  1.0000
  C   C40       1.0  0.07622922334172696  0.7105260913654945  0.4232308203373023  1.0000
  C   C41       1.0  0.21178406253956433  0.5237959609254048  0.0061694653144144  1.0000
  C   C42       1.0  0.7117827273724586  0.5237978392917811  0.4938267653418364  1.0000
  C   C43       1.0  0.7882121760112071  0.47620227901170153  0.9938283853837504  1.0000
  C   C44       1.0  0.288217540759632  0.47620237488538913  0.5061729158470811  1.0000
  C   C45       1.0  0.008309437878367057  0.8829883697837462  0.1257305444142887  1.0000
  C   C46       1.0  0.5083069932796319  0.882994387976815  0.37426946732170296  1.0000
  C   C47       1.0  0.991693739001988  0.11701382171352039  0.8742703570995471  1.0000
  C   C48       1.0  0.4916974246335713  0.11700482217312211  0.6257289935502115  1.0000
  C   C49       1.0  0.10520224398379695  0.8817672583914699  0.05897511209401779  1.0000
  C   C50       1.0  0.6052033146400431  0.8817680950680823  0.4410234023414857  1.0000
  C   C51       1.0  0.8947972368563127  0.11823395060580569  0.9410239589256617  1.0000
  C   C52       1.0  0.3948012234846701  0.11822813677608927  0.5589762788704249  1.0000
  C   C53       1.0  0.3455464134679147  0.24073626227685443  0.06311741910480607  1.0000
  C   C54       1.0  0.8455518245289254  0.2407401395386727  0.4368827335041772  1.0000
  C   C55       1.0  0.654449371336973  0.7592639642039528  0.9368816519126142  1.0000
  C   C56       1.0  0.15445326047312588  0.7592610540694479  0.5631181680168139  1.0000
  C   C57       1.0  0.1531412919281152  0.06621495035164321  0.3215936221045439  1.0000
  C   C58       1.0  0.6531307688320566  0.06620366947963417  0.17841032948914654  1.0000
  C   C59       1.0  0.8468598566324274  0.9337912172965874  0.6784109403738654  1.0000
  C   C60       1.0  0.3468662570140494  0.9337935756263673  0.8215893517061872  1.0000
  N   N1        1.0  0.1635479969336018  0.5473205436232078  0.0774053240048858  1.0000
  N   N2        1.0  0.6635503006742666  0.547325679208157  0.4225911683740904  1.0000
  N   N3        1.0  0.8364519376540683  0.45267867882487434  0.922593136859497  1.0000
  N   N4        1.0  0.3364523293254108  0.4526715505361522  0.5774072925027339  1.0000
  N   N5        1.0  0.28097645345452793  0.3408181306518969  0.0657278042751557  1.0000
  N   N6        1.0  0.7809826374839375  0.3408210601324839  0.4342701151276173  1.0000
  N   N7        1.0  0.7190172098924065  0.6591791236941944  0.9342700464226324  1.0000
  N   N8        1.0  0.2190227810591806  0.6591811252157099  0.5657307863899843  1.0000
  O   O1        1.0  0.15571460101656948  0.2288721876409667  0.22185679684965717  1.0000
  O   O2        1.0  0.6557113228068587  0.22886901864986703  0.2781501385857794  1.0000
  O   O3        1.0  0.8442847596304404  0.7711319996016357  0.7781477656336546  1.0000
  O   O4        1.0  0.3442882782447611  0.7711292120416431  0.7218501527738965  1.0000
  O   O5        1.0  0.1634944030164078  0.2899892471898228  0.3560310124142632  1.0000
  O   O6        1.0  0.6634700548525102  0.2899647267123838  0.14397973327429975  1.0000
  O   O7        1.0  0.8365144711556595  0.7100198772314246  0.6439735500652617  1.0000
  O   O8        1.0  0.33651185331162026  0.7100275965876577  0.8560199479154063  1.0000
  O   O9        1.0  0.9875024729946772  0.43577972562540157  0.21472820514915716  1.0000
  O   O10       1.0  0.48750104171126896  0.43578672961654497  0.2852690369115506  1.0000
  O   O11       1.0  0.012494552838042237  0.5642175195245541  0.7852665947344448  1.0000
  O   O12       1.0  0.5124986795501839  0.5642085227747061  0.7147318646241558  1.0000
  O   O13       1.0  0.8375591284297028  0.5545458249139656  0.2656041736302512  1.0000
  O   O14       1.0  0.33755317523927886  0.5545478008471676  0.2343983335240054  1.0000
  O   O15       1.0  0.1624422605337728  0.44545438618866484  0.7343955075605563  1.0000
  O   O16       1.0  0.662450909129511  0.44545041757367443  0.7655989070233671  1.0000
  F   F1        1.0  0.22637095574299332  0.007243434370956  0.26692999965685255  1.0000
  F   F2        1.0  0.7263258004342743  0.0072173675700924  0.23308320850112096  1.0000
  F   F3        1.0  0.7736569454959222  0.9927755643526267  0.7330806644547605  1.0000
  F   F4        1.0  0.2736689837490616  0.992779883684989  0.7669164726904467  1.0000
  F   F5        1.0  0.0004043728722322609  0.9896332851827977  0.32736794154568116  1.0000
  F   F6        1.0  0.5003954857391122  0.9896270672538849  0.1726086181432223  1.0000
  F   F7        1.0  0.9995968958429343  0.0103699043464758  0.6726170956978662  1.0000
  F   F8        1.0  0.4995997521917913  0.0103681974519887  0.8273904528930558  1.0000
  F   F9        1.0  0.21989810600870635  0.058018451856319986  0.3957915349752028  1.0000
  F   F10       1.0  0.7199306209541446  0.0580242705011003  0.1042236877142884  1.0000
  F   F11       1.0  0.7800708990896223  0.941978869992212  0.6042215697803142  1.0000
  F   F12       1.0  0.2800681928054942  0.9419749550105295  0.8957759934761425  1.0000
