data_image0
_chemical_formula_structural       Zn6H56C72N22O28
_chemical_formula_sum              "Zn6 H56 C72 N22 O28"
_cell_length_a       12.921660520287755
_cell_length_b       12.921635391248063
_cell_length_c       14.848978236451519
_cell_angle_alpha    91.34895932804764
_cell_angle_beta     91.34893969644484
_cell_angle_gamma    90.54569716960735

_space_group_name_H-M_alt    "P 1"
_space_group_IT_number       1

loop_
  _space_group_symop_operation_xyz
  'x, y, z'

loop_
  _atom_site_type_symbol
  _atom_site_label
  _atom_site_symmetry_multiplicity
  _atom_site_fract_x
  _atom_site_fract_y
  _atom_site_fract_z
  _atom_site_occupancy
  Zn  Zn1       1.0  0.6177535554579378  0.38224592183222933  0.7499996692700677  1.0000
  Zn  Zn2       1.0  0.38224444258058554  0.6177563855822326  0.2499990800791423  1.0000
  Zn  Zn3       1.0  0.0655023963193173  0.5893633985230763  0.7762408052713282  1.0000
  Zn  Zn4       1.0  0.4106350677074744  0.9344975481831095  0.7237586189027424  1.0000
  Zn  Zn5       1.0  0.9344925413127568  0.41066674344304477  0.2237625263736334  1.0000
  Zn  Zn6       1.0  0.5893342991308899  0.0655091649448138  0.2762369070467797  1.0000
  H   H1        1.0  0.0157103071952349  0.357114660384269  0.8816357604654569  1.0000
  H   H2        1.0  0.642883483119924  0.9842903695805131  0.6183623023322865  1.0000
  H   H3        1.0  0.9842869180359132  0.6428845501367063  0.1183595370423447  1.0000
  H   H4        1.0  0.3571137358001621  0.0157126991785361  0.38163981387201307  1.0000
  H   H5        1.0  0.7218080118347389  0.4992009821161786  0.9371062380137614  1.0000
  H   H6        1.0  0.5007958576147118  0.278193758325898  0.5628937680967495  1.0000
  H   H7        1.0  0.2781892134219817  0.5007974555206401  0.06288836914938399  1.0000
  H   H8        1.0  0.4992029083357608  0.7218100952676209  0.43710974598312896  1.0000
  H   H9        1.0  0.04110019276804169  0.3375256361456706  0.04856239929149098  1.0000
  H   H10       1.0  0.6624727847613698  0.9589024841525101  0.45143642992905336  1.0000
  H   H11       1.0  0.9588970264077403  0.6624697037718901  0.9514328134662478  1.0000
  H   H12       1.0  0.3375275294817044  0.04110138262786479  0.5485671182871101  1.0000
  H   H13       1.0  0.7627030939766613  0.4796858208597  0.1006216756429907  1.0000
  H   H14       1.0  0.52031067086466  0.23729917187263538  0.39937837489757305  1.0000
  H   H15       1.0  0.23729412878120124  0.520313387188203  0.8993749686541006  1.0000
  H   H16       1.0  0.479686550503139  0.762704672243629  0.6006230848621  1.0000
  H   H17       1.0  0.4547816839328219  0.45917261955881367  0.6186804135788505  1.0000
  H   H18       1.0  0.5408290537479061  0.5452195681290987  0.8813203894756896  1.0000
  H   H19       1.0  0.5452147681585373  0.5408335415626054  0.38132040656807226  1.0000
  H   H20       1.0  0.45916739347358526  0.4547842693937411  0.11868105321584467  1.0000
  H   H21       1.0  0.3133354539051183  0.5868580213557734  0.6150035992794328  1.0000
  H   H22       1.0  0.41314449872326964  0.6866659676173298  0.8849972605551811  1.0000
  H   H23       1.0  0.6866640910870885  0.41314738954560676  0.38499861897933124  1.0000
  H   H24       1.0  0.5868550463456472  0.31333712463160157  0.11500288666960758  1.0000
  H   H25       1.0  0.16143063967538043  0.2793491795203167  0.5591601894933403  1.0000
  H   H26       1.0  0.7206502904946676  0.8385700925932369  0.9408398951616803  1.0000
  H   H27       1.0  0.8385673448367825  0.720650795639834  0.44084389616298836  1.0000
  H   H28       1.0  0.27935003005947573  0.16142991594905712  0.059156834357985084  1.0000
  H   H29       1.0  0.1976910614881078  0.17078666156380953  0.6262969031099387  1.0000
  H   H30       1.0  0.8292123842991826  0.8023092449937506  0.873703817813677  1.0000
  H   H31       1.0  0.8023045920309357  0.82921019362373  0.37370908372584916  1.0000
  H   H32       1.0  0.1707894894429955  0.19769232744982188  0.12629163295299858  1.0000
  H   H33       1.0  0.2951094939547829  0.250439907693  0.578432288415719  1.0000
  H   H34       1.0  0.749558898943839  0.7048897448575244  0.9215684016555343  1.0000
  H   H35       1.0  0.704886162088684  0.7495554041993129  0.42157097094146667  1.0000
  H   H36       1.0  0.2504429735616966  0.29511182634951877  0.07842772250578628  1.0000
  H   H37       1.0  0.2650182462430024  0.3289560507040008  0.8249906059539639  1.0000
  H   H38       1.0  0.6710438892967544  0.7349821198277054  0.6750101474861124  1.0000
  H   H39       1.0  0.7349812877984121  0.6710439388795347  0.17501284044399773  1.0000
  H   H40       1.0  0.32895565708551533  0.26501865500531346  0.32498725531006295  1.0000
  H   H41       1.0  0.36815814460299373  0.3077946046987988  0.7490742015633528  1.0000
  H   H42       1.0  0.692204527335221  0.6318420287825216  0.7509271874860488  1.0000
  H   H43       1.0  0.6318413882017779  0.6922053836482008  0.2509299182292537  1.0000
  H   H44       1.0  0.30779501783597846  0.3681579719298113  0.24907019836011554  1.0000
  H   H45       1.0  0.28188763857671256  0.20328386287499706  0.771849454285416  1.0000
  H   H46       1.0  0.7967153344532177  0.7181129403318849  0.7281512692655667  1.0000
  H   H47       1.0  0.7181126684766425  0.7967130405288284  0.22815192119670508  1.0000
  H   H48       1.0  0.2032873023821864  0.2818863089238731  0.27184818808707684  1.0000
  H   H49       1.0  0.11222058476509741  0.41510857873758045  0.634973402989864  1.0000
  H   H50       1.0  0.5848904616318648  0.88777964064608  0.8650273583954515  1.0000
  H   H51       1.0  0.8877835892331233  0.584890672576229  0.3650321490508616  1.0000
  H   H52       1.0  0.4151090799572473  0.11221649193591081  0.13496859591136  1.0000
  H   H53       1.0  0.8295491175044275  0.5440140257948869  0.5163538160057611  1.0000
  H   H54       1.0  0.45598645280377065  0.17045126602532426  0.9836469047089124  1.0000
  H   H55       1.0  0.17045274644688388  0.4559844452198263  0.4836442605394424  1.0000
  H   H56       1.0  0.5440177285887344  0.8295487655918378  0.016355297308599897  1.0000
  C   C1        1.0  0.8542130145469287  0.4545367918064612  0.7996406979728902  1.0000
  C   C2        1.0  0.5454614242495878  0.14578499848265375  0.7003572130026186  1.0000
  C   C3        1.0  0.14578032905305352  0.545455418661234  0.20035436164410209  1.0000
  C   C4        1.0  0.4545450893215488  0.8542197001119476  0.29964379513010186  1.0000
  C   C5        1.0  0.8675129251405237  0.43288648207884944  0.89569396384163  1.0000
  C   C6        1.0  0.567110948028926  0.13248927549792458  0.6043046904599833  1.0000
  C   C7        1.0  0.1324866225039543  0.5671135211065489  0.10430207521525148  1.0000
  C   C8        1.0  0.43288549550820926  0.8675137854311641  0.39569808207082247  1.0000
  C   C9        1.0  0.957527266114745  0.38474560244542727  0.9280843466439348  1.0000
  C   C10       1.0  0.6152518560502855  0.042473926928288094  0.5719149419565  1.0000
  C   C11       1.0  0.0424699554320469  0.615252831481797  0.0719122807031383  1.0000
  C   C12       1.0  0.3847461358050239  0.9575283743035071  0.4280871743659347  1.0000
  C   C13       1.0  0.794287953170013  0.46438075847434845  0.9585121443220784  1.0000
  C   C14       1.0  0.5356167042280475  0.20571265644834819  0.5414871628072645  1.0000
  C   C15       1.0  0.2057108154327381  0.5356176874031886  0.04148519055591749  1.0000
  C   C16       1.0  0.46438283475993103  0.7942873380813181  0.45851359001211733  1.0000
  C   C17       1.0  0.9723858580073068  0.3743378408339026  0.02045090404544679  1.0000
  C   C18       1.0  0.6256597269116709  0.027616041728485592  0.4795477746589469  1.0000
  C   C19       1.0  0.027611366038343  0.6256598226822374  0.9795436861676875  1.0000
  C   C20       1.0  0.3743390378532964  0.9723862648601979  0.5204550321262714  1.0000
  C   C21       1.0  0.8160156439377529  0.4525422020394884  0.04967291739266949  1.0000
  C   C22       1.0  0.5474536167409667  0.18398810604577412  0.45032714054919853  1.0000
  C   C23       1.0  0.18398390370673207  0.547457801145917  0.9503231216642047  1.0000
  C   C24       1.0  0.4525420526498678  0.8160149482898901  0.5496756149134682  1.0000
  C   C25       1.0  0.8894802107186308  0.5107843939662543  0.6668721464456339  1.0000
  C   C26       1.0  0.48921390303584633  0.1105197836265646  0.8331278326548315  1.0000
  C   C27       1.0  0.11052087555544429  0.4892086565563857  0.3331231008027657  1.0000
  C   C28       1.0  0.5107902758578007  0.8894810184016749  0.1668764064966268  1.0000
  C   C29       1.0  0.7895554640269254  0.46932792981435506  0.6639005366091907  1.0000
  C   C30       1.0  0.530669825939725  0.21044379960682139  0.8361007690905564  1.0000
  C   C31       1.0  0.2104432911261753  0.5306658651564219  0.33610006354195576  1.0000
  C   C32       1.0  0.46933281573996766  0.7895585461316655  0.16389875606213877  1.0000
  C   C33       1.0  0.7114288984647033  0.4580592165441431  0.5898326590528598  1.0000
  C   C34       1.0  0.5419413235476682  0.28856967127241256  0.9101666805871672  1.0000
  C   C35       1.0  0.28856986763918974  0.5419399997444785  0.41016671295908935  1.0000
  C   C36       1.0  0.45806054401128904  0.7114318949884931  0.08983213715273308  1.0000
  C   C37       1.0  0.9502238268690918  0.5652287168276259  0.5995893956325132  1.0000
  C   C38       1.0  0.43477041293201785  0.049774448336862086  0.9004098898323959  1.0000
  C   C39       1.0  0.0497865343976045  0.43476207932528144  0.40041206613533115  1.0000
  C   C40       1.0  0.5652376333156255  0.9502163354549675  0.09958748036316219  1.0000
  C   C41       1.0  0.008828143291658798  0.8073637036039611  0.7663586249963644  1.0000
  C   C42       1.0  0.19263433673368976  0.9911747741446887  0.7336395432383326  1.0000
  C   C43       1.0  0.9911558644040923  0.19260287557744252  0.23363903742575332  1.0000
  C   C44       1.0  0.8073992998893901  0.008845641343071997  0.26636038109561605  1.0000
  C   C45       1.0  0.12104447612563972  0.8032799132206844  0.7547350339994878  1.0000
  C   C46       1.0  0.19671719471198656  0.878954334482941  0.7452643560308941  1.0000
  C   C47       1.0  0.878925707297718  0.19675235495624577  0.2452597215792949  1.0000
  C   C48       1.0  0.8032506441151669  0.1210748001195157  0.25473970806843477  1.0000
  C   C49       1.0  0.2710982109956745  0.7289018147981706  0.7500010726784652  1.0000
  C   C50       1.0  0.7289098350985485  0.2710936062985567  0.25000043958502965  1.0000
  C   C51       1.0  0.44066192358906864  0.5088858054414728  0.6772397715329105  1.0000
  C   C52       1.0  0.49111665698726625  0.5593392883334329  0.8227610560933625  1.0000
  C   C53       1.0  0.559339168459097  0.49111961741022  0.3227631542567764  1.0000
  C   C54       1.0  0.5088813386291164  0.44066147083966456  0.17723765935582483  1.0000
  C   C55       1.0  0.36277908185687824  0.582247986282887  0.6752020936990489  1.0000
  C   C56       1.0  0.417753182549063  0.6372219662387477  0.8247993949383456  1.0000
  C   C57       1.0  0.6372135067693989  0.4177627865954958  0.32479874280724624  1.0000
  C   C58       1.0  0.5822386294832  0.3627880246889887  0.1752020809444446  1.0000
  C   C59       1.0  0.35129709841795886  0.6487050469194174  0.7500004352667416  1.0000
  C   C60       1.0  0.648685442024778  0.3513164766974484  0.2500010900485492  1.0000
  C   C61       1.0  0.21783970898872704  0.25013240747539095  0.6082375697092386  1.0000
  C   C62       1.0  0.7498668226089578  0.7821618052657582  0.8917631892480884  1.0000
  C   C63       1.0  0.7821582682058618  0.7498644687289584  0.391767794936328  1.0000
  C   C64       1.0  0.2501358216207307  0.21783822429334515  0.10823291808134879  1.0000
  C   C65       1.0  0.2876183319526077  0.2872430261411978  0.7636667351181784  1.0000
  C   C66       1.0  0.7127559498611477  0.7123825086312153  0.7363333259128452  1.0000
  C   C67       1.0  0.7123819739408078  0.71275155737365  0.2363332427246192  1.0000
  C   C68       1.0  0.2872474610949851  0.2876175201021168  0.26366683885260034  1.0000
  C   C69       1.0  0.16165986086969747  0.4008089310701379  0.6945545554649754  1.0000
  C   C70       1.0  0.5991890482180722  0.8383407971455339  0.8054448370977453  1.0000
  C   C71       1.0  0.8383427762214027  0.5991825893441316  0.3054379984411071  1.0000
  C   C72       1.0  0.40081666920288933  0.161656143756545  0.19456137162386963  1.0000
  N   N1        1.0  0.9044015763507717  0.4103159812078871  0.0806666628032957  1.0000
  N   N2        1.0  0.5896814927784392  0.09560105427041068  0.41933204318126366  1.0000
  N   N3        1.0  0.0955971935141946  0.5896816930220368  0.9193293083353992  1.0000
  N   N4        1.0  0.410317274459814  0.904401254791338  0.5806694168146648  1.0000
  N   N5        1.0  0.9296953754503364  0.49992537836769907  0.7522169261120267  1.0000
  N   N6        1.0  0.5000729706606036  0.0703060455060154  0.7477824053058482  1.0000
  N   N7        1.0  0.0703103471217545  0.5000653844073212  0.2477810662737525  1.0000
  N   N8        1.0  0.49993508030348016  0.9296916991892913  0.2522184844130421  1.0000
  N   N9        1.0  0.7674277728329174  0.4350646291775816  0.7481640749764294  1.0000
  N   N10       1.0  0.5649340177525701  0.23257255759025952  0.7518365985202633  1.0000
  N   N11       1.0  0.23257254895786159  0.5649353806012413  0.2518319811485838  1.0000
  N   N12       1.0  0.43506397410274644  0.7674297436415357  0.24816551780217108  1.0000
  N   N13       1.0  0.1687501424729234  0.7092752751616019  0.7565203630375023  1.0000
  N   N14       1.0  0.29072456428411186  0.831248913883712  0.7434804207783329  1.0000
  N   N15       1.0  0.8312315975378938  0.2907183908287365  0.24347110748419  1.0000
  N   N16       1.0  0.7092827279707663  0.16876816239683018  0.25652895635845135  1.0000
  N   N17       1.0  0.5035659896791812  0.496434683570797  0.7500010569778439  1.0000
  N   N18       1.0  0.4964281399476961  0.5035722306544911  0.25000040230931114  1.0000
  N   N19       1.0  0.21923726681471584  0.3162803964944345  0.6892491912614532  1.0000
  N   N20       1.0  0.6837188679184365  0.7807624165540188  0.8107508632871827  1.0000
  N   N21       1.0  0.7807614906326776  0.683718811138455  0.31075489451300337  1.0000
  N   N22       1.0  0.31627990681638357  0.21923758127449122  0.189244485306908  1.0000
  O   O1        1.0  0.73037750810834  0.4988044913910414  0.5143894264590755  1.0000
  O   O2        1.0  0.5011954060390096  0.26962348012033743  0.9856113017002597  1.0000
  O   O3        1.0  0.2696220358006443  0.501196280968912  0.4856093231263968  1.0000
  O   O4        1.0  0.4988064540745257  0.7303788516055221  0.014392246752166203  1.0000
  O   O5        1.0  0.16297724724984158  0.46125626729156727  0.7627904116640634  1.0000
  O   O6        1.0  0.5387435339627231  0.8370226793516055  0.7372110326796671  1.0000
  O   O7        1.0  0.8370292626113666  0.5387484275934254  0.23721261665259158  1.0000
  O   O8        1.0  0.4612536778187745  0.16297188026261009  0.26278753010128497  1.0000
  O   O9        1.0  0.6289672710900759  0.4084190215172325  0.6070168479139896  1.0000
  O   O10       1.0  0.5915806160825595  0.3710335979606682  0.8929831999268032  1.0000
  O   O11       1.0  0.37103459773110364  0.5915817730960596  0.3929806060866098  1.0000
  O   O12       1.0  0.4084189204577057  0.6289656212117831  0.10701820933721957  1.0000
  O   O13       1.0  0.9058591492438238  0.5795899487064133  0.5202531173699468  1.0000
  O   O14       1.0  0.4204104324495077  0.09414023741648239  0.9797482476386603  1.0000
  O   O15       1.0  0.094141938266894  0.42040310305276296  0.47974145648381483  1.0000
  O   O16       1.0  0.5795976097813663  0.905859817275541  0.020259426876705802  1.0000
  O   O17       1.0  0.039118592309897296  0.5970131927848141  0.6196342523989883  1.0000
  O   O18       1.0  0.40298535582513034  0.9608803925220996  0.8803665038643087  1.0000
  O   O19       1.0  0.9608809396929202  0.4029736552951134  0.38035880492910923  1.0000
  O   O20       1.0  0.597026559508258  0.03912278914671669  0.1196426705811007  1.0000
  O   O21       1.0  0.9627016107541664  0.7208196201437217  0.7831781658132257  1.0000
  O   O22       1.0  0.27917285577818524  0.03729591842054699  0.7168216497076257  1.0000
  O   O23       1.0  0.037331827978228205  0.2790892984716464  0.2168321122171761  1.0000
  O   O24       1.0  0.7209125787884503  0.9626684465649545  0.28316807992114684  1.0000
  O   O25       1.0  0.9595736690758799  0.8907818446679768  0.7615057836286283  1.0000
  O   O26       1.0  0.10921544589505322  0.04042373124336508  0.7384941565598879  1.0000
  O   O27       1.0  0.040380963575792406  0.10920771376636648  0.23848837173131437  1.0000
  O   O28       1.0  0.8907942210538521  0.9596212418177571  0.26151116821925763  1.0000
