data_image0
_chemical_formula_structural       Li4B4H60C20N4O4
_chemical_formula_sum              "Li4 B4 H60 C20 N4 O4"
_cell_length_a       7.497410290000093
_cell_length_b       10.953489286149932
_cell_length_c       11.048252529394718
_cell_angle_alpha    117.58572910455148
_cell_angle_beta     89.99999366426326
_cell_angle_gamma    89.9999879641973

_space_group_name_H-M_alt    "P 1"
_space_group_IT_number       1

loop_
  _space_group_symop_operation_xyz
  'x, y, z'

loop_
  _atom_site_type_symbol
  _atom_site_label
  _atom_site_symmetry_multiplicity
  _atom_site_fract_x
  _atom_site_fract_y
  _atom_site_fract_z
  _atom_site_occupancy
  Li  Li1       1.0  0.8957224800579126  0.6300057869577456  0.5520396486189084  1.0000
  Li  Li2       1.0  0.39572183857764986  0.3699939759033908  0.947960343755696  1.0000
  Li  Li3       1.0  0.1042785800414734  0.3699944841192177  0.44795980913984573  1.0000
  Li  Li4       1.0  0.6042778877277754  0.6300063005355482  0.05204002157305601  1.0000
  B   B1        1.0  0.7882814252208307  0.3967166950670559  0.4477797122362617  1.0000
  B   B2        1.0  0.2882807796336023  0.6032830173976361  0.05221961754465085  1.0000
  B   B3        1.0  0.21171963487854836  0.6032835760099073  0.5522197455224925  1.0000
  B   B4        1.0  0.7117189466718158  0.3967172590413098  0.9477807477841012  1.0000
  H   H1        1.0  0.9039920315368234  0.6112403479567446  0.2355206776343123  1.0000
  H   H2        1.0  0.40399008137763553  0.3887593379982091  0.2644786315509505  1.0000
  H   H3        1.0  0.09601036235656579  0.3887588984478113  0.7644792195135821  1.0000
  H   H4        1.0  0.5960083111339783  0.6112409330790666  0.7355208262080452  1.0000
  H   H5        1.0  0.6131009233534214  0.5692204060379918  0.29175650178492407  1.0000
  H   H6        1.0  0.11310163751758749  0.43078038195719154  0.2082442349274131  1.0000
  H   H7        1.0  0.38689746915792256  0.43078090043518086  0.7082443317245648  1.0000
  H   H8        1.0  0.8868994225817203  0.5692198944815912  0.7917561304012252  1.0000
  H   H9        1.0  0.40113036708657995  0.755999954272333  0.3205495276021607  1.0000
  H   H10       1.0  0.9011311038535793  0.24400179776792177  0.17945162602333642  1.0000
  H   H11       1.0  0.5988693592186466  0.24400135220069066  0.6794513059072145  1.0000
  H   H12       1.0  0.09886862245156888  0.7559995140669212  0.8205501150559157  1.0000
  H   H13       1.0  0.8465828148120591  0.9250297295762019  0.38924043937182495  1.0000
  H   H14       1.0  0.34658365287291554  0.07496790410118588  0.11075703610055847  1.0000
  H   H15       1.0  0.15341691149383507  0.07496848143275509  0.6107580820258106  1.0000
  H   H16       1.0  0.6534174072269322  0.9250303015457886  0.8892405777270795  1.0000
  H   H17       1.0  0.5373653783478359  0.8800990737508838  0.4542654029659231  1.0000
  H   H18       1.0  0.03736621373889899  0.11990172623386285  0.04573443965697518  1.0000
  H   H19       1.0  0.46263434795758934  0.11990120268805528  0.5457349623628288  1.0000
  H   H20       1.0  0.9626348463602881  0.8800995748771852  0.9542654862823949  1.0000
  H   H21       1.0  0.9130951440692597  0.8259614737825695  0.21509020584431912  1.0000
  H   H22       1.0  0.41309592296660474  0.17403821008650766  0.2849091017204017  1.0000
  H   H23       1.0  0.08690324844254599  0.17403776726062145  0.7849087837340534  1.0000
  H   H24       1.0  0.5869051371327032  0.8259620663522821  0.7150912636082366  1.0000
  H   H25       1.0  0.0404724997649879  0.7346437863161055  0.3679627520237928  1.0000
  H   H26       1.0  0.5404719042394319  0.26535598292286255  0.13203662186557344  1.0000
  H   H27       1.0  0.959528560334398  0.26535648476085777  0.6320367057349612  1.0000
  H   H28       1.0  0.4595291558600678  0.7346432634818424  0.8679632752824417  1.0000
  H   H29       1.0  0.5398355970950134  0.6592527157188924  0.4650210013019275  1.0000
  H   H30       1.0  0.03983503374879399  0.34074808370007753  0.03497884088141487  1.0000
  H   H31       1.0  0.46016546300409533  0.340748590753975  0.5349798322073268  1.0000
  H   H32       1.0  0.9601646925567022  0.6592521873770423  0.9650206168774602  1.0000
  H   H33       1.0  0.6530893558079284  0.923102429688839  0.15516873927931127  1.0000
  H   H34       1.0  0.15309015401061996  0.07689731374887997  0.34483061456482733  1.0000
  H   H35       1.0  0.34690903670380635  0.0768968167161717  0.8448311578689455  1.0000
  H   H36       1.0  0.8469109060886878  0.9231029626899094  0.6551697507638108  1.0000
  H   H37       1.0  0.43629849929190795  0.8948324660165099  0.20358041845712183  1.0000
  H   H38       1.0  0.9362992583932053  0.10516824257063453  0.29641935315817136  1.0000
  H   H39       1.0  0.5637012270135102  0.10516781042242936  0.7964199468716373  1.0000
  H   H40       1.0  0.06370180170598158  0.8948330585404132  0.703580572781206  1.0000
  H   H41       1.0  0.7190708375119569  0.4954373895834648  0.5441468770757609  1.0000
  H   H42       1.0  0.21907015403562718  0.5045624191112947  0.9558540543116221  1.0000
  H   H43       1.0  0.280928888793582  0.5045618621832231  0.45585392764225213  1.0000
  H   H44       1.0  0.78092957226972  0.49543786268947076  0.04414721858701395  1.0000
  H   H45       1.0  0.8948395511127811  0.4381325908017287  0.38979940260531987  1.0000
  H   H46       1.0  0.39483890831433394  0.5618671026117777  0.11020081577879627  1.0000
  H   H47       1.0  0.10516017519264408  0.5618676856372103  0.6102009627234395  1.0000
  H   H48       1.0  0.6051594841971237  0.4381331791891441  0.8898004571199607  1.0000
  H   H49       1.0  0.8646638066689076  0.3260912795782217  0.4913013305963787  1.0000
  H   H50       1.0  0.36466314703868347  0.6739073907146246  0.00869842497820622  1.0000
  H   H51       1.0  0.13533725343059183  0.6739079668264906  0.5086985665516366  1.0000
  H   H52       1.0  0.6353365792669335  0.32609185569023663  0.9913014721699298  1.0000
  H   H53       1.0  0.6746848848170758  0.3284558021833702  0.3655398263677582  1.0000
  H   H54       1.0  0.1746855385933799  0.6715449663407964  0.1344599918131378  1.0000
  H   H55       1.0  0.32531484148815076  0.6715455042896535  0.6344610071416098  1.0000
  H   H56       1.0  0.8253141877120382  0.32845531009814266  0.8655403735156142  1.0000
  H   H57       1.0  0.5867265639214023  0.012528689756237596  0.33075406308118  1.0000
  H   H58       1.0  0.08672578258191518  0.9874721042816216  0.16924667832576284  1.0000
  H   H59       1.0  0.41327316238393746  0.9874715920445281  0.669247209817456  1.0000
  H   H60       1.0  0.9132739437235103  0.012528172157324498  0.8307536870029893  1.0000
  C   C1        1.0  0.6154243693615056  0.6692407873820866  0.3850278038643323  1.0000
  C   C2        1.0  0.1154251294057076  0.33076000008077944  0.11497293243444057  1.0000
  C   C3        1.0  0.3845753569437207  0.33076051909093696  0.6149730296450429  1.0000
  C   C4        1.0  0.8845759306936003  0.6692402763580103  0.8850274328941905  1.0000
  C   C5        1.0  0.5389379442640275  0.7820638176583045  0.357591586750864  1.0000
  C   C6        1.0  0.03893873380404499  0.21793698732798808  0.14240916316202148  1.0000
  C   C7        1.0  0.4610617820413906  0.21793645878063458  0.642408778577888  1.0000
  C   C8        1.0  0.9610623262950639  0.7820643191448791  0.8575916703472329  1.0000
  C   C9        1.0  0.8327927429115859  0.8234221251624944  0.29717020042100717  1.0000
  C   C10       1.0  0.33279220102014057  0.17657654170851333  0.20282774568666173  1.0000
  C   C11       1.0  0.1672069833941805  0.17657711051872124  0.7028278815873676  1.0000
  C   C12       1.0  0.6672075252855549  0.8234226993345284  0.7971712438915899  1.0000
  C   C13       1.0  0.9039599975439143  0.7115320972690922  0.3282989290592083  1.0000
  C   C14       1.0  0.4039607608518239  0.2884675886928888  0.1717003801315115  1.0000
  C   C15       1.0  0.09603972876178088  0.28846714377394267  0.6717000605190435  1.0000
  C   C16       1.0  0.596040299247754  0.7115316523499967  0.8282986094466195  1.0000
  C   C17       1.0  0.5765135759069081  0.9140748335952791  0.23533239195754152  1.0000
  C   C18       1.0  0.0765143848316825  0.08592595742042157  0.2646674436972276  1.0000
  C   C19       1.0  0.42348615039851717  0.08592544284366707  0.7646679733712106  1.0000
  C   C20       1.0  0.9234853414736219  0.9140753436907757  0.7353324822422634  1.0000
  N   N1        1.0  0.6450492568516848  0.7984219292149247  0.25359502179830423  1.0000
  N   N2        1.0  0.14505136768011076  0.20157782142649688  0.2464052410466806  1.0000
  N   N3        1.0  0.3549491356599716  0.20157732255191255  0.7464057829198296  1.0000
  N   N4        1.0  0.8549496924193888  0.7984214249782153  0.7535946561013347  1.0000
  O   O1        1.0  0.7973205016511284  0.701492772454827  0.4319579666062622  1.0000
  O   O2        1.0  0.29731994552396657  0.2985069379389528  0.06804136156574705  1.0000
  O   O3        1.0  0.20268055844817917  0.29850750398395576  0.5680423987223762  1.0000
  O   O4        1.0  0.7026797807814587  0.7014933384999864  0.9319590037630119  1.0000
