data_image0
_chemical_formula_structural       Cd4H52C72N12O16
_chemical_formula_sum              "Cd4 H52 C72 N12 O16"
_cell_length_a       11.796566075007538
_cell_length_b       13.752829580004965
_cell_length_c       21.293047177006695
_cell_angle_alpha    90.0000225004841
_cell_angle_beta     90.00008842032953
_cell_angle_gamma    90.0000945320074

_space_group_name_H-M_alt    "P 1"
_space_group_IT_number       1

loop_
  _space_group_symop_operation_xyz
  'x, y, z'

loop_
  _atom_site_type_symbol
  _atom_site_label
  _atom_site_symmetry_multiplicity
  _atom_site_fract_x
  _atom_site_fract_y
  _atom_site_fract_z
  _atom_site_occupancy
  Cd  Cd1       1.0  3.3451399870000014e-07  0.6030294855886851  0.4331795073481359  1.0000
  Cd  Cd2       1.0  0.9999998071379962  0.39697081863978684  0.5668207151659104  1.0000
  Cd  Cd3       1.0  0.9999999496600153  0.8969698506590332  0.9331793360412207  1.0000
  Cd  Cd4       1.0  1.9199062960000002e-07  0.10302972644620212  0.066820416835867  1.0000
  H   H1        1.0  0.7948314361609903  0.4687405766742856  0.38029449196981346  1.0000
  H   H2        1.0  0.5850042615428775  0.46351750176191336  0.3759986329855495  1.0000
  H   H3        1.0  0.5834126826746484  0.7241119071165156  0.49051163311369095  1.0000
  H   H4        1.0  0.7934144652062117  0.7177504553189211  0.48902860898295597  1.0000
  H   H5        1.0  0.7948318291302454  0.5312601447782085  0.6197055134376441  1.0000
  H   H6        1.0  0.5850046765038712  0.5364821956356353  0.624002131973576  1.0000
  H   H7        1.0  0.5834114302484678  0.2758870609044735  0.5094891304813984  1.0000
  H   H8        1.0  0.7934123814374131  0.28224953700380684  0.5109723344834194  1.0000
  H   H9        1.0  0.2051685868669324  0.031257970894238006  0.8802949527382041  1.0000
  H   H10       1.0  0.4149957495414824  0.0364817704102407  0.8759992748476719  1.0000
  H   H11       1.0  0.4165869132045615  0.7758867356327529  0.9905113999379651  1.0000
  H   H12       1.0  0.20658597425355646  0.7822481865610981  0.9890281976067357  1.0000
  H   H13       1.0  0.2051684311458217  0.968741916110197  0.119705486882431  1.0000
  H   H14       1.0  0.4149955957157019  0.9635184135261883  0.1240008748580763  1.0000
  H   H15       1.0  0.41658756176627787  0.22411345055581225  0.0094882814941286  1.0000
  H   H16       1.0  0.20658661470178427  0.2177517024494122  0.0109713039545341  1.0000
  H   H17       1.0  0.20516870549044344  0.5312611817999553  0.6197043216338187  1.0000
  H   H18       1.0  0.41499503240405017  0.5364813482199011  0.6240020591648161  1.0000
  H   H19       1.0  0.4165874589766005  0.27588694286590254  0.5094890590370369  1.0000
  H   H20       1.0  0.2065865241501044  0.2822498489101477  0.5109716135314528  1.0000
  H   H21       1.0  0.20516831252170678  0.468739432327297  0.3802951787131761  1.0000
  H   H22       1.0  0.4149946174444565  0.46351810859236764  0.3759985601769813  1.0000
  H   H23       1.0  0.4165878636991565  0.7241125162004424  0.49051156166906645  1.0000
  H   H24       1.0  0.20658691251091452  0.7177507672241958  0.489028357667138  1.0000
  H   H25       1.0  0.794831554784359  0.9687416062111326  0.1197052697757499  1.0000
  H   H26       1.0  0.5850043921098091  0.9635178066951368  0.124000947666282  1.0000
  H   H27       1.0  0.5834132284447334  0.22411211434925352  0.0094878833021568  1.0000
  H   H28       1.0  0.793414167396385  0.21775066342104313  0.0109715552702596  1.0000
  H   H29       1.0  0.7948317105055194  0.031258388118132495  0.880294265994749  1.0000
  H   H30       1.0  0.5850045459356393  0.0364818907021416  0.8759988780191037  1.0000
  H   H31       1.0  0.5834125798870673  0.7758875807958887  0.9905124106568834  1.0000
  H   H32       1.0  0.7934135269502532  0.7822493289020117  0.9890284489227383  1.0000
  H   H33       1.0  0.9999992678090094  0.5687355017972137  0.6698041191860611  1.0000
  H   H34       1.0  8.51578136e-07  0.6421880738334095  0.7780141403838101  1.0000
  H   H35       1.0  2.8259754710000007e-07  0.8564995331034523  0.5909046934046174  1.0000
  H   H36       1.0  0.9999996656709271  0.9942195764000915  0.6616249793525242  1.0000
  H   H37       1.0  0.9999997634074231  0.9762872909018797  0.7443331955708388  1.0000
  H   H38       1.0  8.738436890000001e-07  0.4312655295543451  0.3301961033280776  1.0000
  H   H39       1.0  1.3777756890000006e-07  0.35781295751847614  0.2219851428569584  1.0000
  H   H40       1.0  7.067581578000001e-07  0.14350149824843333  0.40909458983615105  1.0000
  H   H41       1.0  1.3236854315000005e-06  0.005781454951929301  0.33837477352511774  1.0000
  H   H42       1.0  2.0736526024999997e-06  0.0237137404506029  0.25566608767029214  1.0000
  H   H43       1.0  0.9999980736684008  0.931265114665692  0.1698029264080674  1.0000
  H   H44       1.0  0.9999990011650083  0.8578133527791466  0.2780138262141918  1.0000
  H   H45       1.0  2.3032139040000009e-07  0.6435003099648214  0.0909053036016303  1.0000
  H   H46       1.0  1.9618003220000008e-07  0.5057810352680719  0.161625553381711  1.0000
  H   H47       1.0  8.433924208000001e-07  0.5237133888347357  0.24433428532154983  1.0000
  H   H48       1.0  3.7257234450000036e-07  0.06873518956102491  0.8301954175577749  1.0000
  H   H49       1.0  1.1404863756e-06  0.14218767857214232  0.7219854570262143  1.0000
  H   H50       1.0  7.590321687000003e-07  0.3564978128948296  0.909094449275628  1.0000
  H   H51       1.0  7.931769304e-07  0.4942192689611317  0.8383751387695639  1.0000
  H   H52       1.0  0.9999992982602278  0.47628691539387086  0.7556664068293699  1.0000
  C   C1        1.0  0.7439133147212542  0.5238026710843116  0.40415343923125135  1.0000
  C   C2        1.0  0.6260603693898189  0.5216859317832246  0.40215837106339347  1.0000
  C   C3        1.0  0.5628980332240018  0.5935103884004889  0.43344180453849657  1.0000
  C   C4        1.0  0.6251179480824759  0.6654120089240791  0.4652108962423398  1.0000
  C   C5        1.0  0.7428513592640512  0.6626999229968648  0.46490662161606616  1.0000
  C   C6        1.0  0.743912687727537  0.47619652406565655  0.5958465225629936  1.0000
  C   C7        1.0  0.6260597520161609  0.47831382371307274  0.5978419594239526  1.0000
  C   C8        1.0  0.5628997338195488  0.4064900048379343  0.566558941486761  1.0000
  C   C9        1.0  0.6251177266244168  0.3345870181158973  0.5347899030747456  1.0000
  C   C10       1.0  0.7428494484599782  0.337298543526579  0.5350942785416849  1.0000
  C   C11       1.0  0.25608773644999866  0.9761951938941423  0.9041535908257147  1.0000
  C   C12       1.0  0.3739406762349944  0.9783119320252923  0.9021590937944667  1.0000
  C   C13       1.0  0.43710225168065614  0.9064896751242912  0.9334420928700952  1.0000
  C   C14       1.0  0.3748832728607852  0.834588800357068  0.9652115820356003  1.0000
  C   C15       1.0  0.25715070853391336  0.8372979776138861  0.9649067376432328  1.0000
  C   C16       1.0  0.2560873921074672  0.023804765167099604  0.0958464227714444  1.0000
  C   C17       1.0  0.37394033336663307  0.0216881938128566  0.09784102074655011  1.0000
  C   C18       1.0  0.4371019599891141  0.09351126721850991  0.0665576061335713  1.0000
  C   C19       1.0  0.3748830311469503  0.16541350818446432  0.0347890029499709  1.0000
  C   C20       1.0  0.2571504624525858  0.1627019829515319  0.035092807227563604  1.0000
  C   C21       1.0  0.25608682692873685  0.47619690602078885  0.59584584400897  1.0000
  C   C22       1.0  0.37394061996631217  0.47831146395402163  0.597843729998111  1.0000
  C   C23       1.0  0.437102956132918  0.40648918870575573  0.5665593572495595  1.0000
  C   C24       1.0  0.3748813458651553  0.33458756818082963  0.5347897959081251  1.0000
  C   C25       1.0  0.2571496300902538  0.33729965410883284  0.5350926616245175  1.0000
  C   C26       1.0  0.2560874539237545  0.523803053039714  0.40415369995096034  1.0000
  C   C27       1.0  0.3739412373402898  0.5216886618848662  0.40215685418014147  1.0000
  C   C28       1.0  0.4371021032417346  0.5935102993918663  0.4334417506648833  1.0000
  C   C29       1.0  0.3748832627325028  0.6654125589903545  0.4652112587133034  1.0000
  C   C30       1.0  0.2571515408982421  0.6627010335799497  0.4649078225201109  1.0000
  C   C31       1.0  0.7439132529049175  0.023803656088738  0.09584663168850942  1.0000
  C   C32       1.0  0.6260603131199147  0.021686917957588002  0.09784112871975031  1.0000
  C   C33       1.0  0.5628978899706778  0.09351062910403841  0.066557660007085  1.0000
  C   C34       1.0  0.6251185642012445  0.16541295811878606  0.0347886404793627  1.0000
  C   C35       1.0  0.7428511285246701  0.1627008723694559  0.035093015234487296  1.0000
  C   C36       1.0  0.7439127495445702  0.9761962661843243  0.904153330105828  1.0000
  C   C37       1.0  0.6260606559897255  0.9783128375391714  0.9021587321310919  1.0000
  C   C38       1.0  0.5628981816622272  0.9064890370098198  0.9334421467436086  1.0000
  C   C39       1.0  0.625117958210012  0.8345867960447464  0.9652116892013112  1.0000
  C   C40       1.0  0.7428505269037726  0.8372990484004961  0.9649069456500784  1.0000
  C   C41       1.0  5.716845379000002e-07  0.6675260681215393  0.5591563183717909  1.0000
  C   C42       1.0  7.020212393999999e-07  0.7092156897696497  0.6240657747345324  1.0000
  C   C43       1.0  2.0016517510000023e-07  0.6470328456895942  0.6765260419685646  1.0000
  C   C44       1.0  3.2200713920000037e-07  0.6875605230768542  0.7361290711999686  1.0000
  C   C45       1.0  0.9999985996681674  0.8096786349434166  0.632273120466806  1.0000
  C   C46       1.0  9.347862644e-07  0.8517994588773163  0.6928506877857927  1.0000
  C   C47       1.0  1.0006083780000006e-07  0.7883507132755625  0.7460821399667665  1.0000
  C   C48       1.0  2.261826992000001e-07  0.8240452053381376  0.8121074527421756  1.0000
  C   C49       1.0  0.999999569967457  0.33247423610693266  0.4408439041422625  1.0000
  C   C50       1.0  2.873344656e-07  0.29078534158224306  0.3759335085062361  1.0000
  C   C51       1.0  2.742114305e-07  0.3529688932255368  0.3234736695339393  1.0000
  C   C52       1.0  6.673491768e-07  0.3124397811522074  0.26387115131444006  1.0000
  C   C53       1.0  6.942788602e-07  0.1903216692843088  0.3677266324100117  1.0000
  C   C54       1.0  5.695484474999999e-07  0.14819941066541278  0.3071491064667882  1.0000
  C   C55       1.0  5.565716492e-07  0.21165033763585234  0.2539176542857362  1.0000
  C   C56       1.0  0.9999999154692958  0.1759550988903271  0.18789276977187086  1.0000
  C   C57       1.0  0.9999969771180516  0.8324715945142102  0.05915552790976619  1.0000
  C   C58       1.0  0.9999970272622746  0.7907841923047487  0.1240649733242023  1.0000
  C   C59       1.0  0.999998007707184  0.8529663204705358  0.1765262375380345  1.0000
  C   C60       1.0  0.9999988992947096  0.8124394051641136  0.23612925612645344  1.0000
  C   C61       1.0  8.478443049999997e-07  0.6903205248228372  0.1322728450621256  1.0000
  C   C62       1.0  4.384639140000007e-08  0.6482012102244  0.19285035994315083  1.0000
  C   C63       1.0  0.9999996638962686  0.7116506946088847  0.2460817874123791  1.0000
  C   C64       1.0  0.999998873650824  0.6759555141464162  0.3121070908131856  1.0000
  C   C65       1.0  6.214169304e-07  0.167526528342762  0.9408432856923027  1.0000
  C   C66       1.0  1.4189777744000004e-06  0.20921538479888113  0.8759333706415475  1.0000
  C   C67       1.0  4.385341228000002e-07  0.14703252951040474  0.823473515338229  1.0000
  C   C68       1.0  0.9999998796718684  0.1875608795036356  0.7638704553751269  1.0000
  C   C69       1.0  6.564904567000001e-07  0.30967907184285076  0.8677264795536814  1.0000
  C   C70       1.0  0.9999992501006358  0.351799094003333  0.8071493929336669  1.0000
  C   C71       1.0  0.9999999627739696  0.288349590059326  0.7539174544527043  1.0000
  C   C72       1.0  0.9999999053157893  0.3240454976442848  0.6878921510516279  1.0000
  N   N1        1.0  0.8015352776301012  0.5927747092153764  0.4352673851495227  1.0000
  N   N2        1.0  0.801535279154855  0.40722602172349553  0.5647321563629006  1.0000
  N   N3        1.0  0.19846331694016328  0.907223174009701  0.9352679389117283  1.0000
  N   N4        1.0  0.19846386646390357  0.09277597638319429  0.0647320253290218  1.0000
  N   N5        1.0  0.1984640163156115  0.40722559501207917  0.5647314284535554  1.0000
  N   N6        1.0  0.1984640147934726  0.5927742825045145  0.4352685357876567  1.0000
  N   N7        1.0  0.8015359770060684  0.0927749488490193  0.0647327532385376  1.0000
  N   N8        1.0  0.801536275186784  0.9072243278450003  0.935267257911292  1.0000
  N   N9        1.0  0.9999996759460926  0.9501093921220587  0.6995326526863721  1.0000
  N   N10       1.0  1.3134102659e-06  0.0498916392299691  0.3004671001912627  1.0000
  N   N11       1.0  2.5016951426e-06  0.5498912613401287  0.19953327967581913  1.0000
  N   N12       1.0  0.9999959445482176  0.450109042887135  0.8004669428375024  1.0000
  O   O1        1.0  4.7208509099999706e-08  0.7254050331248719  0.5122837072852349  1.0000
  O   O2        1.0  0.9999999569224158  0.5749487339259075  0.5514307383510229  1.0000
  O   O3        1.0  2.3121650370000038e-07  0.7638488790021825  0.8573738640584595  1.0000
  O   O4        1.0  3.2979645679999986e-07  0.9169729940424745  0.822346957591563  1.0000
  O   O5        1.0  1.7898507707000002e-06  0.27459454398156413  0.48771604559257753  1.0000
  O   O6        1.0  0.9999971266368277  0.4250515507409104  0.4485699124235722  1.0000
  O   O7        1.0  0.9999990627304739  0.2361506981025912  0.1426263584551322  1.0000
  O   O8        1.0  2.0222453188e-06  0.0830280568702761  0.17765330629854503  1.0000
  O   O9        1.0  1.6097884482999996e-06  0.7745918749003166  0.0122839236488446  1.0000
  O   O10       1.0  0.9999936645998914  0.9250489046160266  0.051428604664991405  1.0000
  O   O11       1.0  0.9999998421832924  0.7361518670317083  0.3573735179386972  1.0000
  O   O12       1.0  1.6119244610000014e-07  0.5830277510081247  0.3223466126333037  1.0000
  O   O13       1.0  7.422491848000004e-07  0.22540554039682092  0.9877158706039069  1.0000
  O   O14       1.0  0.9999996954128464  0.0749492182378049  0.9485697392983923  1.0000
  O   O15       1.0  0.999999784487599  0.2638484176366375  0.6426261935632526  1.0000
  O   O16       1.0  4.954393447000003e-07  0.41697257278018907  0.6776531816191067  1.0000
