data_image0
_chemical_formula_structural       Mn2H26C38N2O12
_chemical_formula_sum              "Mn2 H26 C38 N2 O12"
_cell_length_a       7.6618376897157
_cell_length_b       9.915137038478296
_cell_length_c       12.111434544184156
_cell_angle_alpha    107.27389509293613
_cell_angle_beta     96.43426817459867
_cell_angle_gamma    108.42251477022646

_space_group_name_H-M_alt    "P 1"
_space_group_IT_number       1

loop_
  _space_group_symop_operation_xyz
  'x, y, z'

loop_
  _atom_site_type_symbol
  _atom_site_label
  _atom_site_symmetry_multiplicity
  _atom_site_fract_x
  _atom_site_fract_y
  _atom_site_fract_z
  _atom_site_occupancy
  Mn  Mn1       1.0  0.1960187010754453  0.4096258619071023  0.04624637833784823  1.0000
  Mn  Mn2       1.0  0.8039999827020807  0.5903792488650056  0.9537517556753412  1.0000
  H   H1        1.0  0.4556106139048738  0.5965637409454275  0.2517681674693506  1.0000
  H   H2        1.0  0.5443875556860575  0.4034127668492575  0.748233807798769  1.0000
  H   H3        1.0  0.574336239847412  0.6092583085253055  0.15598691826375702  1.0000
  H   H4        1.0  0.42566756135336453  0.39075354607393115  0.8440196580374388  1.0000
  H   H5        1.0  0.18321172364106536  0.9496070426324154  0.023897676383825308  1.0000
  H   H6        1.0  0.81679021838913  0.050392302430374514  0.9761055241314123  1.0000
  H   H7        1.0  0.3885473944246129  0.636711150991438  0.7975415455528178  1.0000
  H   H8        1.0  0.6114562260138712  0.36329509335817545  0.20245941944322962  1.0000
  H   H9        1.0  0.39173541891952374  0.040362833465188416  0.7279858916128885  1.0000
  H   H10       1.0  0.6082141002600994  0.9596267095716872  0.2719996631463602  1.0000
  H   H11       1.0  0.4687656165418802  0.6932999386624985  0.4321010973566857  1.0000
  H   H12       1.0  0.5312239770426005  0.3067111000441401  0.5678904932753638  1.0000
  H   H13       1.0  0.7450786817787218  0.8004568109867237  0.3523768428362074  1.0000
  H   H14       1.0  0.25493082285945695  0.19953556752231807  0.6476307007960499  1.0000
  H   H15       1.0  0.03191270910432562  0.12101303890742096  0.70660949545406  1.0000
  H   H16       1.0  0.9680877812817529  0.8789565226824723  0.2933965600034867  1.0000
  H   H17       1.0  0.7561842455688464  0.02061009727681551  0.7806723489027475  1.0000
  H   H18       1.0  0.24377857861773586  0.979399923159555  0.21931677853759618  1.0000
  H   H19       1.0  0.16594323858628712  0.260738186849217  0.22931551323053156  1.0000
  H   H20       1.0  0.8341174895558229  0.7392930262777996  0.7706866609724158  1.0000
  H   H21       1.0  0.08596378524003968  0.2844234288090774  0.4240264168605278  1.0000
  H   H22       1.0  0.9141086378081553  0.7156042467754419  0.5759795588982114  1.0000
  H   H23       1.0  0.9852378705498807  0.6906173791569118  0.42156469891692433  1.0000
  H   H24       1.0  0.014724764778186772  0.30936071839892076  0.5784193516610188  1.0000
  H   H25       1.0  0.06660290525706372  0.64625713037362  0.2247386159365306  1.0000
  H   H26       1.0  0.9333476105187869  0.35372332139716184  0.7752437794809239  1.0000
  C   C1        1.0  0.26318129142074304  0.16010480068150917  0.9230593614710542  1.0000
  C   C2        1.0  0.7368087822562758  0.8398989379478793  0.07695512384395203  1.0000
  C   C3        1.0  0.2934507127803628  0.013132768311237405  0.8838491868083194  1.0000
  C   C4        1.0  0.7065508810073525  0.9868745903997582  0.11615361901499463  1.0000
  C   C5        1.0  0.24713721653349557  0.917594816920442  0.949469945732808  1.0000
  C   C6        1.0  0.752864702727564  0.082410233360747  0.050533923663927297  1.0000
  C   C7        1.0  0.28034216547757057  0.7821573043156536  0.9185372592875038  1.0000
  C   C8        1.0  0.7196533234593686  0.21784555794067736  0.0814624025995272  1.0000
  C   C9        1.0  0.3593562252088844  0.7410943334977632  0.8208074246740295  1.0000
  C   C10       1.0  0.6406343787175358  0.2589097640913209  0.17918818041555798  1.0000
  C   C11       1.0  0.39448347952105683  0.8327130735572724  0.7518007304800703  1.0000
  C   C12       1.0  0.6054953419428627  0.16727967520829887  0.2481921215221802  1.0000
  C   C13       1.0  0.36411775006084923  0.969447373994143  0.7824802255525397  1.0000
  C   C14       1.0  0.6358580370033026  0.0305498910086328  0.21751613400000738  1.0000
  C   C15       1.0  0.22083655165165086  0.6758300929619453  0.9844333449967589  1.0000
  C   C16       1.0  0.7791654667821886  0.32417844907659094  0.015567314431244534  1.0000
  C   C17       1.0  0.5947248196983708  0.8483265694545354  0.6100905736515683  1.0000
  C   C18       1.0  0.4052558502469666  0.15165591545829937  0.3899005073988277  1.0000
  C   C19       1.0  0.5943292938803921  0.7889552204328184  0.48964407933904397  1.0000
  C   C20       1.0  0.40566756220079714  0.21104191568976202  0.5103558031356599  1.0000
  C   C21       1.0  0.7507987952959283  0.8490327013088148  0.44673507825306297  1.0000
  C   C22       1.0  0.24920827822155187  0.1509574422574076  0.5532701025397202  1.0000
  C   C23       1.0  0.9149826611931787  0.969828051733131  0.522465624506367  1.0000
  C   C24       1.0  0.08503101272155791  0.030147116718382008  0.477544228363456  1.0000
  C   C25       1.0  0.9095400061688467  0.02908436510760741  0.642719797832342  1.0000
  C   C26       1.0  0.09045819734399174  0.9708921268589493  0.35728300117305173  1.0000
  C   C27       1.0  0.7526570520013608  0.9709767726652316  0.686780718434555  1.0000
  C   C28       1.0  0.24732898642099604  0.029013483953065102  0.3132217631733453  1.0000
  C   C29       1.0  0.12453410936225853  0.3541534293533175  0.275584366047994  1.0000
  C   C30       1.0  0.8755155095695742  0.6458731968710937  0.7244201674519956  1.0000
  C   C31       1.0  0.07901986704008838  0.3688011002899502  0.3850538505479122  1.0000
  C   C32       1.0  0.9210394064013631  0.6312209526048209  0.6149491515358179  1.0000
  C   C33       1.0  0.02558458672233854  0.490362326207098  0.44190453991525647  1.0000
  C   C34       1.0  0.9744358321545122  0.5096439628053135  0.5580915134345189  1.0000
  C   C35       1.0  0.02292388955655174  0.5926236582826121  0.3832160684022909  1.0000
  C   C36       1.0  0.9770667259862336  0.4073690446978162  0.616777375187027  1.0000
  C   C37       1.0  0.06913442607947219  0.5698951176091286  0.2732963057433437  1.0000
  C   C38       1.0  0.9308545848657274  0.43010342230194715  0.7266911510973768  1.0000
  N   N1        1.0  0.11890543618681454  0.45216557325058204  0.219606743152525  1.0000
  N   N2        1.0  0.8811030640763136  0.5478465142497485  0.7803869162798518  1.0000
  O   O1        1.0  0.2233729195450991  0.20153841693878863  0.024788678679776414  1.0000
  O   O2        1.0  0.776619687481933  0.7984504251501151  0.9752269865674915  1.0000
  O   O3        1.0  0.2752702069030946  0.23870512205800754  0.8561356602663821  1.0000
  O   O4        1.0  0.724701927028285  0.7613155818541062  0.14389144376841764  1.0000
  O   O5        1.0  0.0961112468890733  0.6868982810333295  0.045316495159269776  1.0000
  O   O6        1.0  0.9038867611885663  0.31310461853291127  0.9546808269797322  1.0000
  O   O7        1.0  0.29257976009947856  0.573996255972162  0.9730815974302373  1.0000
  O   O8        1.0  0.7074334491341502  0.4260189914612482  0.026925523974590228  1.0000
  O   O9        1.0  0.43914943805432943  0.7717337512784754  0.6442818644866151  1.0000
  O   O10       1.0  0.5608224945174457  0.22825564196283213  0.3557081026639678  1.0000
  O   O11       1.0  0.48054426571713565  0.5347763838909361  0.18108423849739816  1.0000
  O   O12       1.0  0.519464013894904  0.4652173413141655  0.8189128556349059  1.0000
