data_image0
_chemical_formula_structural       Zn4H40C64N8O16
_chemical_formula_sum              "Zn4 H40 C64 N8 O16"
_cell_length_a       8.313797342111203
_cell_length_b       11.17879881
_cell_length_c       14.7819
_cell_angle_alpha    90.0
_cell_angle_beta     90.00029634093997
_cell_angle_gamma    90.0

_space_group_name_H-M_alt    "P 1"
_space_group_IT_number       1

loop_
  _space_group_symop_operation_xyz
  'x, y, z'

loop_
  _atom_site_type_symbol
  _atom_site_label
  _atom_site_symmetry_multiplicity
  _atom_site_fract_x
  _atom_site_fract_y
  _atom_site_fract_z
  _atom_site_occupancy
  Zn  Zn1       1.0  0.1059732350642122  0.150736231024446  0.98540678511214  1.0000
  Zn  Zn2       1.0  0.3940281276103335  0.6507362842502005  0.5145933163672822  1.0000
  Zn  Zn3       1.0  0.8940258818254918  0.8492638754270558  0.014593417836202601  1.0000
  Zn  Zn4       1.0  0.6059733949189621  0.3492647167517973  0.4854062100850385  1.0000
  H   H1        1.0  0.6719215985431006  0.9066188749129154  0.32924582716895406  1.0000
  H   H2        1.0  0.8280764753815646  0.406617927136665  0.1707538007487841  1.0000
  H   H3        1.0  0.3280775183466105  0.0933821260890895  0.6707543757793816  1.0000
  H   H4        1.0  0.1719238443279352  0.593381284764348  0.8292464022030543  1.0000
  H   H5        1.0  0.2131637237591946  0.794277645649835  0.22851116338495808  1.0000
  H   H6        1.0  0.2868352332757667  0.2942775924240806  0.2714875850814167  1.0000
  H   H7        1.0  0.7868353931305165  0.2057224608016739  0.7714876865573359  1.0000
  H   H8        1.0  0.7131650864337331  0.7057225140274284  0.7285126178704147  1.0000
  H   H9        1.0  0.4869820412324373  0.0555345892301631  0.0804653623842526  1.0000
  H   H10       1.0  0.0130181186223126  0.5555346424559175  0.4195340625886459  1.0000
  H   H11       1.0  0.5130170756572667  0.9444664117718418  0.919534164061062  1.0000
  H   H12       1.0  0.9869834039069828  0.4444654639955914  0.5804661403666884  1.0000
  H   H13       1.0  0.8519392172597904  0.015054390266818998  0.1786987216383764  1.0000
  H   H14       1.0  0.6480588566648748  0.5150544434925735  0.321302259285396  1.0000
  H   H15       1.0  0.14805989962992072  0.9849457161846901  0.8213021578129798  1.0000
  H   H16       1.0  0.3519414630446249  0.4849447684084396  0.678698620169456  1.0000
  H   H17       1.0  0.7316584407549058  0.1339490964503725  0.1414027602211476  1.0000
  H   H18       1.0  0.7683432416291396  0.6339491496761269  0.35859754421010587  1.0000
  H   H19       1.0  0.26834308177438976  0.8660510100011365  0.8585974427341868  1.0000
  H   H20       1.0  0.2316570780803602  0.366050956775382  0.6414026587417255  1.0000
  H   H21       1.0  0.5595938665111646  0.23082175856781356  0.2960839988456314  1.0000
  H   H22       1.0  0.9404054102332964  0.7308218117935681  0.203916982081644  1.0000
  H   H23       1.0  0.4404076560181309  0.7691783478836953  0.7039168806127236  1.0000
  H   H24       1.0  0.0595937066564147  0.269177400107445  0.7960832208666915  1.0000
  H   H25       1.0  0.0763177130617123  0.9957044749783819  0.2656304860445289  1.0000
  H   H26       1.0  0.4236812439732418  0.49570442175262736  0.23436961542788737  1.0000
  H   H27       1.0  0.9236838094675761  0.0042956314731271  0.7343690404077846  1.0000
  H   H28       1.0  0.5763178729164622  0.5042956846988815  0.7656305875204481  1.0000
  H   H29       1.0  0.281631834850181  0.0138378015947112  0.38723588376115003  1.0000
  H   H30       1.0  0.2183683250045689  0.5138387493709615  0.1127642177147692  1.0000
  H   H31       1.0  0.7183696876791146  0.9861614103063019  0.6127643191941913  1.0000
  H   H32       1.0  0.7816319947049308  0.4861613570805474  0.8872353087340414  1.0000
  H   H33       1.0  0.234901083062752  0.1406913235251253  0.5215513635423434  1.0000
  H   H34       1.0  0.2650978739722092  0.6406913767508797  0.9784494144330936  1.0000
  H   H35       1.0  0.7650992366467548  0.8593078883758877  0.4784495159125157  1.0000
  H   H36       1.0  0.7349012429175019  0.35930872970062916  0.0215507885152419  1.0000
  H   H37       1.0  0.9734492755933745  0.2496028461934543  0.5423106541323434  1.0000
  H   H38       1.0  0.5265512039708824  0.7496020048687129  0.9576896502954141  1.0000
  H   H39       1.0  0.0265522469359212  0.7503972602580545  0.4576895488229908  1.0000
  H   H40       1.0  0.4734491157386245  0.2503972070323002  0.0423105526564242  1.0000
  C   C1        1.0  0.5973082811284129  0.9888745819551943  0.202933701638905  1.0000
  C   C2        1.0  0.9026921984358367  0.4888745287294398  0.2970666027888527  1.0000
  C   C3        1.0  0.4026920385810868  0.0111255244963147  0.7970665013129334  1.0000
  C   C4        1.0  0.0973105269132475  0.5111255777220691  0.7029342766730053  1.0000
  C   C5        1.0  0.5796075850509936  0.9114870187023243  0.27686190023786855  1.0000
  C   C6        1.0  0.9203904888736716  0.4114878600270657  0.22313705117684893  1.0000
  C   C7        1.0  0.4203903290189217  0.0885121931986887  0.7231376262039504  1.0000
  C   C8        1.0  0.0796098308358282  0.5885122464244432  0.7768624752719688  1.0000
  C   C9        1.0  0.44128090318803  0.8413632054623221  0.2857216579112887  1.0000
  C   C10       1.0  0.0587156482073397  0.3413631522365677  0.2142764140450737  1.0000
  C   C11       1.0  0.5587158080620895  0.1586369009891868  0.7142758390179722  1.0000
  C   C12       1.0  0.9412846715021603  0.6586369542149413  0.785723112403744  1.0000
  C   C13       1.0  0.3205623002784037  0.8485258712693451  0.22031428870300124  1.0000
  C   C14       1.0  0.1794354539367617  0.3485258180435906  0.27968378325685705  1.0000
  C   C15       1.0  0.6794356137915116  0.1514742351821639  0.7796832082297556  1.0000
  C   C16       1.0  0.8205660685925338  0.651476077508903  0.7203143901894151  1.0000
  C   C17       1.0  0.3366957221652243  0.9253972788870684  0.1467432791397627  1.0000
  C   C18       1.0  0.1633020320499412  0.4253927529088415  0.3532568223291577  1.0000
  C   C19       1.0  0.6633058003640713  0.0746046166654253  0.8532555708095302  1.0000
  C   C20       1.0  0.8366994904793543  0.5746064589921716  0.6467427041231559  1.0000
  C   C21       1.0  0.4759569950075431  0.9951391190660459  0.1378896127122218  1.0000
  C   C22       1.0  0.0240431648472068  0.4951381712898026  0.3621111652667182  1.0000
  C   C23       1.0  0.5240433247019567  0.004860987385463  0.8621105902396167  1.0000
  C   C24       1.0  0.9759571548622931  0.5048610406112175  0.6378897141881409  1.0000
  C   C25       1.0  0.7444299813195983  0.0675815007354998  0.19553589257735376  1.0000
  C   C26       1.0  0.7555717010644472  0.5675806594107584  0.30446373535087895  1.0000
  C   C27       1.0  0.2555703383899015  0.9324195002665049  0.8044643103744846  1.0000
  C   C28       1.0  0.24443102428464408  0.4324185524902547  0.6955357911049376  1.0000
  C   C29       1.0  0.6752894939641862  0.2047590299194226  0.323748573420751  1.0000
  C   C30       1.0  0.8247097827802676  0.7047590831451771  0.176251054500483  1.0000
  C   C31       1.0  0.3247120285651022  0.7952410765320863  0.6762516295345833  1.0000
  C   C32       1.0  0.1752893341094364  0.2952401287558359  0.8237484719448389  1.0000
  C   C33       1.0  0.883162013452889  0.1879065931592692  0.4131612293390248  1.0000
  C   C34       1.0  0.616837263291572  0.6879057518345277  0.0868390750852299  1.0000
  C   C35       1.0  0.1168395090764065  0.8120935132922397  0.5868389736163095  1.0000
  C   C36       1.0  0.3831618535981391  0.3120934600664853  0.9131618043661334  1.0000
  C   C37       1.0  0.9121523761097237  0.1155795020520642  0.3361326502379356  1.0000
  C   C38       1.0  0.587848103454526  0.6155786607273228  0.163867654189815  1.0000
  C   C39       1.0  0.0878491464195719  0.8844214989499406  0.6638675527173987  1.0000
  C   C40       1.0  0.4121522162549738  0.38441965662319433  0.8361332252650372  1.0000
  C   C41       1.0  0.0543205446828168  0.0508301481811912  0.32507677198353246  1.0000
  C   C42       1.0  0.4456784123521373  0.5508302014069457  0.1749233294888839  1.0000
  C   C43       1.0  0.9456809778464788  0.9491699582703177  0.674923430971802  1.0000
  C   C44       1.0  0.554319501717778  0.4491699050445632  0.8250768734559557  1.0000
  C   C45       1.0  0.168151801456311  0.0618644285270946  0.3936271541904262  1.0000
  C   C46       1.0  0.3318471555786431  0.5618644817528491  0.1063729472819901  1.0000
  C   C47       1.0  0.8318497210729846  0.9381356779244143  0.606373048764908  1.0000
  C   C48       1.0  0.6681519613110609  0.43813473014816395  0.8936265791633246  1.0000
  C   C49       1.0  0.140486946211638  0.1332254051005677  0.4707220344433836  1.0000
  C   C50       1.0  0.3595132136431118  0.6332254583263222  0.029278743535549302  1.0000
  C   C51       1.0  0.8595145763176575  0.8667747013509413  0.5292788450149715  1.0000
  C   C52       1.0  0.6404859032465922  0.3667746481251868  0.9707214594127862  1.0000
  C   C53       1.0  0.9976451985543234  0.19630105499680178  0.482208843162482  1.0000
  C   C54       1.0  0.5023540781901374  0.6963011082225563  0.017791461261772695  1.0000
  C   C55       1.0  0.002356323974972  0.8036981569042112  0.5177913597928523  1.0000
  C   C56       1.0  0.4976462415193695  0.3036981036784567  0.9822087416900659  1.0000
  C   C57       1.0  0.4131168777291592  0.7626776494423737  0.36561522970833943  1.0000
  C   C58       1.0  0.0868820793058021  0.2626767016661233  0.1343835187580353  1.0000
  C   C59       1.0  0.5868810363407562  0.2373233515596311  0.6343836202304516  1.0000
  C   C60       1.0  0.9131194432234936  0.7373225102348896  0.8656166841972989  1.0000
  C   C61       1.0  0.2002743068547588  0.9386920883318055  0.0822498198333932  1.0000
  C   C62       1.0  0.2997246501801953  0.438692035106051  0.4177496051360094  1.0000
  C   C63       1.0  0.7997248100349452  0.0613071235692075  0.9177497066119287  1.0000
  C   C64       1.0  0.7002744667095087  0.5613062822444661  0.582250597812326  1.0000
  N   N1        1.0  0.7775688694433427  0.1288528422849424  0.281150828747414  1.0000
  N   N2        1.0  0.7224304073011183  0.6288528955106969  0.2188494756768407  1.0000
  N   N3        1.0  0.2224326530859528  0.8711463696160777  0.7188493742079203  1.0000
  N   N4        1.0  0.2775687095885928  0.3711463163903232  0.7811507272714948  1.0000
  N   N5        1.0  0.7333183320695866  0.2423748782003514  0.4027406174232198  1.0000
  N   N6        1.0  0.766682147494663  0.7423740368756099  0.0972590105015172  1.0000
  N   N7        1.0  0.2666831904597089  0.7576252282511575  0.5972595855321146  1.0000
  N   N8        1.0  0.233316969395041  0.2576251750254031  0.9027411924468254  1.0000
  O   O1        1.0  0.5278081506548205  0.747913093535672  0.4238042941536904  1.0000
  O   O2        1.0  0.9721911260896334  0.24791214575942183  0.0761946572645229  1.0000
  O   O3        1.0  0.4721921690546793  0.2520879074663327  0.5761945557920997  1.0000
  O   O4        1.0  0.0278091936198663  0.7520879606920872  0.9238055456873157  1.0000
  O   O5        1.0  0.277492931941616  0.7136974316831797  0.3760573358090653  1.0000
  O   O6        1.0  0.2225060250933382  0.21369648390692933  0.1239427656633509  1.0000
  O   O7        1.0  0.722506184948088  0.2863026747683293  0.6239421906362494  1.0000
  O   O8        1.0  0.7774954974359503  0.7863027279940836  0.8760574372919834  1.0000
  O   O9        1.0  0.0662356775547224  0.8916083176203102  0.1056814650440145  1.0000
  O   O10       1.0  0.4337632794802389  0.3916082643945558  0.394317959925381  1.0000
  O   O11       1.0  0.9337634393349887  0.1083917888311987  0.8943187379043209  1.0000
  O   O12       1.0  0.5662370402292609  0.6083918420569532  0.6056822430264502  1.0000
  O   O13       1.0  0.2222402019190355  0.997018569654351  0.0090752580066606  1.0000
  O   O14       1.0  0.2777611607555102  0.4970203055295883  0.4909241669697337  1.0000
  O   O15       1.0  0.7777601177904714  0.0029806422466621004  0.9909249449451707  1.0000
  O   O16       1.0  0.7222403617737854  0.5029798009219206  0.5090753594825799  1.0000
