data_image0
_chemical_formula_structural       Al6H26C84I12O28
_chemical_formula_sum              "Al6 H26 C84 I12 O28"
_cell_length_a       14.520548782147399
_cell_length_b       14.524756471034506
_cell_length_c       27.775856501978637
_cell_angle_alpha    90.48807260530164
_cell_angle_beta     90.48646007876765
_cell_angle_gamma    119.48172711437631

_space_group_name_H-M_alt    "P 1"
_space_group_IT_number       1

loop_
  _space_group_symop_operation_xyz
  'x, y, z'

loop_
  _atom_site_type_symbol
  _atom_site_label
  _atom_site_symmetry_multiplicity
  _atom_site_fract_x
  _atom_site_fract_y
  _atom_site_fract_z
  _atom_site_occupancy
  Al  Al1       1.0  0.49919195391016297  0.20669023926819827  0.5011966799774258  1.0000
  Al  Al2       1.0  0.7410918137103052  0.25920737262141097  0.4980808791350527  1.0000
  Al  Al3       1.0  0.699391954934626  0.44126762344660614  0.503832571910202  1.0000
  Al  Al4       1.0  0.20616603526292476  0.4991363481020059  0.0010937766973740004  1.0000
  Al  Al5       1.0  0.2589190773758999  0.7410472312595359  0.9980514221277164  1.0000
  Al  Al6       1.0  0.4408767632029012  0.6991287205993901  0.0038204386806200016  1.0000
  H   H1        1.0  0.9938667896743495  0.6957202254222993  0.7601901465364026  1.0000
  H   H2        1.0  0.37999105092912083  0.026693324573464804  0.22584787534312062  1.0000
  H   H3        1.0  0.6116738324012517  0.6184348504457304  0.2291336439236389  1.0000
  H   H4        1.0  0.9931853374549179  0.394242768013129  0.22103678886644934  1.0000
  H   H5        1.0  0.8834032352436267  0.3912073746464557  0.7925320887576534  1.0000
  H   H6        1.0  0.5819517199744979  0.463951391995522  0.803165179248012  1.0000
  H   H7        1.0  0.5384165738074317  0.0935855815558355  0.7993515788385255  1.0000
  H   H8        1.0  0.39053812307568603  0.8838082333180283  0.2926745335354468  1.0000
  H   H9        1.0  0.4639312313178579  0.582182160247953  0.30315067840912496  1.0000
  H   H10       1.0  0.09378193235689025  0.5393675208159222  0.29926716356767014  1.0000
  H   H11       1.0  0.18905062907767708  0.5740284131172403  0.7628185387218168  1.0000
  H   H12       1.0  0.27152307080954335  0.31365869365036764  0.7708664130811799  1.0000
  H   H13       1.0  0.44228182354203954  0.62855579718444  0.7613176307115241  1.0000
  H   H14       1.0  0.3610428120806335  0.795169853432377  0.752339008803695  1.0000
  H   H15       1.0  0.574005501621933  0.18914766401467634  0.2627135854336374  1.0000
  H   H16       1.0  0.6287848259960143  0.4428482818094182  0.26117807055592834  1.0000
  H   H17       1.0  0.7953948472382918  0.36095084637167213  0.2522984037042307  1.0000
  H   H18       1.0  0.6736357115208024  0.9157738822813215  0.7718841141256051  1.0000
  H   H19       1.0  0.6951431258259432  0.993524455323353  0.260487974542329  1.0000
  H   H20       1.0  0.3138488865105131  0.2718075483370798  0.27099252587029815  1.0000
  H   H21       1.0  0.9148591696587618  0.6733292531063172  0.2717208410359789  1.0000
  H   H22       1.0  0.02641930561275535  0.3801742949400265  0.725893962246829  1.0000
  H   H23       1.0  0.618162270529041  0.6118941247535475  0.729268532278404  1.0000
  H   H24       1.0  0.3935237391413013  0.992606111773192  0.7210756216238323  1.0000
  H   H25       1.0  0.33249334345056514  0.08241995056265951  0.5296965675849705  1.0000
  H   H26       1.0  0.0800189667075345  0.33286505960906976  0.0291874473621405  1.0000
  C   C1        1.0  0.5448193961203599  0.392046580906147  0.570929546312101  1.0000
  C   C2        1.0  0.5087599031801631  0.9878208429291745  0.19507212290876916  1.0000
  C   C3        1.0  0.45295881484872785  0.4688693265556979  0.20290283105449453  1.0000
  C   C4        1.0  0.9899100911202653  0.5499294198128483  0.19958873839155444  1.0000
  C   C5        1.0  0.9394851961689527  0.45543788090912335  0.7701791230611336  1.0000
  C   C6        1.0  0.5217884120564451  0.463887923573509  0.7793639306099324  1.0000
  C   C7        1.0  0.5359296137705272  0.032251674820855704  0.7755289383779386  1.0000
  C   C8        1.0  0.454883255680663  0.939692064234464  0.27031810822956714  1.0000
  C   C9        1.0  0.4638958383081332  0.5220412717550433  0.2793582645621698  1.0000
  C   C10       1.0  0.032292129240509865  0.5365743554186793  0.2754463104345889  1.0000
  C   C11       1.0  0.9104915625287902  0.5171608261114714  0.7329644076373683  1.0000
  C   C12       1.0  0.6041057320223686  0.12253363323013389  0.5678069703136117  1.0000
  C   C13       1.0  0.4463805391727433  0.3712394608909549  0.7449058124004113  1.0000
  C   C14       1.0  0.6289518791384765  0.0426885843073492  0.7440017871747957  1.0000
  C   C15       1.0  0.5165545090268965  0.9103749111288266  0.23320873333357645  1.0000
  C   C16       1.0  0.3711271697563987  0.44650775931719283  0.24498034064623656  1.0000
  C   C17       1.0  0.042307136431986754  0.6293441498921909  0.24387775109363474  1.0000
  C   C18       1.0  0.05457023842590309  0.5846535312922327  0.8409798348195141  1.0000
  C   C19       1.0  0.40716978891776295  0.48908814187567634  0.8461107434425588  1.0000
  C   C20       1.0  0.4954049527757009  0.8908332379302667  0.8423071424960328  1.0000
  C   C21       1.0  0.5841728841268292  0.054756721163357704  0.34110528279677516  1.0000
  C   C22       1.0  0.4894719410778023  0.40764997635670136  0.346090622730543  1.0000
  C   C23       1.0  0.8595110942118964  0.4292507139836844  0.5619518891608308  1.0000
  C   C24       1.0  0.8906734577953087  0.4955858865393808  0.342204547120538  1.0000
  C   C25       1.0  0.9589376389397871  0.4832783931497531  0.6461383638151332  1.0000
  C   C26       1.0  0.49190422890374924  0.4384379174040164  0.6552672049698034  1.0000
  C   C27       1.0  0.5688426487097118  0.028509166469262902  0.6523387730354105  1.0000
  C   C28       1.0  0.48293364712088055  0.9584524960447496  0.1462769825009502  1.0000
  C   C29       1.0  0.43790062003612473  0.4918393628106019  0.15527260829284026  1.0000
  C   C30       1.0  0.028213309580728322  0.5690099258354595  0.15222970474799524  1.0000
  C   C31       1.0  0.5368837905982105  0.3812894934547729  0.43528918168454583  1.0000
  C   C32       1.0  0.6024250374810193  0.12015048159767622  0.431706536227182  1.0000
  C   C33       1.0  0.8308057803773679  0.4349319837286034  0.43163942127122823  1.0000
  C   C34       1.0  0.3910188843157202  0.5443253687445448  0.0709362906117619  1.0000
  C   C35       1.0  0.38114391119431457  0.536841309164011  0.9352938254501525  1.0000
  C   C36       1.0  0.12000773676950875  0.6025160819361233  0.9315498774019563  1.0000
  C   C37       1.0  0.43455867480973615  0.8309105061859298  0.9317170011492238  1.0000
  C   C38       1.0  0.07870846327747236  0.6182364471387276  0.7165386574434579  1.0000
  C   C39       1.0  0.37012826314067143  0.4620062625292435  0.7213886572221356  1.0000
  C   C40       1.0  0.5316754734396343  0.8792130185380388  0.7178520508264938  1.0000
  C   C41       1.0  0.6179548695839543  0.07841589837180152  0.21664689134672702  1.0000
  C   C42       1.0  0.4620082330026705  0.3704143987131588  0.22139964529898043  1.0000
  C   C43       1.0  0.8788494601289256  0.5314749626405727  0.2177325633809275  1.0000
  C   C44       1.0  0.0006926624451468174  0.6253831242440243  0.752877865439935  1.0000
  C   C45       1.0  0.1218747888803479  0.6042505949843503  0.06761074792666483  1.0000
  C   C46       1.0  0.3486831577659544  0.3798330940265941  0.7618052014506986  1.0000
  C   C47       1.0  0.6113974960432033  0.9330225158931784  0.7608926487678219  1.0000
  C   C48       1.0  0.624883918902455  0.00047949559888139915  0.2531002616812899  1.0000
  C   C49       1.0  0.37995005300152224  0.3489713917391414  0.26188116874728007  1.0000
  C   C50       1.0  0.9324329685786239  0.6113207458203007  0.2607485765996955  1.0000
  C   C51       1.0  0.07695901360592226  0.5923501708318355  0.883752101958571  1.0000
  C   C52       1.0  0.4001920680212123  0.509041585596691  0.8881413906126456  1.0000
  C   C53       1.0  0.4703391570933492  0.8691935270933727  0.8842327367392074  1.0000
  C   C54       1.0  0.5919424130981311  0.07708582997883442  0.38388376637153243  1.0000
  C   C55       1.0  0.5093765508119362  0.4005934071093052  0.3881190690806164  1.0000
  C   C56       1.0  0.42909725412050664  0.8589199993292314  0.06209228422797961  1.0000
  C   C57       1.0  0.86903847810936  0.4705316200817649  0.3841287207866202  1.0000
  C   C58       1.0  0.9225815329410523  0.46299799695192706  0.6052678245418264  1.0000
  C   C59       1.0  0.5129040852704279  0.41904371375618876  0.615408950019024  1.0000
  C   C60       1.0  0.5883740304330445  0.06756012057424243  0.6125391025317911  1.0000
  C   C61       1.0  0.4626942694295267  0.9218739660823447  0.10544125906601211  1.0000
  C   C62       1.0  0.41817355238668347  0.512599162851572  0.11542877752897603  1.0000
  C   C63       1.0  0.0670522897327786  0.5884714271597674  0.11238576888657553  1.0000
  C   C64       1.0  0.10892443180615169  0.5572163673564176  0.7538054336012296  1.0000
  C   C65       1.0  0.4443002813634538  0.5550720662690908  0.7560991904892236  1.0000
  C   C66       1.0  0.4378603697334428  0.8666236868666175  0.7496770414160141  1.0000
  C   C67       1.0  0.9880472108826696  0.5091331434959728  0.6949463104453812  1.0000
  C   C68       1.0  0.5570199377668459  0.10894716508827434  0.25382134539307805  1.0000
  C   C69       1.0  0.5551976042931414  0.44473826404119876  0.2560307609696367  1.0000
  C   C70       1.0  0.8666742314565428  0.437889619301295  0.24959458165822215  1.0000
  C   C71       1.0  0.030553791530756904  0.5641392790676321  0.7912728268860861  1.0000
  C   C72       1.0  0.4234406898067747  0.47285353271384895  0.797455165090746  1.0000
  C   C73       1.0  0.5175855667257993  0.9212781511409249  0.7936595415062586  1.0000
  C   C74       1.0  0.5636725395476744  0.03063892990654441  0.291402749332704  1.0000
  C   C75       1.0  0.4730961863578572  0.42386375248084807  0.2974527654487248  1.0000
  C   C76       1.0  0.9210983705081333  0.5177384859329381  0.2935521235304322  1.0000
  C   C77       1.0  0.018148632492852892  0.4494922936407236  0.7338675008255819  1.0000
  C   C78       1.0  0.4687281608993177  0.45320254121802617  0.7029004784907755  1.0000
  C   C79       1.0  0.5415504511645396  0.5457883058716108  0.739103003316693  1.0000
  C   C80       1.0  0.45612786935748795  0.976484409632967  0.7328800537845768  1.0000
  C   C81       1.0  0.44921858213496074  0.0182854142615128  0.23389437172341596  1.0000
  C   C82       1.0  0.5456696087321548  0.5418232784442695  0.23902661369907466  1.0000
  C   C83       1.0  0.9767596832377166  0.4566402609360977  0.23282031250386137  1.0000
  C   C84       1.0  0.5496702413176139  0.9900714862935731  0.699679492377989  1.0000
  I   I1        1.0  0.18435669670378727  0.7432616704551691  0.672278472629131  1.0000
  I   I2        1.0  0.4816499363380514  0.7556297980736915  0.21347158487186857  1.0000
  I   I3        1.0  0.22631525063868457  0.4459973240348277  0.23492382939377884  1.0000
  I   I4        1.0  0.17789703833768306  0.7795585708899962  0.2373878150861444  1.0000
  I   I5        1.0  0.253761483812184  0.4581272872238884  0.6735266453977573  1.0000
  I   I6        1.0  0.5310457846295052  0.7664244911008284  0.6687910071954166  1.0000
  I   I7        1.0  0.7431484570685215  0.18376556363448773  0.17237445282006553  1.0000
  I   I8        1.0  0.45789246490634383  0.2539237967018195  0.17354461620737283  1.0000
  I   I9        1.0  0.7658505224268595  0.5302187479647101  0.16857732764825073  1.0000
  I   I10       1.0  0.7559074044962485  0.482618218498466  0.7130341631571042  1.0000
  I   I11       1.0  0.4462024029993472  0.22666609968374735  0.7347242240759116  1.0000
  I   I12       1.0  0.7788836045025889  0.178758908972121  0.73761158539223  1.0000
  O   O1        1.0  0.5254274366628309  0.1282684495822224  0.5515955192337927  1.0000
  O   O2        1.0  0.29739726643448  0.49135499485883133  0.055179180188901  1.0000
  O   O3        1.0  0.16298675441458257  0.6968238245757592  0.04917098813936601  1.0000
  O   O4        1.0  0.47861282399986765  0.809771427700639  0.0508909809781954  1.0000
  O   O5        1.0  0.5261848070211599  0.12885889065443482  0.4477795847761784  1.0000
  O   O6        1.0  0.8219342387423937  0.3469820354493934  0.444832328114572  1.0000
  O   O7        1.0  0.6164326927344277  0.459128309316725  0.4568228561177748  1.0000
  O   O8        1.0  0.12903015329717968  0.526286095089965  0.9473816533029906  1.0000
  O   O9        1.0  0.3463881049031914  0.8218012667384401  0.9447803826451848  1.0000
  O   O10       1.0  0.4590156039712809  0.6169061572359027  0.9565399487807371  1.0000
  O   O11       1.0  0.48278181706388784  0.28864337035986415  0.4509171739577625  1.0000
  O   O12       1.0  0.8529041981788126  0.34885498085331096  0.5392116010007157  1.0000
  O   O13       1.0  0.6923343708614312  0.15052639673510276  0.45357902691343105  1.0000
  O   O14       1.0  0.804593392031002  0.49288559861229  0.4566634566842041  1.0000
  O   O15       1.0  0.28875183680580113  0.48249118307563793  0.9511891546386055  1.0000
  O   O16       1.0  0.14996953866240426  0.692064090826101  0.9536578641969558  1.0000
  O   O17       1.0  0.49246458486464234  0.804852017518407  0.956864734503647  1.0000
  O   O18       1.0  0.6478344734816018  0.30321470855166416  0.5013993882812855  1.0000
  O   O19       1.0  0.30280304963275745  0.6477023410590096  0.0013554880522051009  1.0000
  O   O20       1.0  0.6293043138956664  0.4677211768865348  0.5521510435444271  1.0000
  O   O21       1.0  0.12694199701461173  0.5254378277245947  0.0511141805292468  1.0000
  O   O22       1.0  0.34903733663941944  0.8526937500483242  0.039182870861957  1.0000
  O   O23       1.0  0.46690912481106744  0.6282311132976873  0.051889529249479004  1.0000
  O   O24       1.0  0.4914089675564739  0.2987039358427808  0.5549249152689981  1.0000
  O   O25       1.0  0.6964405333278733  0.16302128813868683  0.549129276687424  1.0000
  O   O26       1.0  0.8106165186907148  0.47893184322124693  0.5506248550371708  1.0000
  O   O27       1.0  0.36286584107891423  0.11984222999210913  0.5003133227386699  1.0000
  O   O28       1.0  0.11925683594720483  0.3628544025784919  0.00016263072738100016  1.0000
