data_image0
_chemical_formula_structural       Zn2H68C88N4O18
_chemical_formula_sum              "Zn2 H68 C88 N4 O18"
_cell_length_a       13.758808364626866
_cell_length_b       15.224053699089724
_cell_length_c       28.04614175835102
_cell_angle_alpha    89.8343777632946
_cell_angle_beta     90.14852799747068
_cell_angle_gamma    90.04324673938244

_space_group_name_H-M_alt    "P 1"
_space_group_IT_number       1

loop_
  _space_group_symop_operation_xyz
  'x, y, z'

loop_
  _atom_site_type_symbol
  _atom_site_label
  _atom_site_symmetry_multiplicity
  _atom_site_fract_x
  _atom_site_fract_y
  _atom_site_fract_z
  _atom_site_occupancy
  Zn  Zn1       1.0  0.4023412721314444  0.5018655227902116  0.4989146176312503  1.0000
  Zn  Zn2       1.0  0.6027403765382716  0.49963092034255385  0.5004412622898826  1.0000
  H   H1        1.0  0.34799036266864647  0.5229292010564208  0.6506799851857465  1.0000
  H   H2        1.0  0.3517210820435679  0.4680852767366872  0.3471190008829908  1.0000
  H   H3        1.0  0.3460128205555648  0.5203863230471838  0.7404214690964112  1.0000
  H   H4        1.0  0.35349583095564446  0.4675926570019725  0.2573430721538585  1.0000
  H   H5        1.0  0.43861460480291475  0.7148344513572908  0.876742334947707  1.0000
  H   H6        1.0  0.46466262024301846  0.2769989659806171  0.12320451263909153  1.0000
  H   H7        1.0  0.6569026431303939  0.5244418066573715  0.3489791389982244  1.0000
  H   H8        1.0  0.6561633264154524  0.4828803100755438  0.6522428195762586  1.0000
  H   H9        1.0  0.65951548739708  0.5241804545349564  0.2592637264512234  1.0000
  H   H10       1.0  0.655374401317097  0.48140592877145133  0.7419176816754033  1.0000
  H   H11       1.0  0.5181827061838788  0.7155727829641447  0.12093126683599563  1.0000
  H   H12       1.0  0.5340371497626677  0.28226368806905106  0.878466498324066  1.0000
  H   H13       1.0  0.4937737025614411  0.7183056829091257  0.0331095416058389  1.0000
  H   H14       1.0  0.5134015648827558  0.2777018487124466  0.9664222518415287  1.0000
  H   H15       1.0  0.6346417762452036  0.22261344261075777  0.5433151237023566  1.0000
  H   H16       1.0  0.3682103054693827  0.7786997356760351  0.46125266969521317  1.0000
  H   H17       1.0  0.36065137784866164  0.22387165319182148  0.46985244082644345  1.0000
  H   H18       1.0  0.6394116550611814  0.7766592771382221  0.5369194500364145  1.0000
  H   H19       1.0  0.28387829813614474  0.0829401361569566  0.4444791174939624  1.0000
  H   H20       1.0  0.7125090436813011  0.9177889188532332  0.5658334108540117  1.0000
  H   H21       1.0  0.28726962708117304  0.9202054214194958  0.4409435393142901  1.0000
  H   H22       1.0  0.7092749162385419  0.08033671615500988  0.5691350993677774  1.0000
  H   H23       1.0  0.25215515751424533  0.39771721305872626  0.5463150057776502  1.0000
  H   H24       1.0  0.7523091021566515  0.60353424701659  0.45107260053588766  1.0000
  H   H25       1.0  0.250508228369057  0.6079849061284152  0.45210206242717993  1.0000
  H   H26       1.0  0.7544249583516635  0.3956018096377604  0.5467990647867325  1.0000
  H   H27       1.0  0.12975535625469803  0.730653297085098  0.34767009518980524  1.0000
  H   H28       1.0  0.0212222054473017  0.6667195695006427  0.352022271735443  1.0000
  H   H29       1.0  0.23081175658232675  0.5960433197410708  0.3578334958869861  1.0000
  H   H30       1.0  0.1251058600614172  0.5313422372654416  0.36540018244334505  1.0000
  H   H31       1.0  0.07134663106686652  0.5677065142973704  0.2814258957140936  1.0000
  H   H32       1.0  0.18777182532944894  0.5176781279918217  0.2819976967118549  1.0000
  H   H33       1.0  0.17754548163939185  0.6326704361386035  0.273359651159133  1.0000
  H   H34       1.0  0.8682726896490751  0.1836433079645161  0.5871759647745024  1.0000
  H   H35       1.0  0.985639845744551  0.20374402878264417  0.5622709728347886  1.0000
  H   H36       1.0  0.7892879365933609  0.23228878386765928  0.5113773080419932  1.0000
  H   H37       1.0  0.9032863177580098  0.2617427983986005  0.4874803538962382  1.0000
  H   H38       1.0  0.9573916411272804  0.1039306534285416  0.4894088219152408  1.0000
  H   H39       1.0  0.8487666779535277  0.11649273040684699  0.4556305031063845  1.0000
  H   H40       1.0  0.8434656975823247  0.07221939257768642  0.5138626823818342  1.0000
  H   H41       1.0  0.13066238188785917  0.2641889475526042  0.6472649199440923  1.0000
  H   H42       1.0  0.0206704461867346  0.32608036800694856  0.6429815128931082  1.0000
  H   H43       1.0  0.2286336393433359  0.40104028795698093  0.64274208856601  1.0000
  H   H44       1.0  0.1223209718366007  0.4645456567455283  0.6341885206003893  1.0000
  H   H45       1.0  0.06275172186707322  0.4214813116105062  0.7161556199815848  1.0000
  H   H46       1.0  0.17795155203775442  0.4736054629668942  0.7191098973366439  1.0000
  H   H47       1.0  0.16960789546575944  0.3579084374966398  0.7252430637010576  1.0000
  H   H48       1.0  0.9588315704161162  0.8045831540254582  0.4289401477140231  1.0000
  H   H49       1.0  0.874011041349597  0.7650937667778737  0.4722663344207021  1.0000
  H   H50       1.0  0.821623437513239  0.8180250459646672  0.3696860226483238  1.0000
  H   H51       1.0  0.7392481218798252  0.7787039563756649  0.41312597920730815  1.0000
  H   H52       1.0  0.7754036896807933  0.9102826575886311  0.4652362221488319  1.0000
  H   H53       1.0  0.7327686762427847  0.9435020136321198  0.40847630524746154  1.0000
  H   H54       1.0  0.858724046143685  0.9501969869783337  0.4219394318261821  1.0000
  H   H55       1.0  0.32808903531574884  0.7983126913181521  0.0110988445440157  1.0000
  H   H56       1.0  0.31214406287342916  0.682208708190245  0.010119392391104  1.0000
  H   H57       1.0  0.2572466064135029  0.8119175822715192  0.9302024408056724  1.0000
  H   H58       1.0  0.2523004638645006  0.6965353171254873  0.9242028614255562  1.0000
  H   H59       1.0  0.1312911736632572  0.6859906008132696  0.9910301715394071  1.0000
  H   H60       1.0  0.08769372719359582  0.7571276633392401  0.9455530574457356  1.0000
  H   H61       1.0  0.1359077890538529  0.8015618012346623  0.9990395220498202  1.0000
  H   H62       1.0  0.3565941727020461  0.18566299846106205  0.9892360503987663  1.0000
  H   H63       1.0  0.33016901131637877  0.30013865145828333  0.9905896348576422  1.0000
  H   H64       1.0  0.29001723768195126  0.1664798660989177  0.0706129563237567  1.0000
  H   H65       1.0  0.2735893867789017  0.280991160341422  0.07651056182533013  1.0000
  H   H66       1.0  0.1503163638844001  0.2808195540383592  0.010067152081077802  1.0000
  H   H67       1.0  0.11530514029183794  0.2066201265485432  0.05581264840458291  1.0000
  H   H68       1.0  0.16661021441287727  0.16610835586094905  0.002231494893720801  1.0000
  C   C1        1.0  0.5051820999846015  0.6713855552972915  0.4973196634465893  1.0000
  C   C2        1.0  0.5001607543268777  0.329621059909499  0.5042060024629009  1.0000
  C   C3        1.0  0.5034274351855219  0.5032250082460336  0.5930422248423142  1.0000
  C   C4        1.0  0.5022966028683342  0.49701996331154424  0.40643349471864815  1.0000
  C   C5        1.0  0.47917671458100136  0.5806071910441942  0.8198987490112017  1.0000
  C   C6        1.0  0.4943552462936013  0.4140801457425169  0.17975676717130543  1.0000
  C   C7        1.0  0.513419261460321  0.41904122142035766  0.8205850216859221  1.0000
  C   C8        1.0  0.5124884409705217  0.5777942870254336  0.1789043595277136  1.0000
  C   C9        1.0  0.588342064360866  0.4902657073434256  0.7217037701690928  1.0000
  C   C10       1.0  0.5924763536702359  0.5119111662434508  0.2787779623877  1.0000
  C   C11       1.0  0.5888325143888835  0.4910270051299648  0.6720744436364542  1.0000
  C   C12       1.0  0.5909892203792922  0.5122235834004201  0.3284290034065905  1.0000
  C   C13       1.0  0.414536548283735  0.5132957095791255  0.6711452910019489  1.0000
  C   C14       1.0  0.4183852678528126  0.48061843530751946  0.3273677444207337  1.0000
  C   C15       1.0  0.4135250213326175  0.5119322943838043  0.720727669689893  1.0000
  C   C16       1.0  0.4194328641688614  0.4803962185525776  0.2778018484317784  1.0000
  C   C17       1.0  0.5004796834748292  0.5005610579669835  0.7456956513147476  1.0000
  C   C18       1.0  0.5064802909308668  0.4961169281122011  0.25384362249381104  1.0000
  C   C19       1.0  0.48380701387277014  0.49809649873354533  0.898122898394341  1.0000
  C   C20       1.0  0.4884421971114109  0.49647801697592797  0.10154793354740832  1.0000
  C   C21       1.0  0.4722145629327272  0.5777152732053067  0.8725234078718105  1.0000
  C   C22       1.0  0.4855248878930994  0.416251806176156  0.12718032288048423  1.0000
  C   C23       1.0  0.4505947281597146  0.6542611952149572  0.8967038934384135  1.0000
  C   C24       1.0  0.4701044521029233  0.33824534592078936  0.10316526584423973  1.0000
  C   C25       1.0  0.5042602889686165  0.41965238828188217  0.8731209491648358  1.0000
  C   C26       1.0  0.5021707481873748  0.576309153051163  0.1264146729008999  1.0000
  C   C27       1.0  0.5021344168358155  0.50258275492709  0.6465251980713023  1.0000
  C   C28       1.0  0.5041015757068834  0.49670628149902996  0.3529632517611888  1.0000
  C   C29       1.0  0.4766284674218753  0.5784972827943021  0.025819317012235405  1.0000
  C   C30       1.0  0.4831177251279471  0.4156081995892151  0.9739094965396903  1.0000
  C   C31       1.0  0.47222121259923  0.4140622627117949  0.0257597884052885  1.0000
  C   C32       1.0  0.46330386564826403  0.5790749917024555  0.9740691703939179  1.0000
  C   C33       1.0  0.47869952575860714  0.4960380698064526  0.050724450376407014  1.0000
  C   C34       1.0  0.47624472632504233  0.4978608044816469  0.9490155967828786  1.0000
  C   C35       1.0  0.4918965168389492  0.6559150337217048  0.05197762634846011  1.0000
  C   C36       1.0  0.5046879507884229  0.339664584736333  0.9476109158547816  1.0000
  C   C37       1.0  0.5057205060413636  0.6549131916711203  0.10125989830874002  1.0000
  C   C38       1.0  0.5164064095570069  0.34169232169790575  0.8982332530030421  1.0000
  C   C39       1.0  0.4439649697681675  0.6553347931215184  0.9465492886032223  1.0000
  C   C40       1.0  0.4612396972094217  0.336608076785744  0.0533873281309241  1.0000
  C   C41       1.0  0.5753104577439174  0.1856900607471204  0.5270563782331266  1.0000
  C   C42       1.0  0.4267975256954415  0.8155537276776456  0.4781691991597584  1.0000
  C   C43       1.0  0.4983627849637885  0.2314832050736726  0.5059487155543465  1.0000
  C   C44       1.0  0.504432445643829  0.7695698661075736  0.4985245549854228  1.0000
  C   C45       1.0  0.42047208734928904  0.18638713606915047  0.4853548991434025  1.0000
  C   C46       1.0  0.5802558407269559  0.8145432967672691  0.5211038417299038  1.0000
  C   C47       1.0  0.4201797449553411  0.09438732206981369  0.48341905639728827  1.0000
  C   C48       1.0  0.5793453775194166  0.906396767634433  0.5242531284962126  1.0000
  C   C49       1.0  0.499031734080859  0.047067923121595384  0.5046945190645857  1.0000
  C   C50       1.0  0.500784407436612  0.9539109548625574  0.5028203559976916  1.0000
  C   C51       1.0  0.5762186776249437  0.09365024607837567  0.5277727666985683  1.0000
  C   C52       1.0  0.42383953811487635  0.9074866594535749  0.4794778489821638  1.0000
  C   C53       1.0  0.3436972724009664  0.0461009604430274  0.4605369076909511  1.0000
  C   C54       1.0  0.6541094150094724  0.9546452516543551  0.5485279191022485  1.0000
  C   C55       1.0  0.34556865788623276  0.956541118921656  0.45855194873215055  1.0000
  C   C56       1.0  0.6524017559714466  0.04426120651702801  0.5502986234925018  1.0000
  C   C57       1.0  0.2073396904498425  0.4436264985779274  0.5261289522661698  1.0000
  C   C58       1.0  0.7972316170550687  0.5589730629608312  0.4720926274809187  1.0000
  C   C59       1.0  0.20639600211102052  0.5617367058311302  0.4723330969269456  1.0000
  C   C60       1.0  0.7984059109970262  0.4411047149619946  0.5260006221071549  1.0000
  C   C61       1.0  0.104723785873837  0.563730564040682  0.4705493999161803  1.0000
  C   C62       1.0  0.9000798140883645  0.43845961653397575  0.5272083151502969  1.0000
  C   C63       1.0  0.1057061706920095  0.4399235172810236  0.5274102775317147  1.0000
  C   C64       1.0  0.8989076812109861  0.5625001439176599  0.4706525513703213  1.0000
  C   C65       1.0  0.05357035194157331  0.5016655977617575  0.49903854351519084  1.0000
  C   C66       1.0  0.9511112699411729  0.5011107865466826  0.49913580220562187  1.0000
  C   C67       1.0  0.05147484360091431  0.6248411174398142  0.441048917104098  1.0000
  C   C68       1.0  0.9530512503837515  0.3743206909960791  0.5546301587161437  1.0000
  C   C69       1.0  0.053655381865525  0.3766241895545903  0.5558702036642771  1.0000
  C   C70       1.0  0.950936500790327  0.6249615902623376  0.441732387376689  1.0000
  C   C71       1.0  0.098139878498408  0.6704507379335141  0.3627779201020546  1.0000
  C   C72       1.0  0.15426645154932572  0.5895518371002878  0.3468783334661012  1.0000
  C   C73       1.0  0.1472248056280208  0.5763324902268536  0.2929467047181546  1.0000
  C   C74       1.0  0.9086798360727216  0.2235557391977565  0.5612191585987177  1.0000
  C   C75       1.0  0.8667663143352868  0.2143772846727003  0.5111945929383879  1.0000
  C   C76       1.0  0.8800220491399033  0.12160519555581571  0.4915747456524002  1.0000
  C   C77       1.0  0.0982262883102436  0.32503112007145046  0.6333702801995287  1.0000
  C   C78       1.0  0.1512218478197624  0.405621686687077  0.6521941412734478  1.0000
  C   C79       1.0  0.13965678651109673  0.4150047807745736  0.7061382051826115  1.0000
  C   C80       1.0  0.8888989877310965  0.7702113567358495  0.43370554614255513  1.0000
  C   C81       1.0  0.8064508957173404  0.8169252210957865  0.408211100525243  1.0000
  C   C82       1.0  0.7928448646292381  0.9102965695350491  0.42700373701305955  1.0000
  C   C83       1.0  0.32506844055190254  0.7406087703751537  0.9876439778910469  1.0000
  C   C84       1.0  0.24566520800322422  0.7503984526683779  0.950121946674301  1.0000
  C   C85       1.0  0.14463635496939284  0.7487911948471291  0.9726796663202394  1.0000
  C   C86       1.0  0.34898937492544496  0.24276221644836934  0.012850218168395603  1.0000
  C   C87       1.0  0.27181579320414073  0.2266626328854215  0.050674029169613305  1.0000
  C   C88       1.0  0.17050438279270003  0.2195786975814329  0.028472517760477  1.0000
  N   N1        1.0  0.4983138212419577  0.5000736819318092  0.7971108550365287  1.0000
  N   N2        1.0  0.5057594360754507  0.4959291069158383  0.2024234389346091  1.0000
  N   N3        1.0  0.25447293003094984  0.5031624800639491  0.4993812396187139  1.0000
  N   N4        1.0  0.7502983892469289  0.4999959830629379  0.49925972674027724  1.0000
  O   O1        1.0  0.4252702397578006  0.633247781393436  0.4871487020725312  1.0000
  O   O2        1.0  0.5826385620441455  0.3655763434235766  0.49771955952867597  1.0000
  O   O3        1.0  0.4190634022343148  0.3689112539606328  0.5087358322957982  1.0000
  O   O4        1.0  0.5852797228198767  0.6333533527435475  0.506917341642179  1.0000
  O   O5        1.0  0.4234547068353508  0.5188172775360299  0.5716305727442405  1.0000
  O   O6        1.0  0.5824858797950017  0.5117484475645497  0.4278115128025491  1.0000
  O   O7        1.0  0.42078534971751225  0.4826007387425406  0.4263514697458746  1.0000
  O   O8        1.0  0.5847322342723017  0.4878837705130151  0.5731852828669519  1.0000
  O   O9        1.0  0.46852350203231924  0.6486875740720773  0.7967408180258886  1.0000
  O   O10       1.0  0.4911275477655579  0.345513700070974  0.2030270183213929  1.0000
  O   O11       1.0  0.525057746129491  0.6459310558039135  0.20160365842735223  1.0000
  O   O12       1.0  0.5322774423187084  0.35222129842086497  0.7978517533663807  1.0000
  O   O13       1.0  0.10395390403982673  0.6833664028486905  0.4142520976247468  1.0000
  O   O14       1.0  0.8998395661000274  0.31313644780529154  0.5793321813828385  1.0000
  O   O15       1.0  0.10748875830925193  0.3175730685142355  0.5817156831749913  1.0000
  O   O16       1.0  0.8970025894359497  0.6816981716599315  0.4143343914647204  1.0000
  O   O17       1.0  0.42108428682414  0.7354122742291408  0.9663665483603482  1.0000
  O   O18       1.0  0.4447950694438987  0.2550522414961449  0.0337521285816749  1.0000
