data_image0
_chemical_formula_structural       Zn2H24C32S2N12O8
_chemical_formula_sum              "Zn2 H24 C32 S2 N12 O8"
_cell_length_a       4.859012999672705
_cell_length_b       6.044147636272899
_cell_length_c       27.52548588294989
_cell_angle_alpha    89.99963705675151
_cell_angle_beta     90.00023191062361
_cell_angle_gamma    97.15310555378093

_space_group_name_H-M_alt    "P 1"
_space_group_IT_number       1

loop_
  _space_group_symop_operation_xyz
  'x, y, z'

loop_
  _atom_site_type_symbol
  _atom_site_label
  _atom_site_symmetry_multiplicity
  _atom_site_fract_x
  _atom_site_fract_y
  _atom_site_fract_z
  _atom_site_occupancy
  Zn  Zn1       1.0  0.8935963775958411  0.9223593458670435  0.2500029579631118  1.0000
  Zn  Zn2       1.0  0.10642317035139828  0.07761463336821349  0.749997087022329  1.0000
  H   H1        1.0  0.4712202592063689  0.9469923183341109  0.160547203863679  1.0000
  H   H2        1.0  0.5288495106608622  0.053039401651368216  0.660540831204784  1.0000
  H   H3        1.0  0.5287953506083339  0.0530415681663285  0.8394539311244174  1.0000
  H   H4        1.0  0.4711542053691033  0.9469244367588772  0.3394512212212248  1.0000
  H   H5        1.0  0.06588350851200182  0.5063289161138089  0.18456697595552635  1.0000
  H   H6        1.0  0.9341770022797249  0.493668668232317  0.6845678040589576  1.0000
  H   H7        1.0  0.9341083567683838  0.4936531258284659  0.815431252629274  1.0000
  H   H8        1.0  0.06586001622208928  0.5063271233200836  0.3154402334986911  1.0000
  H   H9        1.0  0.1371712919197137  0.23996658681858207  0.13569527730460607  1.0000
  H   H10       1.0  0.8629670824358797  0.7600982497327846  0.6357082577101849  1.0000
  H   H11       1.0  0.8628491415561329  0.7600723411120782  0.864301861379914  1.0000
  H   H12       1.0  0.13703092067027708  0.23986886392728476  0.3642983267253469  1.0000
  H   H13       1.0  0.2431933847312492  0.9739397781882316  0.07375311369616358  1.0000
  H   H14       1.0  0.7568912006575415  0.026127431088241303  0.5737717726067615  1.0000
  H   H15       1.0  0.7568679361209545  0.0261411668038676  0.926238938730968  1.0000
  H   H16       1.0  0.2430463335903923  0.973834112524955  0.42623626520550306  1.0000
  H   H17       1.0  0.6617719776601872  0.22655449612114606  0.975629402048959  1.0000
  H   H18       1.0  0.3382495085068769  0.7734834520064382  0.4756291623657773  1.0000
  H   H19       1.0  0.33828002611176794  0.7734747409659946  0.024368463122712593  1.0000
  H   H20       1.0  0.661756922001487  0.22654368641691755  0.5243785120344384  1.0000
  H   H21       1.0  0.5546005612729416  0.4912948666014642  0.038710799154166885  1.0000
  H   H22       1.0  0.4454638317756049  0.5087623463140859  0.5387110558174157  1.0000
  H   H23       1.0  0.4454163603387967  0.5087190512028243  0.9612819799069212  1.0000
  H   H24       1.0  0.5545558544024374  0.49125659255291515  0.4612937121319972  1.0000
  C   C1        1.0  0.5995396337405197  0.8147116337679421  0.15489838595002683  1.0000
  C   C2        1.0  0.40053390320983323  0.18532734901764059  0.6548968421021966  1.0000
  C   C3        1.0  0.40050070689444073  0.18532248783567698  0.8451005691641027  1.0000
  C   C4        1.0  0.5994785712951084  0.8146548887548022  0.3451013864193158  1.0000
  C   C5        1.0  0.9058638140141395  0.5945706268783011  0.16826616932895178  1.0000
  C   C6        1.0  0.09419577870132659  0.40544856561043463  0.6682690045209441  1.0000
  C   C7        1.0  0.09409057802461263  0.4054377012069565  0.8317298796135688  1.0000
  C   C8        1.0  0.9058281256387699  0.5945271199507473  0.3317350367500538  1.0000
  C   C9        1.0  0.8402408057404427  0.3845773239940584  0.09036442893989258  1.0000
  C   C10       1.0  0.15980598557856499  0.6154412369174835  0.5903635043615407  1.0000
  C   C11       1.0  0.15976117566737  0.6154181352532575  0.9096312565364781  1.0000
  C   C12       1.0  0.8401399793487344  0.38450706627968156  0.4096339977139961  1.0000
  C   C13       1.0  0.0320159785576806  0.23670457328019978  0.10064880395217557  1.0000
  C   C14       1.0  0.9679951779117032  0.76332094265355  0.6006527899156993  1.0000
  C   C15       1.0  0.9679391163772519  0.7633087566056745  0.8993526944909005  1.0000
  C   C16       1.0  0.031970038670785114  0.23663253839526285  0.39935415789983597  1.0000
  C   C17       1.0  0.09162580951490898  0.08634856841791111  0.0650973376824879  1.0000
  C   C18       1.0  0.9083707548905835  0.9136637242585195  0.5651014241335018  1.0000
  C   C19       1.0  0.908362494021148  0.9136667422592382  0.934901980863124  1.0000
  C   C20       1.0  0.09155075970289059  0.0863009975987055  0.4349026174366485  1.0000
  C   C21       1.0  0.9649553807623403  0.078482552956622  0.018953393105007894  1.0000
  C   C22       1.0  0.035031477233751204  0.9215109648618521  0.5189614391374774  1.0000
  C   C23       1.0  0.03508200827524629  0.9215598663502148  0.9810437455325312  1.0000
  C   C24       1.0  0.9648952841367374  0.07844714615987411  0.48104587210343647  1.0000
  C   C25       1.0  0.7688195224680711  0.22680084288433014  0.010392341352428499  1.0000
  C   C26       1.0  0.2312165698932276  0.7732356302116727  0.510395091049915  1.0000
  C   C27       1.0  0.23122746849329445  0.7732366724478223  0.989601164251276  1.0000
  C   C28       1.0  0.7687818508917417  0.22679309728912503  0.4896114934784207  1.0000
  C   C29       1.0  0.7065185495983711  0.37773574301530016  0.0454678942380582  1.0000
  C   C30       1.0  0.293533385439261  0.6223090172273231  0.545477427756957  1.0000
  C   C31       1.0  0.2935133124665227  0.6222966332389888  0.9545241582057855  1.0000
  C   C32       1.0  0.7064765614149237  0.3776698656260252  0.45453351625576477  1.0000
  S   S1        1.0  0.43832844719255337  0.22436614797295817  0.2500003901707614  1.0000
  S   S2        1.0  0.5616588740823828  0.775627506658921  0.7499989283448086  1.0000
  N   N1        1.0  0.7824634365197054  0.5463735900658762  0.12500366155040868  1.0000
  N   N2        1.0  0.21760921379043194  0.45366671814145576  0.6250066091229625  1.0000
  N   N3        1.0  0.21751798185124474  0.4536366598476462  0.8749945671096953  1.0000
  N   N4        1.0  0.782377827662664  0.5463102824419152  0.3749941625667218  1.0000
  N   N5        1.0  0.5853303501763206  0.685507545149612  0.116115629142989  1.0000
  N   N6        1.0  0.4147620932380248  0.3145571547188055  0.6161176619385457  1.0000
  N   N7        1.0  0.41467200338718857  0.3145345411567959  0.8838833261005018  1.0000
  N   N8        1.0  0.5852242913404382  0.6854298306316268  0.38387875017235007  1.0000
  N   N9        1.0  0.7944272916531999  0.7654506034189268  0.1877628877164028  1.0000
  N   N10       1.0  0.20562280071064978  0.23456987315723404  0.687763423501053  1.0000
  N   N11       1.0  0.20556396269103053  0.2345564098937628  0.8122313446120228  1.0000
  N   N12       1.0  0.7944181050050503  0.7654242904369608  0.3122398911463691  1.0000
  O   O1        1.0  0.3630030654356417  0.3341008307707797  0.20523682101990198  1.0000
  O   O2        1.0  0.6370104602263708  0.6659075545969558  0.7052349224767553  1.0000
  O   O3        1.0  0.6370016334369523  0.6658846634351222  0.7947603176315566  1.0000
  O   O4        1.0  0.36298767944911947  0.33410451940803654  0.29476185293586343  1.0000
  O   O5        1.0  0.30510413224394023  0.9809333042635939  0.24999941352516686  1.0000
  O   O6        1.0  0.6948838916364223  0.019065352293722502  0.7500028113932513  1.0000
  O   O7        1.0  0.7483321911781855  0.21206421242038687  0.2500034112631369  1.0000
  O   O8        1.0  0.25164749692770977  0.7879043926873096  0.7499962705374017  1.0000
