data_image0
_chemical_formula_structural       Al4H36C58N6Cl2O28
_chemical_formula_sum              "Al4 H36 C58 N6 Cl2 O28"
_cell_length_a       6.731113876161354
_cell_length_b       22.32708426117058
_cell_length_c       25.586430539956535
_cell_angle_alpha    89.2250201126012
_cell_angle_beta     89.48281802631503
_cell_angle_gamma    90.15606905593259

_space_group_name_H-M_alt    "P 1"
_space_group_IT_number       1

loop_
  _space_group_symop_operation_xyz
  'x, y, z'

loop_
  _atom_site_type_symbol
  _atom_site_label
  _atom_site_symmetry_multiplicity
  _atom_site_fract_x
  _atom_site_fract_y
  _atom_site_fract_z
  _atom_site_occupancy
  Al  Al1       1.0  0.727119870367602  0.7443219310366588  0.7458912968129213  1.0000
  Al  Al2       1.0  0.2728819676659526  0.2556795968154972  0.2541081687103102  1.0000
  Al  Al3       1.0  0.22754504831837605  0.7482872014251711  0.7468025778288168  1.0000
  Al  Al4       1.0  0.7724582688018417  0.25171253659421916  0.2531965106351208  1.0000
  H   H1        1.0  0.2581131265822378  0.8871084850048448  0.8513105844347778  1.0000
  H   H2        1.0  0.7418976560539577  0.11289169431290698  0.14869355902041553  1.0000
  H   H3        1.0  0.1536169083634462  0.03995435969716969  0.9729670680396368  1.0000
  H   H4        1.0  0.8463745183388552  0.9600431307893587  0.0270320771365462  1.0000
  H   H5        1.0  0.2842409629611282  0.8781539071177779  0.6303648906642254  1.0000
  H   H6        1.0  0.7157608825391932  0.12184851480995458  0.3696353475058204  1.0000
  H   H7        1.0  0.3703774049469075  0.069488621543158  0.4476739055353677  1.0000
  H   H8        1.0  0.6296288604342308  0.9305106776393118  0.5523220522237581  1.0000
  H   H9        1.0  0.3508450207908425  0.1447646451817448  0.374442119661751  1.0000
  H   H10       1.0  0.6491567837513302  0.8552342040018672  0.6255534645825235  1.0000
  H   H11       1.0  0.21620384198480017  0.37908920906862426  0.1324360361529813  1.0000
  H   H12       1.0  0.7837890786286436  0.6209069350647382  0.8675646816258082  1.0000
  H   H13       1.0  0.2327430969350388  0.45183466282176715  0.056380304498766506  1.0000
  H   H14       1.0  0.7672512916739649  0.5481596950370146  0.9436184728822355  1.0000
  H   H15       1.0  0.1313435055935628  0.5638151836349223  0.9468235738749302  1.0000
  H   H16       1.0  0.8686538677586029  0.4361841025090384  0.053175536178308405  1.0000
  H   H17       1.0  0.1478786960055132  0.6360097739734556  0.8699487394648387  1.0000
  H   H18       1.0  0.8521172130844691  0.3639917454828776  0.1300526973095941  1.0000
  H   H19       1.0  0.21803929171954908  0.3815199045581678  0.36949028083228813  1.0000
  H   H20       1.0  0.7819625453534016  0.6184811753666537  0.6305091892021508  1.0000
  H   H21       1.0  0.12812516658642886  0.5670544486328095  0.5523474591905569  1.0000
  H   H22       1.0  0.8718811203434313  0.43294842952060714  0.44765041665196753  1.0000
  H   H23       1.0  0.1466782272216918  0.6402538544206278  0.6254508520414747  1.0000
  H   H24       1.0  0.8533250798770738  0.3597476797558272  0.37454626420449705  1.0000
  H   H25       1.0  0.2430856899254508  0.4866071692406137  0.47480194274236714  1.0000
  H   H26       1.0  0.756916147256547  0.5133952553557604  0.5251971229238138  1.0000
  H   H27       1.0  0.6337885011531627  0.9374631713387274  0.9924946782859864  1.0000
  H   H28       1.0  0.3661984580949778  0.0625320783291485  0.007503720585582101  1.0000
  H   H29       1.0  0.5908943213524296  0.05977883170677248  0.0734469640982169  1.0000
  H   H30       1.0  0.4091060451494783  0.940215070608673  0.9265568815660005  1.0000
  H   H31       1.0  0.25781236628765203  0.9862046558602413  0.5247969146382659  1.0000
  H   H32       1.0  0.7421939242665444  0.013797324659414295  0.47520175189593067  1.0000
  H   H33       1.0  0.48713281947789255  0.8195933641214522  0.7680089677197159  1.0000
  H   H34       1.0  0.5128645623016439  0.18040726402542615  0.23199091046912915  1.0000
  H   H35       1.0  0.9848714673115424  0.6676396131010521  0.7559771508104518  1.0000
  H   H36       1.0  0.015124440817835698  0.33236145842794684  0.24402429047519553  1.0000
  C   C1        1.0  0.475434234071301  0.6736583729932945  0.8179634013103582  1.0000
  C   C2        1.0  0.524566124657504  0.3263422553485356  0.18203725000868334  1.0000
  C   C3        1.0  0.47238440603985044  0.6763484603655598  0.675918477106123  1.0000
  C   C4        1.0  0.5276144468351517  0.3236544146318323  0.3240786384147754  1.0000
  C   C5        1.0  0.9736180607813624  0.8183602003671239  0.6760067446198408  1.0000
  C   C6        1.0  0.02638676732281909  0.18164356464802717  0.3239946439813934  1.0000
  C   C7        1.0  0.9736374944127348  0.815782648661681  0.818504774766474  1.0000
  C   C8        1.0  0.02636730393344071  0.1842188847227106  0.18149311887921735  1.0000
  C   C9        1.0  0.9611782391958172  0.8554676996379202  0.8651427108743094  1.0000
  C   C10       1.0  0.0388250825093408  0.1445315886750436  0.13485716377007861  1.0000
  C   C11       1.0  0.1266621425048129  0.8911786852591064  0.8760548355364152  1.0000
  C   C12       1.0  0.8733426896390953  0.10881790669186836  0.12394936108658071  1.0000
  C   C13       1.0  0.12580363412042322  0.9314377561107392  0.9170960800106516  1.0000
  C   C14       1.0  0.8741967426210167  0.0685570393907398  0.08290892913500872  1.0000
  C   C15       1.0  0.9554243247567271  0.9377327678407352  0.9493765923156021  1.0000
  C   C16       1.0  0.044567122206558486  0.06226381967475449  0.0506256885599896  1.0000
  C   C17       1.0  0.7887726880866025  0.901859883970644  0.9375153194022944  1.0000
  C   C18       1.0  0.21121874416125053  0.0981376047367846  0.062484607443131814  1.0000
  C   C19       1.0  0.7901368751226343  0.8603275383753511  0.8969462336661423  1.0000
  C   C20       1.0  0.20986346131493147  0.13967175241129579  0.1030516953441776  1.0000
  C   C21       1.0  0.9464206539901097  0.9748613651341245  0.9955253951456344  1.0000
  C   C22       1.0  0.05356187247394929  0.0251374596540828  0.0044753254525318  1.0000
  C   C23       1.0  0.0324079992204105  0.1374504929181342  0.3682819305091983  1.0000
  C   C24       1.0  0.9675923578052734  0.8625519289121256  0.6317179210957493  1.0000
  C   C25       1.0  0.8581433000375184  0.1105383871989432  0.3870418221500459  1.0000
  C   C26       1.0  0.1418570560275541  0.8894635867039825  0.6129580339661161  1.0000
  C   C27       1.0  0.8658610552415738  0.0685656086119764  0.4280994063820459  1.0000
  C   C28       1.0  0.134148208528508  0.9314359250648463  0.571899646958947  1.0000
  C   C29       1.0  0.05430287545303972  0.05398089115210071  0.45037496155410395  1.0000
  C   C30       1.0  0.9457063818108935  0.9460201963764804  0.5496233146288533  1.0000
  C   C31       1.0  0.22820683584468782  0.08184694210306279  0.43069127110172906  1.0000
  C   C32       1.0  0.7717994286848864  0.9181532538236257  0.569304286800346  1.0000
  C   C33       1.0  0.21802055012087612  0.1230455145989211  0.3901906430162967  1.0000
  C   C34       1.0  0.781979779919581  0.8769546747110295  0.6098061044677366  1.0000
  C   C35       1.0  0.46652780918932274  0.631983310814043  0.8641109225966022  1.0000
  C   C36       1.0  0.5334710666103958  0.36801731565121526  0.1358901238265844  1.0000
  C   C37       1.0  0.6418786939385017  0.6077928947438592  0.8851360704189377  1.0000
  C   C38       1.0  0.3581142276355465  0.39220369731683746  0.11486464284863733  1.0000
  C   C39       1.0  0.6335226798058073  0.5678630344101309  0.9270692398531468  1.0000
  C   C40       1.0  0.36647320762641306  0.4321335614037097  0.07293068320613831  1.0000
  C   C41       1.0  0.4477021964369285  0.5518775970867651  0.9489769512430685  1.0000
  C   C42       1.0  0.5522936844891362  0.44811855257883326  0.0510221946581808  1.0000
  C   C43       1.0  0.2725984420544378  0.5767039440034837  0.9286607013305643  1.0000
  C   C44       1.0  0.7274004179601974  0.42329579105484066  0.07133839994193641  1.0000
  C   C45       1.0  0.2819868225458464  0.6163683602166756  0.8863614235151334  1.0000
  C   C46       1.0  0.7180120467477238  0.38363182010034075  0.11363884575002463  1.0000
  C   C47       1.0  0.46511046237216647  0.6333376678638061  0.6318211180554912  1.0000
  C   C48       1.0  0.5348928502721506  0.3666638645335567  0.3681767798597236  1.0000
  C   C49       1.0  0.6395961131409251  0.6073115944412278  0.6131632170612209  1.0000
  C   C50       1.0  0.360407210703535  0.3926912790695028  0.38683583982422226  1.0000
  C   C51       1.0  0.6324340999617774  0.5664373726108067  0.5722363611797335  1.0000
  C   C52       1.0  0.36756773263527265  0.4335655016919946  0.42776191830599  1.0000
  C   C53       1.0  0.44435323553864253  0.5521372122829789  0.549797815743368  1.0000
  C   C54       1.0  0.5556515711258568  0.44786431843277097  0.4502012504061953  1.0000
  C   C55       1.0  0.2701735080727374  0.5790916505753998  0.5694022561998439  1.0000
  C   C56       1.0  0.7298283224940576  0.42090898320118697  0.43059643667656644  1.0000
  C   C57       1.0  0.27973443071880405  0.619179268443034  0.6098701403997994  1.0000
  C   C58       1.0  0.7202703748760513  0.38082046967383576  0.3901293346292364  1.0000
  N   N1        1.0  0.07909917876964562  0.013125154795091  0.49088614043011364  1.0000
  N   N2        1.0  0.9209085872468704  0.9868759335255602  0.5091113583531239  1.0000
  N   N3        1.0  0.42048990613523773  0.5114438331427849  0.9913624331390453  1.0000
  N   N4        1.0  0.5795044806615977  0.4885509735328738  0.008635948896120703  1.0000
  N   N5        1.0  0.4206477592866876  0.5126222231926647  0.5090942642876543  1.0000
  N   N6        1.0  0.5793570455656435  0.48737975633996905  0.4909044065160729  1.0000
  Cl  Cl1       1.0  0.41988857776676974  0.18333640824317135  0.10963052417545073  1.0000
  Cl  Cl2       1.0  0.5801191649979032  0.8166628945949627  0.8903642568102799  1.0000
  O   O1        1.0  0.3071028409685539  0.6979711122905313  0.6909267279328618  1.0000
  O   O2        1.0  0.692885609002566  0.30202906734413654  0.3090708353765947  1.0000
  O   O3        1.0  0.647285147242755  0.690188466680297  0.801850756096407  1.0000
  O   O4        1.0  0.3527122391217219  0.3098117117601475  0.1981499082728959  1.0000
  O   O5        1.0  0.8117966988631978  0.8026658210448898  0.7961987356857989  1.0000
  O   O6        1.0  0.1882080922343121  0.19733750760702415  0.20379757657654812  1.0000
  O   O7        1.0  0.6414039567174256  0.6877919062170789  0.6955666260484606  1.0000
  O   O8        1.0  0.3585874824727568  0.3122114073247957  0.30443246048194794  1.0000
  O   O9        1.0  0.8072638466667498  0.7959773218285519  0.6901087090273422  1.0000
  O   O10       1.0  0.1927409562643732  0.20402376184941318  0.3098899707988139  1.0000
  O   O11       1.0  0.3096644775500367  0.6888199103604717  0.798033852536733  1.0000
  O   O12       1.0  0.6903329107356555  0.31118116393464856  0.20196680281014787  1.0000
  O   O13       1.0  0.47957194858776114  0.7830719073892282  0.7480193927805204  1.0000
  O   O14       1.0  0.5204284036348952  0.2169282748043528  0.2519804813804924  1.0000
  O   O15       1.0  0.14121660438473066  0.8069147298513285  0.696678731232119  1.0000
  O   O16       1.0  0.8587911883989319  0.1930859016465263  0.30332268040855587  1.0000
  O   O17       1.0  0.1469491814129498  0.7996461970501727  0.8038813186405422  1.0000
  O   O18       1.0  0.8530556280243218  0.20035533277603423  0.1961181383436426  1.0000
  O   O19       1.0  0.9794213987569266  0.7099422198224088  0.7473188413985028  1.0000
  O   O20       1.0  0.020580442900971708  0.2900584103959858  0.2526814148163936  1.0000
  O   O21       1.0  0.199118594789546  0.458871827268922  0.44538772675002053  1.0000
  O   O22       1.0  0.8008817594633584  0.5411305954508804  0.5546117340203055  1.0000
  O   O23       1.0  0.6146619453875887  0.9073228266635951  0.9655926283771523  1.0000
  O   O24       1.0  0.3853250174848881  0.09267152537051969  0.0344065611860884  1.0000
  O   O25       1.0  0.7102483513379525  0.0343403301495329  0.07251309396752961  1.0000
  O   O26       1.0  0.2897490649818195  0.9656531151481643  0.9274938914239287  1.0000
  O   O27       1.0  0.3023712859400547  0.9575717289095494  0.5540889221263471  1.0000
  O   O28       1.0  0.6976394617197172  0.0424302545711797  0.44590973159928643  1.0000
