data_image0
_chemical_formula_structural       Zn16H16C96S16Br16O56
_chemical_formula_sum              "Zn16 H16 C96 S16 Br16 O56"
_cell_length_a       19.651409964412775
_cell_length_b       19.744963222715075
_cell_length_c       33.325276987053435
_cell_angle_alpha    78.94893365092139
_cell_angle_beta     79.21203963246964
_cell_angle_gamma    63.98924834581006

_space_group_name_H-M_alt    "P 1"
_space_group_IT_number       1

loop_
  _space_group_symop_operation_xyz
  'x, y, z'

loop_
  _atom_site_type_symbol
  _atom_site_label
  _atom_site_symmetry_multiplicity
  _atom_site_fract_x
  _atom_site_fract_y
  _atom_site_fract_z
  _atom_site_occupancy
  Zn  Zn1       1.0  0.05641750733613551  0.3999515781588839  0.4782706399935392  1.0000
  Zn  Zn2       1.0  0.9849547793736021  0.4832118598410207  0.5603406311231893  1.0000
  Zn  Zn3       1.0  0.0580839497233185  0.5611265398408776  0.4823715961971757  1.0000
  Zn  Zn4       1.0  0.9006905028677535  0.5543207413792431  0.4797539793700452  1.0000
  Zn  Zn5       1.0  0.6933124370112579  0.3500678000305513  0.2718200017556995  1.0000
  Zn  Zn6       1.0  0.6911768670429125  0.18844333165082364  0.2667178910393417  1.0000
  Zn  Zn7       1.0  0.7690771762176994  0.26596782202874175  0.19047343944485107  1.0000
  Zn  Zn8       1.0  0.847803517108858  0.1974054940043429  0.2728447692965048  1.0000
  Zn  Zn9       1.0  0.26514297790242136  0.7657450863916393  0.6899134505109146  1.0000
  Zn  Zn10      1.0  0.3492603052207173  0.6963492438143459  0.7712914384535168  1.0000
  Zn  Zn11      1.0  0.19266989576325239  0.848185256528289  0.7712222816230465  1.0000
  Zn  Zn12      1.0  0.19082147650551917  0.6874351937270474  0.7665962277570985  1.0000
  Zn  Zn13      1.0  0.5587658843868795  0.06191073852969  0.9834469082237548  1.0000
  Zn  Zn14      1.0  0.4027105237933455  0.05269306432692389  0.9775467297954421  1.0000
  Zn  Zn15      1.0  0.5558885876025812  0.9005804020573012  0.9782709810545854  1.0000
  Zn  Zn16      1.0  0.48262380631406626  0.9852221095489426  0.06053077611273496  1.0000
  H   H1        1.0  0.9535497175865546  0.24958643381521706  0.3514488366915458  1.0000
  H   H2        1.0  0.7464586832001316  0.45550376344944976  0.350388761055477  1.0000
  H   H3        1.0  0.00014201889386099964  0.29873955332083574  0.39967180974903027  1.0000
  H   H4        1.0  0.09681315790345478  0.5966388873216173  0.7002048797615927  1.0000
  H   H5        1.0  0.20156236221291826  0.7009662715378155  0.5975267490941717  1.0000
  H   H6        1.0  0.049764420642489406  0.5501797942343815  0.6507895896435443  1.0000
  H   H7        1.0  0.5497370175027498  0.05020646101647235  0.15308779694947816  1.0000
  H   H8        1.0  0.6523330164237535  0.15318582599019948  0.0486160621816509  1.0000
  H   H9        1.0  0.5995140583097225  0.09836081782992073  0.2002190706871048  1.0000
  H   H10       1.0  0.5022296251736265  0.7949340706404229  0.8985264828590758  1.0000
  H   H11       1.0  0.2965833464989061  0.0022077147313978823  0.8990863650141635  1.0000
  H   H12       1.0  0.45146434920098955  0.7497393389904446  0.850394538171315  1.0000
  H   H13       1.0  0.8088126707883987  0.5278204472830978  0.4183303783661287  1.0000
  H   H14       1.0  0.13682894902595422  0.6371060404989493  0.5264167264459516  1.0000
  H   H15       1.0  0.7237167034371907  0.22284250149485268  0.1134266033951477  1.0000
  H   H16       1.0  0.2219059361182047  0.9414457956359855  0.8314886651220945  1.0000
  C   C1        1.0  0.0618556945534792  0.316342764117202  0.5619033157482605  1.0000
  C   C2        1.0  0.0702480225282045  0.5704882175689007  0.5691093975098909  1.0000
  C   C3        1.0  0.1835207297164061  0.4400000829780239  0.4386290168485871  1.0000
  C   C4        1.0  0.9365901044857879  0.6839324514261591  0.4387252961497694  1.0000
  C   C5        1.0  0.9296741331460368  0.4305244531174139  0.430565761652602  1.0000
  C   C6        1.0  0.8167767041056778  0.560697693619957  0.5623277471188572  1.0000
  C   C7        1.0  0.5661323275173303  0.3099457785582941  0.31117373939537873  1.0000
  C   C8        1.0  0.6817124011115112  0.17957106790075983  0.1801083011551583  1.0000
  C   C9        1.0  0.6894087928917614  0.4330600757464608  0.18793531480576323  1.0000
  C   C10       1.0  0.9349359975671944  0.18815531437245897  0.18960021872565846  1.0000
  C   C11       1.0  0.8185667490688288  0.3210361586674324  0.31966323580015654  1.0000
  C   C12       1.0  0.8124671907761609  0.06651885308480125  0.3115641723724565  1.0000
  C   C13       1.0  0.43300260875472674  0.6896780481534036  0.688186390709518  1.0000
  C   C14       1.0  0.3188247433954672  0.8209534653003204  0.8193765595127402  1.0000
  C   C15       1.0  0.18848783538961558  0.9329414284573616  0.6882969159302518  1.0000
  C   C16       1.0  0.06582553378047609  0.8094715813935454  0.8111781308112214  1.0000
  C   C17       1.0  0.18050650059690554  0.6796072113563483  0.6804252264058661  1.0000
  C   C18       1.0  0.3130820394229161  0.5660530127382231  0.8110402880007825  1.0000
  C   C19       1.0  0.4373024020317899  0.18375324217392836  0.9385566505123037  1.0000
  C   C20       1.0  0.4313118612367218  0.9295452882011259  0.9302276102854775  1.0000
  C   C21       1.0  0.6831969544809695  0.9402777182762493  0.9387012371106563  1.0000
  C   C22       1.0  0.5607209426653696  0.817351250526677  0.062003206853866316  1.0000
  C   C23       1.0  0.5689596925006627  0.0706396893817071  0.0695624461387894  1.0000
  C   C24       1.0  0.31601689966276325  0.061659209718413904  0.060757328829943405  1.0000
  C   C25       1.0  0.900199835498462  0.40396703615230917  0.40207209817882733  1.0000
  C   C26       1.0  0.8472074828602558  0.3499063681435716  0.3482247891070926  1.0000
  C   C27       1.0  0.8275964162210842  0.44904582480503286  0.3880025742488087  1.0000
  C   C28       1.0  0.9192416240707573  0.3049542735030925  0.36194290544934654  1.0000
  C   C29       1.0  0.8020681304578403  0.42101820214952557  0.36105488074456105  1.0000
  C   C30       1.0  0.944750930333569  0.3322294195580045  0.3885356721842896  1.0000
  C   C31       1.0  0.09900333029943197  0.5990739182786556  0.5968990868230006  1.0000
  C   C32       1.0  0.15192214056192202  0.6514119786667152  0.6515277806928097  1.0000
  C   C33       1.0  0.14236119515627624  0.6422306240817903  0.5814537153891024  1.0000
  C   C34       1.0  0.10896460544109492  0.6087784521071529  0.6670761256556972  1.0000
  C   C35       1.0  0.1683533738867737  0.6679595200992381  0.6092905240449014  1.0000
  C   C36       1.0  0.08313595103677329  0.5832573585332738  0.6397782516443016  1.0000
  C   C37       1.0  0.3051999257180356  0.454356292396362  0.40064820854880884  1.0000
  C   C38       1.0  0.44460642922157234  0.2954248991776112  0.34945972041677464  1.0000
  C   C39       1.0  0.25844133023213095  0.4160961232914388  0.4139004708059417  1.0000
  C   C40       1.0  0.49126318209989256  0.3337011818099215  0.3361179846429252  1.0000
  C   C41       1.0  0.3767368102253243  0.339398792034764  0.3729267937617138  1.0000
  C   C42       1.0  0.3730064295455335  0.4104714834383146  0.3770965614789574  1.0000
  C   C43       1.0  0.7254351303208607  0.5760498250526283  0.6303504824038058  1.0000
  C   C44       1.0  0.5243016618275645  0.6738813352316555  0.6201168535658681  1.0000
  C   C45       1.0  0.7426371015090893  0.5850323410031776  0.5877490890824149  1.0000
  C   C46       1.0  0.5072330483518428  0.6649731422001959  0.6627169578086339  1.0000
  C   C47       1.0  0.6038866652929471  0.6414389278999837  0.608303551174167  1.0000
  C   C48       1.0  0.6458928848351206  0.6084057849480614  0.6421713513984812  1.0000
  C   C49       1.0  0.0767310527322707  0.22465652319416315  0.6299890298407859  1.0000
  C   C50       1.0  0.1738790639357077  0.024446819431297184  0.6201619577940747  1.0000
  C   C51       1.0  0.0859011614205443  0.2421778758641224  0.5873875990142992  1.0000
  C   C52       1.0  0.1646792671523798  0.007103291671448584  0.6627620773626788  1.0000
  C   C53       1.0  0.14183113551700896  0.10377623077225448  0.6081746675825171  1.0000
  C   C54       1.0  0.108846299053468  0.14534268955515017  0.6419460182089196  1.0000
  C   C55       1.0  0.8425808277155155  0.8015433999062791  0.3966998941506859  1.0000
  C   C56       1.0  0.9069871578182216  0.948298021275171  0.353026071066239  1.0000
  C   C57       1.0  0.9108298934705558  0.7583720798313962  0.4135803697715589  1.0000
  C   C58       1.0  0.8386163603355143  0.9915065675892689  0.3362939185260956  1.0000
  C   C59       1.0  0.9085270134218959  0.8789817454893053  0.37503106633010225  1.0000
  C   C60       1.0  0.841213937956411  0.8707026566138932  0.3745934966026283  1.0000
  C   C61       1.0  0.6534884451915063  0.15239919076038425  0.1512578205954824  1.0000
  C   C62       1.0  0.5983165459214277  0.09896132638760949  0.0980962366853575  1.0000
  C   C63       1.0  0.6686238492426213  0.16827419549608877  0.1078861073928294  1.0000
  C   C64       1.0  0.5829786097522175  0.08309273615987671  0.14101714046830688  1.0000
  C   C65       1.0  0.6406044227590257  0.14101237816124268  0.081784995137788  1.0000
  C   C66       1.0  0.6104873414643066  0.10975827674262459  0.1669251219263188  1.0000
  C   C67       1.0  0.6735359200736895  0.5250617413008527  0.11982539289685694  1.0000
  C   C68       1.0  0.5763203082852755  0.7251451818183553  0.13010065931100462  1.0000
  C   C69       1.0  0.6648532424432076  0.5072708750914643  0.16241957247182634  1.0000
  C   C70       1.0  0.5850502240549744  0.7429933897211283  0.08753197995854836  1.0000
  C   C71       1.0  0.6086029189204112  0.6457427363936574  0.14190042646007578  1.0000
  C   C72       1.0  0.6413029277337188  0.6044570552584004  0.10801263671142888  1.0000
  C   C73       1.0  0.082618692215803  0.1233924412541185  0.1780323804918282  1.0000
  C   C74       1.0  0.1683194545932736  0.1261527515915759  0.072371928713892  1.0000
  C   C75       1.0  0.0102280031837623  0.1624535320824663  0.1652671554825602  1.0000
  C   C76       1.0  0.24065365905399722  0.0871773964007048  0.0851518563086273  1.0000
  C   C77       1.0  0.1106851363749115  0.1392741059147653  0.1062266491795469  1.0000
  C   C78       1.0  0.1402718153851481  0.11005106810708304  0.14420998937023913  1.0000
  C   C79       1.0  0.3463732597845919  0.8498188105465727  0.8477288668590292  1.0000
  C   C80       1.0  0.4022084209206724  0.9013648583646583  0.9015140509098742  1.0000
  C   C81       1.0  0.3018902134674804  0.9220734455034787  0.8616287632814447  1.0000
  C   C82       1.0  0.446606817622289  0.8296793986888101  0.8879431111546623  1.0000
  C   C83       1.0  0.330762545435725  0.9468896091648913  0.8885057016033002  1.0000
  C   C84       1.0  0.41845423857429154  0.804882270978119  0.8613981948951803  1.0000
  C   C85       1.0  0.4072603365317918  0.4483147978979148  0.8529392415192874  1.0000
  C   C86       1.0  0.3428321944313453  0.3017177608460314  0.8969327078091354  1.0000
  C   C87       1.0  0.3390215065053965  0.49142545757059247  0.8360784233919533  1.0000
  C   C88       1.0  0.41118010563668855  0.258624125474192  0.9136901273613206  1.0000
  C   C89       1.0  0.34135030602896427  0.3708957973771446  0.8747583731321598  1.0000
  C   C90       1.0  0.4087080559463772  0.37916150249555597  0.8750959522683317  1.0000
  C   C91       1.0  0.9443688098417269  0.7950156309851337  0.8495845466209958  1.0000
  C   C92       1.0  0.8050072868542842  0.9543552826547378  0.9004706664287099  1.0000
  C   C93       1.0  0.991086226625967  0.8332539476062382  0.836132086257038  1.0000
  C   C94       1.0  0.7582021866772379  0.9162474807938069  0.9138606684827906  1.0000
  C   C95       1.0  0.872842126878922  0.9101945448168964  0.877033877431522  1.0000
  C   C96       1.0  0.8765089080133777  0.8390702647570478  0.8730275978681803  1.0000
  S   S1        1.0  0.2976707513246524  0.32626275328782117  0.3975990096273422  1.0000
  S   S2        1.0  0.4521119398142801  0.42354834137448444  0.3523746613625392  1.0000
  S   S3        1.0  0.6613694797880355  0.6329732783486147  0.5621815532500989  1.0000
  S   S4        1.0  0.588424288227351  0.6169603103140845  0.6882961542015735  1.0000
  S   S5        1.0  0.13373406362226348  0.16141224985568664  0.5619777350585338  1.0000
  S   S6        1.0  0.116927906820564  0.08781338694198135  0.6881635131065735  1.0000
  S   S7        1.0  0.973316976866684  0.8025191774540872  0.40233413851667177  1.0000
  S   S8        1.0  0.7763011914902052  0.9472689086562409  0.347387751542243  1.0000
  S   S9        1.0  0.6171385814514564  0.5878342612681348  0.18800629313538764  1.0000
  S   S10       1.0  0.6326862774712438  0.6624775257756639  0.06191493906749198  1.0000
  S   S11       1.0  0.012819873032484  0.18270543754159263  0.11181043376131329  1.0000
  S   S12       1.0  0.23816962670807842  0.06673137564563089  0.1385831151739438  1.0000
  S   S13       1.0  0.2765268069920168  0.4473109105605602  0.8474176294814413  1.0000
  S   S14       1.0  0.4735863538169482  0.3027734937168488  0.9023950801323224  1.0000
  S   S15       1.0  0.9519180785591317  0.9231989927869149  0.8522838178311147  1.0000
  S   S16       1.0  0.7972937797989845  0.82624570683582  0.8978002721413602  1.0000
  Br  Br1       1.0  0.2865117921411127  0.551502879656212  0.4110270922883927  1.0000
  Br  Br2       1.0  0.4637931494519165  0.19791367236845048  0.33947112674855623  1.0000
  Br  Br3       1.0  0.7943737055727098  0.52800411644138  0.6697864408457832  1.0000
  Br  Br4       1.0  0.4555063430182287  0.7217779259301408  0.5806115482992666  1.0000
  Br  Br5       1.0  0.0286749908359951  0.2927845908673774  0.6693856751281969  1.0000
  Br  Br6       1.0  0.2215323225377404  0.9560960743631951  0.5808652107201056  1.0000
  Br  Br7       1.0  0.7595513271442869  0.7765357678672372  0.40081399585398714  1.0000
  Br  Br8       1.0  0.9902738348131235  0.9730609936351513  0.3486229282473872  1.0000
  Br  Br9       1.0  0.720708621736776  0.4569803293751349  0.08036708639684065  1.0000
  Br  Br10      1.0  0.5288056185606465  0.7931907352076946  0.1695624057760696  1.0000
  Br  Br11      1.0  0.10709307585195661  0.08973414578694874  0.2322835776536465  1.0000
  Br  Br12      1.0  0.1438637529568965  0.1599476263765638  0.0181622263222891  1.0000
  Br  Br13      1.0  0.4904224739412228  0.4732113647427666  0.8486513367761646  1.0000
  Br  Br14      1.0  0.25968114469047515  0.27675660276653963  0.9013768453662365  1.0000
  Br  Br15      1.0  0.9635417414590393  0.697422353835634  0.8396586695119836  1.0000
  Br  Br16      1.0  0.7862278588776731  0.05175142913513751  0.9104391790251469  1.0000
  O   O1        1.0  0.0006225110449876001  0.49872164733024954  0.4998507974941617  1.0000
  O   O2        1.0  0.07798103002080842  0.3147472493292723  0.5228747953369677  1.0000
  O   O3        1.0  0.0324437787522882  0.5316189989855643  0.5849235629650523  1.0000
  O   O4        1.0  0.1548687017124522  0.5057317311485434  0.4503460114424627  1.0000
  O   O5        1.0  0.027532085308983798  0.3750966670326931  0.5806070736082987  1.0000
  O   O6        1.0  0.1538089389584911  0.3919190892837107  0.4461089517015325  1.0000
  O   O7        1.0  0.0854595068671742  0.5870293916462044  0.5298249905942995  1.0000
  O   O8        1.0  0.0031800680240792003  0.6586005577240853  0.4501814793651846  1.0000
  O   O9        1.0  0.8859176393090706  0.49668694104393324  0.44242435605087843  1.0000
  O   O10       1.0  0.8915236151902945  0.6511219113194359  0.4470080639825865  1.0000
  O   O11       1.0  0.9951753792506111  0.3880738418149718  0.4419257661368761  1.0000
  O   O12       1.0  0.8762880284170791  0.5268588506440679  0.5808265529575678  1.0000
  O   O13       1.0  0.8144843761778305  0.5762031786069316  0.5232482673261174  1.0000
  O   O14       1.0  0.7491610617834253  0.25097892001257094  0.2505292196282483  1.0000
  O   O15       1.0  0.5953528880656407  0.358388685750327  0.3035982953811143  1.0000
  O   O16       1.0  0.6662995735122692  0.16356761898991592  0.21857674225986296  1.0000
  O   O17       1.0  0.7251165860085891  0.3740959507810969  0.16940701795573426  1.0000
  O   O18       1.0  0.5949039984795377  0.24425889296706776  0.2994760904314901  1.0000
  O   O19       1.0  0.6723607239284776  0.43482839043403476  0.2269057858922352  1.0000
  O   O20       1.0  0.7210774992247265  0.21859174627986286  0.16416259222208401  1.0000
  O   O21       1.0  0.8775051429002048  0.22212500822057274  0.16891887130388739  1.0000
  O   O22       1.0  0.8625650211375913  0.25538242433040637  0.30903154931188237  1.0000
  O   O23       1.0  0.9329449235654154  0.17492188483889487  0.22861949054877334  1.0000
  O   O24       1.0  0.7528585261487493  0.36387008423113787  0.3082847373944233  1.0000
  O   O25       1.0  0.7462177508594152  0.09166313144499569  0.2997925443263654  1.0000
  O   O26       1.0  0.8572274211068702  0.0995293793282741  0.3041451121076335  1.0000
  O   O27       1.0  0.2493815083342454  0.7497684308665454  0.7503635564893331  1.0000
  O   O28       1.0  0.3738308081263497  0.7239403489833689  0.6694488957871056  1.0000
  O   O29       1.0  0.361676771734686  0.756116874962572  0.8078267391808326  1.0000
  O   O30       1.0  0.17209004035903766  0.9346258371853012  0.7273163538527427  1.0000
  O   O31       1.0  0.4351223354571658  0.6741346804754828  0.7272217929792504  1.0000
  O   O32       1.0  0.2227685802147974  0.87422442273855  0.6696426580348884  1.0000
  O   O33       1.0  0.2518188270150858  0.8641197265574971  0.8078754493234115  1.0000
  O   O34       1.0  0.0953405006899075  0.8578118563386922  0.80374713862593  1.0000
  O   O35       1.0  0.1649868472200069  0.6624262361299458  0.7188986056422664  1.0000
  O   O36       1.0  0.09450710970101991  0.7440614954944279  0.7991909643546863  1.0000
  O   O37       1.0  0.2182523071796467  0.7186941488198639  0.6641838683128043  1.0000
  O   O38       1.0  0.3581921780746741  0.5987945280373167  0.8028801077932641  1.0000
  O   O39       1.0  0.2464788441889567  0.5912641447823006  0.7997008093222463  1.0000
  O   O40       1.0  0.5009822649586084  0.9990847792643083  3.716208003364852e-05  1.0000
  O   O41       1.0  0.503692486657087  0.1585824533610207  0.9501296194294823  1.0000
  O   O42       1.0  0.3877689027231952  0.9950137281041618  0.941203366730896  1.0000
  O   O43       1.0  0.653807126876174  0.8919633596387867  0.9462502753072856  1.0000
  O   O44       1.0  0.3924150023291446  0.15085079680165592  0.9462596788842035  1.0000
  O   O45       1.0  0.6545961618012299  0.0059948063420947285  0.9502975126386134  1.0000
  O   O46       1.0  0.49704561185538415  0.8861683054776324  0.9414688318369498  1.0000
  O   O47       1.0  0.5774897713806126  0.8153585557036177  0.023038684701290897  1.0000
  O   O48       1.0  0.5302194851759054  0.03263550980656047  0.0860880964982371  1.0000
  O   O49       1.0  0.5257175865227808  0.8761635183237996  0.08058297114332906  1.0000
  O   O50       1.0  0.5849044392050474  0.0867810544464191  0.031017090964773803  1.0000
  O   O51       1.0  0.3176156341695275  0.0752979800678446  0.021772014387522607  1.0000
  O   O52       1.0  0.37338744681802893  0.027696683396314387  0.0813853004110427  1.0000
  O   O53       1.0  0.7811948969198783  0.5182508000547369  0.3993133799537603  1.0000
  O   O54       1.0  0.16015812714260141  0.6599588751312739  0.5409324172096959  1.0000
  O   O55       1.0  0.7090010894481154  0.20877055341554737  0.09019451563043651  1.0000
  O   O56       1.0  0.23233982206296125  0.9687744673234063  0.8502099050738039  1.0000
