data_image0
_chemical_formula_structural       Cu2H26C22N10O8
_chemical_formula_sum              "Cu2 H26 C22 N10 O8"
_cell_length_a       7.861681978712667
_cell_length_b       8.54726867005617
_cell_length_c       11.228926780221915
_cell_angle_alpha    69.43164252235125
_cell_angle_beta     77.38509413549615
_cell_angle_gamma    66.19961682138545

_space_group_name_H-M_alt    "P 1"
_space_group_IT_number       1

loop_
  _space_group_symop_operation_xyz
  'x, y, z'

loop_
  _atom_site_type_symbol
  _atom_site_label
  _atom_site_symmetry_multiplicity
  _atom_site_fract_x
  _atom_site_fract_y
  _atom_site_fract_z
  _atom_site_occupancy
  Cu  Cu1       1.0  0.5036035099931695  0.8602927653646689  0.6007415742635942  1.0000
  Cu  Cu2       1.0  0.49639806940993486  0.13971281361450139  0.39925297151091127  1.0000
  H   H1        1.0  0.8986195167753978  0.09457287752805851  0.11108577816057157  1.0000
  H   H2        1.0  0.10137694384714989  0.905422003975069  0.8889195490654203  1.0000
  H   H3        1.0  0.944180696971195  0.6366321833355073  0.9112608569712961  1.0000
  H   H4        1.0  0.055820481118821895  0.3633640405218231  0.08874605658902365  1.0000
  H   H5        1.0  0.7786303522128578  0.7514488766471672  0.7953697646238213  1.0000
  H   H6        1.0  0.22136461449945696  0.24855002393619696  0.2046382761753307  1.0000
  H   H7        1.0  0.3038086156411737  0.5820483406250788  0.6904974947113871  1.0000
  H   H8        1.0  0.6961977691927429  0.4179478771094908  0.3095032767403865  1.0000
  H   H9        1.0  0.4263567844585623  0.1140897620902663  0.9398774920265538  1.0000
  H   H10       1.0  0.5736394788369239  0.8859091318068337  0.06012500790200895  1.0000
  H   H11       1.0  0.3863470816815918  0.18716145936607384  0.7768493281584908  1.0000
  H   H12       1.0  0.6136490722501762  0.8128307433261882  0.22315498381558999  1.0000
  H   H13       1.0  0.21526370678189716  0.2905347002593431  0.8880003447338326  1.0000
  H   H14       1.0  0.784734166591278  0.7094668726364618  0.1120029700339913  1.0000
  H   H15       1.0  0.9975172735833907  0.5566651552565033  0.37289257601832304  1.0000
  H   H16       1.0  0.0024778880433017807  0.4433471036772192  0.6270931490870025  1.0000
  H   H17       1.0  0.9952664047985711  0.7483735631440425  0.23920444243955785  1.0000
  H   H18       1.0  0.0047331778104152036  0.25163736964415767  0.7607898644350896  1.0000
  H   H19       1.0  0.2694872641683901  0.6108666310452266  0.3813388050857612  1.0000
  H   H20       1.0  0.7305143061630731  0.3891389387684897  0.6186486200781544  1.0000
  H   H21       1.0  0.10751626567981995  0.6842209776428803  0.502638462959915  1.0000
  H   H22       1.0  0.8924947091145585  0.3157698729101385  0.4973514656505315  1.0000
  H   H23       1.0  0.012511755443902902  0.004158940240486701  0.3521750128342092  1.0000
  H   H24       1.0  0.9874897191313042  0.9958399521165762  0.6478249052911024  1.0000
  H   H25       1.0  0.1884184904867823  0.9280512882221289  0.2373202928171169  1.0000
  H   H26       1.0  0.8115763859942858  0.0719583136686879  0.7626813284864441  1.0000
  C   C1        1.0  0.8236549723619221  0.2069076445623494  0.03460205156785887  1.0000
  C   C2        1.0  0.1763425988563014  0.7930912541053133  0.9654038082533488  1.0000
  C   C3        1.0  0.6031293160394499  0.33243037033198425  0.9012272982933424  1.0000
  C   C4        1.0  0.39687316090165586  0.6675658491304547  0.09877585454903226  1.0000
  C   C5        1.0  0.6409590589129835  0.49186405212044815  0.8505123049786433  1.0000
  C   C6        1.0  0.35904150125965373  0.5081268095324206  0.1494890177725594  1.0000
  C   C7        1.0  0.7873347402275853  0.49818808795547664  0.9021388627080712  1.0000
  C   C8        1.0  0.2126631342795449  0.5018134860860074  0.09786534213606755  1.0000
  C   C9        1.0  0.4129969626888227  0.5267202047826275  0.7543282649827886  1.0000
  C   C10       1.0  0.5870127234600774  0.47327066047643024  0.24567343503251493  1.0000
  C   C11       1.0  0.364879817668097  0.23125766799773123  0.8611858558926854  1.0000
  C   C12       1.0  0.6351203591899761  0.7687412298999167  0.13881871302689316  1.0000
  C   C13       1.0  0.7945208640424396  0.8066128369799089  0.39592319429749523  1.0000
  C   C14       1.0  0.20547681086971886  0.19339274716418237  0.6040764030965775  1.0000
  C   C15       1.0  0.9829824487349869  0.697696288567343  0.3438101852525862  1.0000
  C   C16       1.0  0.017013221445367304  0.30231464136599584  0.6561829427073748  1.0000
  C   C17       1.0  0.13586234539415898  0.7142024787430972  0.39833410264026986  1.0000
  C   C18       1.0  0.8641391189754445  0.2857964033028253  0.6016578047981298  1.0000
  C   C19       1.0  0.14932405245639307  0.8992860935551833  0.3409156800454055  1.0000
  C   C20       1.0  0.8506753159609701  0.10071146140606402  0.6590858112255802  1.0000
  C   C21       1.0  0.2847950215693943  0.9289564977185594  0.4002097534279372  1.0000
  C   C22       1.0  0.7152094555677024  0.07103437137190134  0.5997963085432545  1.0000
  N   N1        1.0  0.8748746811729335  0.35082794836331743  0.9963752825119343  1.0000
  N   N2        1.0  0.12512338612543067  0.6491696087014631  0.0036281893243455083  1.0000
  N   N3        1.0  0.6910599062025542  0.1851702054994675  0.991906338217099  1.0000
  N   N4        1.0  0.308941764565752  0.8148246733179364  0.008095517129319873  1.0000
  N   N5        1.0  0.8451748561429824  0.6371313948488792  0.8636093834704609  1.0000
  N   N6        1.0  0.15481999553583142  0.36286080880123706  0.13639601899259193  1.0000
  N   N7        1.0  0.5199601449962685  0.611684446869866  0.7578756976947929  1.0000
  N   N8        1.0  0.4800420252540578  0.3883090937817002  0.24212643989567076  1.0000
  N   N9        1.0  0.45664377979694865  0.3581673786355141  0.8385916304077838  1.0000
  N   N10       1.0  0.5433591932243048  0.6418274992240428  0.16140913444966296  1.0000
  O   O1        1.0  0.7282610051986326  0.7283935933984509  0.5037720203270909  1.0000
  O   O2        1.0  0.2717450267927576  0.2716280645499936  0.4962326665151835  1.0000
  O   O3        1.0  0.7235525275048643  0.9701167409884875  0.33087291234697597  1.0000
  O   O4        1.0  0.2764440129985601  0.029884801931743303  0.6691074608490908  1.0000
  O   O5        1.0  0.3358844232054142  0.8244757648278452  0.5089566587988158  1.0000
  O   O6        1.0  0.6641484115472381  0.17551241927288433  0.491035968155252  1.0000
  O   O7        1.0  0.3352915966102827  0.06200317730977641  0.3353358528573054  1.0000
  O   O8        1.0  0.664677130973054  0.9380171312973289  0.6646704778142621  1.0000
