data_image0
_chemical_formula_structural       Cd2H22C26N6O14
_chemical_formula_sum              "Cd2 H22 C26 N6 O14"
_cell_length_a       7.930099365104684
_cell_length_b       10.091036946734658
_cell_length_c       10.486663475799348
_cell_angle_alpha    94.62049493087993
_cell_angle_beta     110.13484053811156
_cell_angle_gamma    109.79980600780964

_space_group_name_H-M_alt    "P 1"
_space_group_IT_number       1

loop_
  _space_group_symop_operation_xyz
  'x, y, z'

loop_
  _atom_site_type_symbol
  _atom_site_label
  _atom_site_symmetry_multiplicity
  _atom_site_fract_x
  _atom_site_fract_y
  _atom_site_fract_z
  _atom_site_occupancy
  Cd  Cd1       1.0  0.21727461581787116  0.6520951033299769  0.3098882087976662  1.0000
  Cd  Cd2       1.0  0.7827258974950126  0.3478994744506281  0.6901226042767876  1.0000
  H   H1        1.0  0.08153265300368412  0.7404487577441755  0.503166626140306  1.0000
  H   H2        1.0  0.9184623066288253  0.2595544956991489  0.49683734540512586  1.0000
  H   H3        1.0  0.007584230154364513  0.8121079831723251  0.3746553692065432  1.0000
  H   H4        1.0  0.9924298269009598  0.1879103184789415  0.6253558196644846  1.0000
  H   H5        1.0  0.5122217981113194  0.4368253014430437  0.7948261176726419  1.0000
  H   H6        1.0  0.4877667379557096  0.5631802015858016  0.20517973181688376  1.0000
  H   H7        1.0  0.7441209194335131  0.5440907813651563  0.8979466177308382  1.0000
  H   H8        1.0  0.2558719008846921  0.455907110687555  0.10206211159999158  1.0000
  H   H9        1.0  0.6293474951386244  0.38758654826918365  0.039833977520828484  1.0000
  H   H10       1.0  0.37065302807715744  0.6124221636894873  0.9601812334110492  1.0000
  H   H11       1.0  0.6787514643118441  0.08893702438931679  0.3075594144689973  1.0000
  H   H12       1.0  0.3212185500036212  0.9110457879936007  0.6924337159947527  1.0000
  H   H13       1.0  0.1491755428600568  0.9777102806406289  0.944314302529456  1.0000
  H   H14       1.0  0.850819523602432  0.022293867631894716  0.05566679590420871  1.0000
  H   H15       1.0  0.6076080278023286  0.8887890887504427  0.4930395113123964  1.0000
  H   H16       1.0  0.3924518400218703  0.1112091484627129  0.5069620616923132  1.0000
  H   H17       1.0  0.9169747288230427  0.7682983798346257  0.8623565348771578  1.0000
  H   H18       1.0  0.08304200852700205  0.23168735185198838  0.1376535787920972  1.0000
  H   H19       1.0  0.33642023734989124  0.49000059567327264  0.5676091352521411  1.0000
  H   H20       1.0  0.6635846946126803  0.5100134345268827  0.43239887690147316  1.0000
  H   H21       1.0  0.9025972112922888  0.9512727521443838  0.7134185349905523  1.0000
  H   H22       1.0  0.0974611232993823  0.0487103022219983  0.2865811073702744  1.0000
  C   C1        1.0  0.5672515240844404  0.2844473294174961  0.06453891259292986  1.0000
  C   C2        1.0  0.4327416505552647  0.7155548617914887  0.9354655584325259  1.0000
  C   C3        1.0  0.8821484930990663  0.3620004157043866  0.26886876982207747  1.0000
  C   C4        1.0  0.11784737316501993  0.6379941623631639  0.7311363580074612  1.0000
  C   C5        1.0  0.6776892299728632  0.2505463117464473  0.18289618861666668  1.0000
  C   C6        1.0  0.3222988117515796  0.749446162487814  0.8171072045282698  1.0000
  C   C7        1.0  0.5959557091021992  0.11749838696077572  0.215231175673793  1.0000
  C   C8        1.0  0.40402157601605654  0.8824886811423345  0.7847609407366322  1.0000
  C   C9        1.0  0.2972962660134399  0.0521023776060474  0.009999820571934529  1.0000
  C   C10       1.0  0.7026939992075043  0.9478964320765543  0.9899855250397209  1.0000
  C   C11       1.0  0.31049157153098156  0.879582939663294  0.1679529602822356  1.0000
  C   C12       1.0  0.6894690108059507  0.12040737762292508  0.8320180862643766  1.0000
  C   C13       1.0  0.6319518242488584  0.6135745566256148  0.7242293258601933  1.0000
  C   C14       1.0  0.3680530970974374  0.38641992807389164  0.275775621361781  1.0000
  C   C15       1.0  0.3812059298196147  0.1844746929834002  0.9797808826440288  1.0000
  C   C16       1.0  0.6187878219181115  0.8155306784327366  0.020215420829686078  1.0000
  C   C17       1.0  0.6179839101522048  0.81396733683205  0.5618207804559033  1.0000
  C   C18       1.0  0.38206219400656477  0.18602994074985446  0.43817899429546253  1.0000
  C   C19       1.0  0.7904623957649336  0.7465449904597606  0.7658164711073283  1.0000
  C   C20       1.0  0.20956459751274542  0.2534460409982274  0.23419140046552658  1.0000
  C   C21       1.0  0.4675105171549988  0.589534493651101  0.602896674519542  1.0000
  C   C22       1.0  0.532505577366784  0.41047616094464706  0.3971102518217791  1.0000
  C   C23       1.0  0.4050731283395947  0.019254368893513202  0.130080396961155  1.0000
  C   C24       1.0  0.5949018102862668  0.9807358886518005  0.8699010735565977  1.0000
  C   C25       1.0  0.7823191678726573  0.847019479397993  0.6835719082685827  1.0000
  C   C26       1.0  0.2177260579248994  0.152968060573798  0.31642952224690646  1.0000
  N   N1        1.0  0.2744520021349289  0.22074660388249606  0.8545435953353645  1.0000
  N   N2        1.0  0.7255506314113944  0.7792804711301144  0.14546537868865522  1.0000
  N   N3        1.0  0.6435470264626915  0.5046392273470559  0.7975847213872811  1.0000
  N   N4        1.0  0.3564446248473843  0.4953619151932216  0.20242221685171555  1.0000
  N   N5        1.0  0.46336534135097907  0.6873221744156268  0.5235281423940207  1.0000
  N   N6        1.0  0.5366608768400808  0.3126829505235237  0.47647822383570565  1.0000
  O   O1        1.0  0.9434366524945477  0.4595341215093642  0.2052907397809137  1.0000
  O   O2        1.0  0.056553959925587066  0.5404648669787165  0.7947167241587748  1.0000
  O   O3        1.0  0.9776594802723012  0.3553113275232889  0.3901026489398163  1.0000
  O   O4        1.0  0.022342154685958366  0.6446755557220741  0.6098970145376158  1.0000
  O   O5        1.0  0.42622408280985974  0.8381512257337179  0.2591270696301464  1.0000
  O   O6        1.0  0.5737213730607351  0.161829499694619  0.7408457759400875  1.0000
  O   O7        1.0  0.12752082035240866  0.812878249626664  0.11173306391651035  1.0000
  O   O8        1.0  0.8724428482438145  0.18712070883429993  0.8882375922571129  1.0000
  O   O9        1.0  0.1583824322236609  0.12104853286816561  0.7509983714098851  1.0000
  O   O10       1.0  0.8416183180489512  0.8789915280768454  0.24900493272094337  1.0000
  O   O11       1.0  0.3064475687430742  0.3506073625454817  0.8549263538239984  1.0000
  O   O12       1.0  0.6935581969985307  0.6494219750443976  0.1450978363674693  1.0000
  O   O13       1.0  0.11990692784380735  0.7931215374661208  0.4333630563409869  1.0000
  O   O14       1.0  0.8800945253647185  0.20688383121083836  0.5666423945853367  1.0000
