data_image0
_chemical_formula_structural       Cu2H16C24N4Cl2O8
_chemical_formula_sum              "Cu2 H16 C24 N4 Cl2 O8"
_cell_length_a       3.6227365809715253
_cell_length_b       9.920459016449161
_cell_length_c       16.530828412178412
_cell_angle_alpha    89.99793043361281
_cell_angle_beta     92.55243244917301
_cell_angle_gamma    90.00285543459046

_space_group_name_H-M_alt    "P 1"
_space_group_IT_number       1

loop_
  _space_group_symop_operation_xyz
  'x, y, z'

loop_
  _atom_site_type_symbol
  _atom_site_label
  _atom_site_symmetry_multiplicity
  _atom_site_fract_x
  _atom_site_fract_y
  _atom_site_fract_z
  _atom_site_occupancy
  Cu  Cu1       1.0  0.8649241907437356  0.027751930444892995  0.2762407304701142  1.0000
  Cu  Cu2       1.0  0.3649208499326591  0.9722647241457095  0.7762374436317928  1.0000
  H   H1        1.0  0.5123692790029324  0.28805089261310707  0.2544752729470971  1.0000
  H   H2        1.0  0.01233442110157771  0.7119516869304761  0.7544662305855921  1.0000
  H   H3        1.0  0.7099627769401805  0.38611794569797536  0.6340219779487413  1.0000
  H   H4        1.0  0.2099147122162606  0.6138826123509346  0.1340261309091062  1.0000
  H   H5        1.0  0.5854293501617319  0.7490668616116165  0.2109159722819953  1.0000
  H   H6        1.0  0.08547153131473811  0.250936731555548  0.7109067299374415  1.0000
  H   H7        1.0  0.8149915366154376  0.4797595637539587  0.41297552050998115  1.0000
  H   H8        1.0  0.31489222936937733  0.5202315264899865  0.9129727882688244  1.0000
  H   H9        1.0  0.034477991238866  0.6745545318982663  0.4925891989651562  1.0000
  H   H10       1.0  0.5343879444845144  0.3254315680410328  0.9925876955920927  1.0000
  H   H11       1.0  0.308334751036206  0.8411384116083838  0.5441386096394821  1.0000
  H   H12       1.0  0.8082864578987808  0.15885037915319336  0.04414031400546041  1.0000
  H   H13       1.0  0.5125068852617857  0.0548883552343256  0.6078701363857348  1.0000
  H   H14       1.0  0.012447349408070399  0.9450981758921911  0.10787742128643879  1.0000
  H   H15       1.0  0.08947463296036771  0.2639682253494512  0.39422410477851594  1.0000
  H   H16       1.0  0.5895027025075379  0.7360431517218088  0.8942219803624951  1.0000
  C   C1        1.0  0.6884691489247815  0.7281736918499104  0.27246902871670636  1.0000
  C   C2        1.0  0.1884919054946934  0.2718359826102698  0.7724615301819711  1.0000
  C   C3        1.0  0.6840058246881072  0.5977250545327024  0.30464130025033137  1.0000
  C   C4        1.0  0.18398224100877772  0.402273458753271  0.8046353218679485  1.0000
  C   C5        1.0  0.8150109375602456  0.5787346878053511  0.3850042580980215  1.0000
  C   C6        1.0  0.3149482196399163  0.4212611729608469  0.8850022468311352  1.0000
  C   C7        1.0  0.9408186302005673  0.6891133927642342  0.4297128096940597  1.0000
  C   C8        1.0  0.44079393939097145  0.3108769078857989  0.9297075435577469  1.0000
  C   C9        1.0  0.9471706019890364  0.8161409793056505  0.3928990163063872  1.0000
  C   C10       1.0  0.44716505059948725  0.18385778198865665  0.8928924355716106  1.0000
  C   C11       1.0  0.0827840588616482  0.9382774231420752  0.4350622582094843  1.0000
  C   C12       1.0  0.5827445850396202  0.06172523550213779  0.9350633178744302  1.0000
  C   C13       1.0  0.2588770902601141  0.9357212812500888  0.5121352209043692  1.0000
  C   C14       1.0  0.7588133636375148  0.06427365447962789  0.012139347684680498  1.0000
  C   C15       1.0  0.37390538148707714  0.05581332109956348  0.5481438867625101  1.0000
  C   C16       1.0  0.873850714077484  0.944183458828121  0.04814642696634759  1.0000
  C   C17       1.0  0.31297847168340104  0.1768578781020196  0.5060906354794383  1.0000
  C   C18       1.0  0.8129658179141971  0.8231404276291626  0.006092614390425399  1.0000
  C   C19       1.0  0.13876393548815708  0.17189523104573107  0.4290360994834899  1.0000
  C   C20       1.0  0.6387598478570382  0.8281128461737169  0.9290370833044503  1.0000
  C   C21       1.0  0.5458445525550031  0.482644005569476  0.2544588071222549  1.0000
  C   C22       1.0  0.0457922587861859  0.5173611949520022  0.7544476265377114  1.0000
  C   C23       1.0  0.42569663938822083  0.30975085231898447  0.5409252915497405  1.0000
  C   C24       1.0  0.9256858768061845  0.6902442891186311  0.0409234530051563  1.0000
  N   N1        1.0  0.8251787957850282  0.8341384756322368  0.3142699546112624  1.0000
  N   N2        1.0  0.3251846825788079  0.16586904032790528  0.8142632874674831  1.0000
  N   N3        1.0  0.024658197325223306  0.05635728924904268  0.39416280068543585  1.0000
  N   N4        1.0  0.5246833393591287  0.9436529220679973  0.8941622939968068  1.0000
  Cl  Cl1       1.0  0.35701541272758414  0.1102517869160735  0.2054957257948189  1.0000
  Cl  Cl2       1.0  0.857011190408663  0.8897590601487194  0.7054972173898121  1.0000
  O   O1        1.0  0.38250428803304  0.492250030425886  0.1872904664900616  1.0000
  O   O2        1.0  0.8824943824790096  0.5077503170720163  0.687275176247077  1.0000
  O   O3        1.0  0.6135219982024224  0.3639534428373138  0.2897304870463913  1.0000
  O   O4        1.0  0.11347995702773518  0.6360417052969253  0.7897187311136378  1.0000
  O   O5        1.0  0.3428821491186298  0.41819869876371724  0.5091819900588561  1.0000
  O   O6        1.0  0.8428568910268979  0.581798945505156  0.009182273908265901  1.0000
  O   O7        1.0  0.6268403746457948  0.29625817790090275  0.6104549597756018  1.0000
  O   O8        1.0  0.12675430237594304  0.7037373107191341  0.11046280249673399  1.0000
