data_image0
_chemical_formula_structural       Cd2H40C34S2N8O12
_chemical_formula_sum              "Cd2 H40 C34 S2 N8 O12"
_cell_length_a       8.968045044729509
_cell_length_b       10.891705069859947
_cell_length_c       12.881657756052592
_cell_angle_alpha    67.90133517772507
_cell_angle_beta     75.72476875422112
_cell_angle_gamma    67.7987799398484

_space_group_name_H-M_alt    "P 1"
_space_group_IT_number       1

loop_
  _space_group_symop_operation_xyz
  'x, y, z'

loop_
  _atom_site_type_symbol
  _atom_site_label
  _atom_site_symmetry_multiplicity
  _atom_site_fract_x
  _atom_site_fract_y
  _atom_site_fract_z
  _atom_site_occupancy
  Cd  Cd1       1.0  0.6552268938217695  0.8827171686746877  0.669749295408842  1.0000
  Cd  Cd2       1.0  0.34477149435531373  0.1172814630010421  0.3302540010568792  1.0000
  H   H1        1.0  0.05807978992790201  0.7434890707731797  0.6662149744328971  1.0000
  H   H2        1.0  0.941916677279529  0.2565116508245851  0.33378797016453643  1.0000
  H   H3        1.0  0.6050520254346594  0.5943093548948325  0.6434408989276863  1.0000
  H   H4        1.0  0.39494213281798807  0.4056944591164822  0.3565591023771546  1.0000
  H   H5        1.0  0.6719226133867267  0.3545739461159344  0.6271831481844431  1.0000
  H   H6        1.0  0.32807768128837006  0.6454287941285132  0.3728145785878993  1.0000
  H   H7        1.0  0.9524159167367471  0.19308205165054915  0.6294209065276561  1.0000
  H   H8        1.0  0.047582077625811806  0.806920702967254  0.37057799506961697  1.0000
  H   H9        1.0  0.1798435299738443  0.26238494820330527  0.6412513881557019  1.0000
  H   H10       1.0  0.8201552289038856  0.737618837061298  0.3587462634992775  1.0000
  H   H11       1.0  0.3339349675769369  0.5764166139983828  0.6029676411381076  1.0000
  H   H12       1.0  0.6660649526470337  0.4235809161100335  0.39703264421382317  1.0000
  H   H13       1.0  0.34018536017380535  0.4044030157626608  0.6193300217787867  1.0000
  H   H14       1.0  0.6598130261280487  0.595595587639494  0.38067173157136114  1.0000
  H   H15       1.0  0.28519913784355566  0.5257284058219156  0.8118538639182162  1.0000
  H   H16       1.0  0.7147992416912812  0.4742733038940089  0.18814531442998836  1.0000
  H   H17       1.0  0.4683959877135564  0.4104517686897752  0.7687721339150002  1.0000
  H   H18       1.0  0.5316012430714351  0.589549969418009  0.2312287891823531  1.0000
  H   H19       1.0  0.1515709061571755  0.34105840930228487  0.8779769927895487  1.0000
  H   H20       1.0  0.8484282474726964  0.6589412671570403  0.12202582529167226  1.0000
  H   H21       1.0  0.31633273898030007  0.23432038237099564  0.810649184510993  1.0000
  H   H22       1.0  0.6836687149621169  0.7656792797149665  0.18935245874529735  1.0000
  H   H23       1.0  0.1666973128832296  0.3073479819207848  0.08080782911073918  1.0000
  H   H24       1.0  0.8333052935595048  0.6926517083204757  0.9191951556275556  1.0000
  H   H25       1.0  0.6281842911021086  0.1445428842081428  0.7950874474112767  1.0000
  H   H26       1.0  0.37181639155812013  0.8554588535447892  0.2049128707853569  1.0000
  H   H27       1.0  0.8929410283519059  0.9887702289182275  0.8614037801729993  1.0000
  H   H28       1.0  0.10705812152750131  0.0112293909939467  0.1385959516770683  1.0000
  H   H29       1.0  0.9351350309452118  0.9169220140246424  0.06169012526501669  1.0000
  H   H30       1.0  0.06486757080943312  0.08307760553267943  0.9383090016843385  1.0000
  H   H31       1.0  0.7151291150333918  0.0034227953856316006  0.20211339044022483  1.0000
  H   H32       1.0  0.28487348672125296  0.99657682417169  0.7978857365091301  1.0000
  H   H33       1.0  0.538054375511564  0.160669796406701  0.5653463351787309  1.0000
  H   H34       1.0  0.46194707374277033  0.8393297949953294  0.4346514502886194  1.0000
  H   H35       1.0  0.3932836783949583  0.09798678843449694  0.5910081633060855  1.0000
  H   H36       1.0  0.6067158575943525  0.9020118007125859  0.4089926168527  1.0000
  H   H37       1.0  0.9475176716499547  0.9666152730900639  0.6631565856501496  1.0000
  H   H38       1.0  0.05248186152650189  0.033383273646656206  0.3368418798352765  1.0000
  H   H39       1.0  0.8114625942039524  0.07722660224058592  0.5812076010185268  1.0000
  H   H40       1.0  0.18854000661307413  0.9227730031799485  0.4187907543730417  1.0000
  C   C1        1.0  0.012722393161517704  0.6666689201114624  0.661013508567855  1.0000
  C   C2        1.0  0.9872779082805819  0.3333307138192154  0.3389867932064307  1.0000
  C   C3        1.0  0.8567133742199002  0.5603224670257065  0.6508769146880767  1.0000
  C   C4        1.0  0.14328345504593895  0.4396864862011329  0.349116266981099  1.0000
  C   C5        1.0  0.7285819719814556  0.5217713613509645  0.642856972207419  1.0000
  C   C6        1.0  0.2714183149890203  0.478234471070458  0.35713740800519383  1.0000
  C   C7        1.0  0.7672801249527764  0.38892290665280893  0.6346457509122703  1.0000
  C   C8        1.0  0.23272016784708427  0.611079805318063  0.365350432744492  1.0000
  C   C9        1.0  0.9277065511063256  0.2964080698145395  0.6348373126005671  1.0000
  C   C10       1.0  0.07229258711429758  0.7035977909987495  0.36515881236118736  1.0000
  C   C11       1.0  0.056086059357852505  0.3338251208228371  0.6420241614639723  1.0000
  C   C12       1.0  0.9439149940030305  0.6661817705189749  0.357970511921927  1.0000
  C   C13       1.0  0.0178408495222584  0.46719872859235073  0.6493890432221788  1.0000
  C   C14       1.0  0.982155607167698  0.53280504277204  0.3506082401421581  1.0000
  C   C15       1.0  0.2887015456292943  0.4892460208340666  0.6570438253282874  1.0000
  C   C16       1.0  0.7112964536250387  0.5107535991963915  0.3429561081553487  1.0000
  C   C17       1.0  0.3358090912274535  0.43924914343087107  0.775745339607596  1.0000
  C   C18       1.0  0.6641885228545873  0.5607515215014587  0.22425431712510857  1.0000
  C   C19       1.0  0.2834123936049409  0.3128800349766508  0.8535636579267276  1.0000
  C   C20       1.0  0.7165875245401166  0.6871206721294814  0.14643791021219954  1.0000
  C   C21       1.0  0.293801893927359  0.2512654126622564  0.062082178581626124  1.0000
  C   C22       1.0  0.706198414281751  0.7487311149546515  0.9379206981945957  1.0000
  C   C23       1.0  0.522560297994964  0.1626225314938736  0.9632069490889423  1.0000
  C   C24       1.0  0.4774419262920232  0.8373750407883379  0.03679524766921114  1.0000
  C   C25       1.0  0.6455529496652941  0.1167437715801753  0.8827530286003552  1.0000
  C   C26       1.0  0.3544465863240163  0.8832548175669076  0.11724775155843048  1.0000
  C   C27       1.0  0.7936081235603039  0.0277546283535202  0.9211981436903899  1.0000
  C   C28       1.0  0.2063929482263659  0.9722429157734072  0.07880271158575877  1.0000
  C   C29       1.0  0.8174272298866258  0.9870867242016956  0.03513395323510348  1.0000
  C   C30       1.0  0.18257384096242643  0.0129108057884366  0.9648661304832588  1.0000
  C   C31       1.0  0.6950710258746893  0.0338308133703293  0.1148414571729505  1.0000
  C   C32       1.0  0.30493196688163227  0.9661646408345635  0.8851597499714856  1.0000
  C   C33       1.0  0.5449613511163915  0.12189007432958482  0.07785704107199365  1.0000
  C   C34       1.0  0.4550404910148487  0.8781053799935847  0.922144367706018  1.0000
  S   S1        1.0  0.2887862352243006  0.8883164548370103  0.6116752673273069  1.0000
  S   S2        1.0  0.7112133056567771  0.11167899972273432  0.38832654471784184  1.0000
  N   N1        1.0  0.8585277595683037  0.6836147829300998  0.6590464750725147  1.0000
  N   N2        1.0  0.14147215180974365  0.31638903048979483  0.3409525180644692  1.0000
  N   N3        1.0  0.11314656015448311  0.5387970094366994  0.655604347510824  1.0000
  N   N4        1.0  0.8868548851456949  0.4612057306894641  0.34439317762794996  1.0000
  N   N5        1.0  0.3612652349973401  0.2457344944809848  0.9563248077788702  1.0000
  N   N6        1.0  0.6387354534922806  0.7542641228213898  0.043677313861927324  1.0000
  N   N7        1.0  0.39894066860812677  0.1791538814034155  0.13713234034084823  1.0000
  N   N8        1.0  0.6010607892884537  0.8208426319584204  0.8628695632440186  1.0000
  O   O1        1.0  0.4368566923127304  0.8151439105679898  0.6704130563349224  1.0000
  O   O2        1.0  0.5631416998185089  0.18485157238360733  0.32959050045937494  1.0000
  O   O3        1.0  0.14138738901758074  0.8884806988790288  0.6944765014961902  1.0000
  O   O4        1.0  0.858612156958955  0.1115084158220867  0.3055235165327518  1.0000
  O   O5        1.0  0.2842272375704268  0.036214973273637006  0.5430060152696614  1.0000
  O   O6        1.0  0.7157696197010636  0.9637815688349108  0.4569982379650667  1.0000
  O   O7        1.0  0.296371887045467  0.8127015996162754  0.5326294686612414  1.0000
  O   O8        1.0  0.7036334069610107  0.18729385435204904  0.46737133521605756  1.0000
  O   O9        1.0  0.46691477972387224  0.11431124102865203  0.6280289433225905  1.0000
  O   O10       1.0  0.5330851346707134  0.8856894095303287  0.3719695385851838  1.0000
  O   O11       1.0  0.8286868524126021  0.007595629797592104  0.6573303667537403  1.0000
  O   O12       1.0  0.17131382931001574  0.9924060938185524  0.3426691798851067  1.0000
