data_image0
_chemical_formula_structural       Sm2Cu2H30C50N12O16
_chemical_formula_sum              "Sm2 Cu2 H30 C50 N12 O16"
_cell_length_a       7.628343566126075
_cell_length_b       12.187578306597956
_cell_length_c       14.209330914625408
_cell_angle_alpha    69.05286637444831
_cell_angle_beta     88.02971593464774
_cell_angle_gamma    82.62481622588052

_space_group_name_H-M_alt    "P 1"
_space_group_IT_number       1

loop_
  _space_group_symop_operation_xyz
  'x, y, z'

loop_
  _atom_site_type_symbol
  _atom_site_label
  _atom_site_symmetry_multiplicity
  _atom_site_fract_x
  _atom_site_fract_y
  _atom_site_fract_z
  _atom_site_occupancy
  Sm  Sm1       1.0  0.2000429233649399  0.4133695150608787  0.6534691917350556  1.0000
  Sm  Sm2       1.0  0.7999585436719768  0.5866277524195455  0.3465307586388774  1.0000
  Cu  Cu1       1.0  0.7146809310655442  0.1431042212687004  0.19856630616190776  1.0000
  Cu  Cu2       1.0  0.285327303746314  0.8568983844229551  0.8014410492281101  1.0000
  H   H1        1.0  0.5186636323452731  0.3514958485144604  0.26393038433806026  1.0000
  H   H2        1.0  0.4813542907496853  0.6485042650260908  0.7360683910278637  1.0000
  H   H3        1.0  0.6898453425312353  0.6953343597860099  0.9705318422012182  1.0000
  H   H4        1.0  0.3101499544119193  0.3046672852035855  0.029465494109125166  1.0000
  H   H5        1.0  0.878136908518158  0.6539724627795566  0.8348152506663453  1.0000
  H   H6        1.0  0.12186157304773805  0.34603276260948235  0.16518164552105924  1.0000
  H   H7        1.0  0.8664249784693823  0.2781725730685451  0.9808038845678695  1.0000
  H   H8        1.0  0.13360493615228816  0.7218267348205673  0.01920264719136356  1.0000
  H   H9        1.0  0.9134019223385793  0.8877512521582815  0.23312748334101477  1.0000
  H   H10       1.0  0.0865870281033878  0.11225563675692742  0.7668697952619326  1.0000
  H   H11       1.0  0.5618656818124919  0.22653389957420703  0.9683766354589736  1.0000
  H   H12       1.0  0.43813487125084527  0.7734739873814647  0.031622934901506  1.0000
  H   H13       1.0  0.6187835197901563  0.0311019860493928  0.7672814447237571  1.0000
  H   H14       1.0  0.3812033873687284  0.9689084105938759  0.23271762682529135  1.0000
  H   H15       1.0  0.8121938905081689  0.8644144601318048  0.8921335359932243  1.0000
  H   H16       1.0  0.1878178714591385  0.13559623800410486  0.10786145117592133  1.0000
  H   H17       1.0  0.6306700947002638  0.8979359049247791  0.3468682071975451  1.0000
  H   H18       1.0  0.3693323000884022  0.10205694071869693  0.6531323593697563  1.0000
  H   H19       1.0  0.8333227867419452  0.27203570403056426  0.360691192128307  1.0000
  H   H20       1.0  0.1666786689228274  0.7279553610876096  0.6393092272222629  1.0000
  H   H21       1.0  0.8918968194884301  0.1056098209677216  0.6829204507258736  1.0000
  H   H22       1.0  0.10809995018099255  0.8943723226281649  0.3170820531672334  1.0000
  H   H23       1.0  0.793109159314767  0.9191412993372268  0.6807378326397852  1.0000
  H   H24       1.0  0.2068679917601415  0.08085304850551012  0.3192613536716422  1.0000
  H   H25       1.0  0.5457709634549842  0.5680340954990298  0.16144315897347636  1.0000
  H   H26       1.0  0.45423405304969583  0.4319649959282899  0.8385547643478476  1.0000
  H   H27       1.0  0.9350059004973872  0.7896153666520505  0.1088992359179741  1.0000
  H   H28       1.0  0.06499163888057068  0.21039430891755018  0.8910928131368009  1.0000
  H   H29       1.0  0.6795242928324183  0.8225269184593957  0.5337915596861008  1.0000
  H   H30       1.0  0.3204685539901034  0.17746762377780098  0.46620445320093035  1.0000
  C   C1        1.0  0.5806269516798039  0.3819588532697864  0.19076779876785113  1.0000
  C   C2        1.0  0.4193935961952063  0.6180412753487448  0.8092330332680006  1.0000
  C   C3        1.0  0.6777359281399525  0.5079491014094017  0.0509676706496052  1.0000
  C   C4        1.0  0.3222758417034727  0.49205535657277716  0.9490334267485351  1.0000
  C   C5        1.0  0.7283653180409642  0.6054797005381545  0.972290051743819  1.0000
  C   C6        1.0  0.2716412166785531  0.39452469894445136  0.027711163253726984  1.0000
  C   C7        1.0  0.831205430385829  0.5821662387446339  0.897445627815621  1.0000
  C   C8        1.0  0.1688048470510921  0.4178390852008889  0.10255593986892822  1.0000
  C   C9        1.0  0.879104149768274  0.46539612267831393  0.8992933692382863  1.0000
  C   C10       1.0  0.12091826913643897  0.5346075811626394  0.10070564176138666  1.0000
  C   C11       1.0  0.9869735483641475  0.44637999877809176  0.8159103663437434  1.0000
  C   C12       1.0  0.013041027478820404  0.553623598417758  0.18409164168122058  1.0000
  C   C13       1.0  0.8285360885297166  0.3681992508243183  0.97873175425066  1.0000
  C   C14       1.0  0.17148670484414202  0.6318026776683466  0.0212684904455216  1.0000
  C   C15       1.0  0.7299744188267637  0.3901929744952641  0.055762926975596386  1.0000
  C   C16       1.0  0.27003978014102603  0.6098124027728035  0.9442371421963145  1.0000
  C   C17       1.0  0.8614808326014793  0.9319308956651754  0.15689079310109827  1.0000
  C   C18       1.0  0.13851278830965436  0.0680724958760095  0.8431074543822277  1.0000
  C   C19       1.0  0.721689628169436  0.055565619502253624  0.022922167144251694  1.0000
  C   C20       1.0  0.27831204523729275  0.9444431721144181  0.9770764043898479  1.0000
  C   C21       1.0  0.6176517808433815  0.1485714272342875  0.9521590665366517  1.0000
  C   C22       1.0  0.3823437183155391  0.8514355253575091  0.04783947538012971  1.0000
  C   C23       1.0  0.5822271987139302  0.13784289011120882  0.8601042254047897  1.0000
  C   C24       1.0  0.41775969882083785  0.8621675254278077  0.13989202551807967  1.0000
  C   C25       1.0  0.4606668082645696  0.2323578482580118  0.786303168089752  1.0000
  C   C26       1.0  0.5393183983699925  0.7676356689543553  0.21370104218836158  1.0000
  C   C27       1.0  0.6520496860672935  0.035706095554857605  0.839465309037699  1.0000
  C   C28       1.0  0.3479467408433761  0.9642964351999979  0.16053384907245058  1.0000
  C   C29       1.0  0.7579555537036595  0.9425394898683594  0.9088382265994212  1.0000
  C   C30       1.0  0.24205171726596567  0.057467608519281996  0.0911579352490577  1.0000
  C   C31       1.0  0.7900971643632101  0.9530201281488787  0.0014444611471234328  1.0000
  C   C32       1.0  0.20989703257480843  0.046993021628146905  0.9985522308797811  1.0000
  C   C33       1.0  0.674058122608571  0.9505909446947386  0.38761662412927217  1.0000
  C   C34       1.0  0.3259315389331973  0.0494062431249418  0.6123758341213374  1.0000
  C   C35       1.0  0.8217362179011404  0.1956297930542235  0.4292260657860751  1.0000
  C   C36       1.0  0.17826411982627374  0.8043603626790131  0.5707760575474196  1.0000
  C   C37       1.0  0.8695148060609056  0.19780994212209177  0.5229393588323319  1.0000
  C   C38       1.0  0.1304778674182358  0.8021792358256691  0.4770639103268053  1.0000
  C   C39       1.0  0.9399143597476467  0.3039135190920206  0.5311022818930837  1.0000
  C   C40       1.0  0.06007887423218956  0.6960729981952768  0.4689024852325403  1.0000
  C   C41       1.0  0.8573510501949996  0.09866572310295402  0.6119706767709161  1.0000
  C   C42       1.0  0.1426350793792465  0.9013233817203457  0.38803273938747657  1.0000
  C   C43       1.0  0.8002167390713523  0.9952472687569414  0.6115381595522392  1.0000
  C   C44       1.0  0.1997690232518394  0.004743597242836001  0.3884661383792789  1.0000
  C   C45       1.0  0.7545731876096795  0.9930984631825482  0.5181117489633066  1.0000
  C   C46       1.0  0.2454262206179649  0.006889893129638801  0.4818930477796428  1.0000
  C   C47       1.0  0.5337067562588089  0.5314055094215107  0.5343619925344356  1.0000
  C   C48       1.0  0.46627121570931956  0.4686100452103545  0.46564554198545954  1.0000
  C   C49       1.0  0.7643761877294962  0.09174414619948122  0.4273492872569803  1.0000
  C   C50       1.0  0.23562563759235633  0.908245153018271  0.5726509554770087  1.0000
  N   N1        1.0  0.5803196914408629  0.49832632218861067  0.1362134925225859  1.0000
  N   N2        1.0  0.419697494745968  0.5016773184288327  0.8637863412330374  1.0000
  N   N3        1.0  0.6675286381566181  0.31290224970642566  0.14534020504485307  1.0000
  N   N4        1.0  0.3324926628107363  0.6871005447495834  0.8546605099377443  1.0000
  N   N5        1.0  0.7699746101926052  0.039416136250828515  0.12151627254384317  1.0000
  N   N6        1.0  0.23002350893430182  0.9605908408668214  0.8784829157297763  1.0000
  N   N7        1.0  0.8787711084839671  0.8779409312110147  0.08796856480706336  1.0000
  N   N8        1.0  0.12122046673805188  0.122065972782174  0.9120307704658189  1.0000
  N   N9        1.0  0.6959408422537975  0.9068377801762539  0.4895559508206446  1.0000
  N   N10       1.0  0.30404640044574177  0.09315224347985661  0.5104443510417269  1.0000
  N   N11       1.0  0.7129346491768515  0.0611159416874543  0.3469074929721571  1.0000
  N   N12       1.0  0.28706155692781715  0.9388750932747671  0.6530888130385504  1.0000
  O   O1        1.0  0.06281690865166921  0.5303548715817712  0.7545600107692394  1.0000
  O   O2        1.0  0.9372187991885783  0.4696418388703876  0.24544719620053002  1.0000
  O   O3        1.0  0.0022863452649559777  0.34438132698535645  0.805950572514419  1.0000
  O   O4        1.0  0.9977065146777235  0.6556256388720813  0.1940416817931592  1.0000
  O   O5        1.0  0.39362252910915163  0.3224928363853081  0.8081283697626631  1.0000
  O   O6        1.0  0.6063933307964645  0.6775170486567247  0.19186256253763637  1.0000
  O   O7        1.0  0.4160842388419823  0.22330527205528483  0.7040433860077897  1.0000
  O   O8        1.0  0.5838719947076001  0.7766763473098875  0.2959706066288916  1.0000
  O   O9        1.0  0.024821938040361074  0.288927054318073  0.6118546440651613  1.0000
  O   O10       1.0  0.9752142377813866  0.7110547277432674  0.38813454928456537  1.0000
  O   O11       1.0  0.9151045954458467  0.40224074387856495  0.4586777180915007  1.0000
  O   O12       1.0  0.08486043340953127  0.5977551862772614  0.5413296661571678  1.0000
  O   O13       1.0  0.4567508473511451  0.5153442857759103  0.6180262632333751  1.0000
  O   O14       1.0  0.5432340152086325  0.4846820705592877  0.3819666117430529  1.0000
  O   O15       1.0  0.6590086663572803  0.5929223418706613  0.5014778764768123  1.0000
  O   O16       1.0  0.34098196908282563  0.4070890075791454  0.4985173168199707  1.0000
