data_image0
_chemical_formula_structural       Zn4H40C56S8N8O16
_chemical_formula_sum              "Zn4 H40 C56 S8 N8 O16"
_cell_length_a       11.287141305400835
_cell_length_b       15.435581105063784
_cell_length_c       15.3563
_cell_angle_alpha    98.44587524845153
_cell_angle_beta     108.75826817773489
_cell_angle_gamma    107.69340696394704

_space_group_name_H-M_alt    "P 1"
_space_group_IT_number       1

loop_
  _space_group_symop_operation_xyz
  'x, y, z'

loop_
  _atom_site_type_symbol
  _atom_site_label
  _atom_site_symmetry_multiplicity
  _atom_site_fract_x
  _atom_site_fract_y
  _atom_site_fract_z
  _atom_site_occupancy
  Zn  Zn1       1.0  0.3529897258222973  0.5489469302633478  0.9221314161984324  1.0000
  Zn  Zn2       1.0  0.14869848784116607  0.07587631416404857  0.4496334746943518  1.0000
  Zn  Zn3       1.0  0.6470099221542612  0.4510514438206812  0.07786936759401904  1.0000
  Zn  Zn4       1.0  0.8513006028720015  0.9241227664099296  0.5503679328811587  1.0000
  H   H1        1.0  0.1426879252484881  0.23550206649744604  0.826462624527835  1.0000
  H   H2        1.0  0.3592082252339567  0.17536140299472436  0.7672610786698755  1.0000
  H   H3        1.0  0.8573122799914686  0.7644956010966337  0.17353688428302413  1.0000
  H   H4        1.0  0.6408004629862063  0.8246468619486079  0.23273874374080342  1.0000
  H   H5        1.0  0.025308656010075474  0.2414514183682783  0.6176876714761335  1.0000
  H   H6        1.0  0.4722918841719164  0.3799587731095925  0.7562955490004768  1.0000
  H   H7        1.0  0.9746913703659317  0.7585476622057001  0.38231135246216763  1.0000
  H   H8        1.0  0.5277128618613887  0.620047372363892  0.24370498231068893  1.0000
  H   H9        1.0  0.33910893545138515  0.5156500589093154  0.7235269241378435  1.0000
  H   H10       1.0  0.1608061586737932  0.27315020945490426  0.48253638442462693  1.0000
  H   H11       1.0  0.6608935195136993  0.4843483151747137  0.27647452312536563  1.0000
  H   H12       1.0  0.8391904827787471  0.72684604515927  0.5174620734325758  1.0000
  H   H13       1.0  0.49257646330405436  0.5695517096616171  0.6384105738049186  1.0000
  H   H14       1.0  0.004740395787010139  0.35827447706738264  0.4292974791835675  1.0000
  H   H15       1.0  0.5074259916610232  0.430446664422412  0.36159152465682354  1.0000
  H   H16       1.0  0.9952556884021394  0.6417224840367481  0.5707003000596275  1.0000
  H   H17       1.0  0.8146510168220403  0.7190393312093022  0.9164410655787378  1.0000
  H   H18       1.0  0.6830529754021981  0.08410480261430557  0.28060369195115004  1.0000
  H   H19       1.0  0.18535163767854362  0.2809611623445747  0.08356139295042202  1.0000
  H   H20       1.0  0.3169401022629329  0.9158900390199703  0.7193982733421082  1.0000
  H   H21       1.0  0.6477008506191454  0.6600022050088299  0.9887444178578806  1.0000
  H   H22       1.0  0.8524462133389932  0.0115617080354085  0.33902074593565606  1.0000
  H   H23       1.0  0.3522997330202529  0.3399961690751994  0.011255935892954557  1.0000
  H   H24       1.0  0.14755004971410546  0.9884338400888167  0.660982076569816  1.0000
  H   H25       1.0  0.06611713260245711  0.49905249050871686  0.7980058088612552  1.0000
  H   H26       1.0  0.4340456905667125  0.20052304257193035  0.5015987563910969  1.0000
  H   H27       1.0  0.9338847650992295  0.5009465900652614  0.20199170379529366  1.0000
  H   H28       1.0  0.5659476073054607  0.7994774509819464  0.498400188171793  1.0000
  H   H29       1.0  0.8997472701522896  0.5769225193122978  0.7511439845645072  1.0000
  H   H30       1.0  0.5977894076939094  0.24799563477719735  0.4236210980487485  1.0000
  H   H31       1.0  0.1002585697362548  0.4230786807315354  0.24885347039008826  1.0000
  H   H32       1.0  0.4022074539656799  0.752006271756585  0.5763795486663312  1.0000
  H   H33       1.0  0.22239105934147557  0.8424468762444872  0.9290558445942665  1.0000
  H   H34       1.0  0.2755910798558361  0.06974610086596297  0.15484703851456064  1.0000
  H   H35       1.0  0.7776093454339732  0.15755291081944015  0.0709466290781365  1.0000
  H   H36       1.0  0.724412888707029  0.9302550991778702  0.8451545325159061  1.0000
  H   H37       1.0  0.37201231660444717  0.7507932285120444  0.9743576665744555  1.0000
  H   H38       1.0  0.12890048446280392  0.0236984988902975  0.2468963083668427  1.0000
  H   H39       1.0  0.6279858384458805  0.2492058520619338  0.02564156624853105  1.0000
  H   H40       1.0  0.8710978494514734  0.9762991687037825  0.7531027581301758  1.0000
  C   C1        1.0  0.17874745698143357  0.3718602788101818  0.7898563037795725  1.0000
  C   C2        1.0  0.32170660288533537  0.2079673271774354  0.6277751513845402  1.0000
  C   C3        1.0  0.8212553763830927  0.6281388017637966  0.21014403482802638  1.0000
  C   C4        1.0  0.678296650221732  0.7920395247859986  0.37222448015570114  1.0000
  C   C5        1.0  0.12016792003363005  0.26701575721711623  0.7670241172916975  1.0000
  C   C6        1.0  0.3803703694367897  0.23280610084739095  0.7338490389956434  1.0000
  C   C7        1.0  0.8798337988041071  0.7329847363367675  0.23297486408788615  1.0000
  C   C8        1.0  0.6196377615199751  0.7672028705858904  0.26615336079368035  1.0000
  C   C9        1.0  0.046933743867505456  0.21101653780259966  0.6779862500509637  1.0000
  C   C10       1.0  0.4520288762918269  0.32161259408043447  0.7886207267909242  1.0000
  C   C11       1.0  0.9530649684462134  0.7889818362814294  0.3220136613860306  1.0000
  C   C12       1.0  0.547974755214682  0.6783949643729486  0.21137454010104764  1.0000
  C   C13       1.0  0.9956636011389293  0.10637124637549528  0.6578159938829202  1.0000
  C   C14       1.0  0.5031595008224059  0.3437765967988469  0.8944382482305926  1.0000
  C   C15       1.0  0.004333040313610922  0.893625008238679  0.3421811615772157  1.0000
  C   C16       1.0  0.49684317434972064  0.6562274292047832  0.10555952710372206  1.0000
  C   C17       1.0  0.4450750374424359  0.562216930998396  0.7625086033243136  1.0000
  C   C18       1.0  0.05423667104267339  0.2349495913563686  0.43618945823082816  1.0000
  C   C19       1.0  0.5549274175226486  0.4377814430856332  0.23748958794624295  1.0000
  C   C20       1.0  0.9457586563475857  0.7650459567678566  0.563807933529482  1.0000
  C   C21       1.0  0.5311359146696475  0.5917828289252967  0.7161870233129549  1.0000
  C   C22       1.0  0.9667811878851255  0.2813235916890378  0.40702387850604554  1.0000
  C   C23       1.0  0.46886148358178303  0.4082148386687833  0.28381377562273263  1.0000
  C   C24       1.0  0.03321282544284542  0.7186712499452383  0.5929737495544245  1.0000
  C   C25       1.0  0.6661573917639032  0.6508616380328363  0.7712355549356432  1.0000
  C   C26       1.0  0.8310570398586279  0.22736330227087354  0.3483490657550164  1.0000
  C   C27       1.0  0.33384357027494355  0.3491374425411421  0.2287669461522412  1.0000
  C   C28       1.0  0.16893960159391228  0.7726329523433079  0.6516506944992457  1.0000
  C   C29       1.0  0.7101903155613911  0.6749529453354555  0.87068090659281  1.0000
  C   C30       1.0  0.7879536311888132  0.1289916416017505  0.3242651423157881  1.0000
  C   C31       1.0  0.2898093324151745  0.3250454287485737  0.1293179236040416  1.0000
  C   C32       1.0  0.2120433886631758  0.8710053195023733  0.6757374164740498  1.0000
  C   C33       1.0  0.6175411343130719  0.6424254415372203  0.9115000110734854  1.0000
  C   C34       1.0  0.8820529693020948  0.0880448970667018  0.3564746959606994  1.0000
  C   C35       1.0  0.3824558855389171  0.35757151956691047  0.08850189651782613  1.0000
  C   C36       1.0  0.11794235808816468  0.9119506510575234  0.6435259517922631  1.0000
  C   C37       1.0  0.09491806746066797  0.5745395287101971  0.8273699687508227  1.0000
  C   C38       1.0  0.4049134517675413  0.1710708895270159  0.42545270597948814  1.0000
  C   C39       1.0  0.9050808443885501  0.4254609648436868  0.17262704676094387  1.0000
  C   C40       1.0  0.5950860380166175  0.8289324299866647  0.5745481193337979  1.0000
  C   C41       1.0  0.003518666662117203  0.6184902685135967  0.8002860155860818  1.0000
  C   C42       1.0  0.49472865747195266  0.19857101083946554  0.3814014427710859  1.0000
  C   C43       1.0  0.9964809813144415  0.38150810557043247  0.19971086101518415  1.0000
  C   C44       1.0  0.5052702750488152  0.8014330151641644  0.6186000063252522  1.0000
  C   C45       1.0  0.047927423141835755  0.7163030956320853  0.8359405032661513  1.0000
  C   C46       1.0  0.449536166082524  0.16314336579555536  0.28256694871208776  1.0000
  C   C47       1.0  0.9520720459707805  0.2836966914318423  0.1640584932566754  1.0000
  C   C48       1.0  0.5504597599142187  0.8368585407382199  0.717432825647542  1.0000
  C   C49       1.0  0.18265220370297183  0.7660286842886135  0.8994649296825231  1.0000
  C   C50       1.0  0.3158141230623386  0.09926537045615187  0.2320713548848445  1.0000
  C   C51       1.0  0.817348758335875  0.2339703962853648  0.10053626900829479  1.0000
  C   C52       1.0  0.6841874169114489  0.9007365360776303  0.7679277928207143  1.0000
  C   C53       1.0  0.26681441422331875  0.716381516016561  0.9241132028333752  1.0000
  C   C54       1.0  0.233244168332071  0.0741383488864997  0.2819109893482121  1.0000
  C   C55       1.0  0.733187662342317  0.2836161515775188  0.07588739948985083  1.0000
  C   C56       1.0  0.7667543651177056  0.9258614381774277  0.7180871348191645  1.0000
  S   S1        1.0  0.7663987232773836  0.6905833289942009  0.7062339972676527  1.0000
  S   S2        1.0  0.7284536370715956  0.2922275575807872  0.30942281899834984  1.0000
  S   S3        1.0  0.2336013030986237  0.3094157515797774  0.293766329067715  1.0000
  S   S4        1.0  0.271546010904963  0.7077708165032419  0.6905786159926279  1.0000
  S   S5        1.0  0.9471756609688172  0.7838873372503699  0.8047988361312265  1.0000
  S   S6        1.0  0.5477433734851616  0.19525545350306564  0.21453959992332025  1.0000
  S   S7        1.0  0.05282436540718999  0.21611174332361566  0.1952008390056079  1.0000
  S   S8        1.0  0.4522546027012168  0.8047450400508109  0.7854617528212416  1.0000
  N   N1        1.0  0.4867275515887641  0.5885004766165594  0.858520830756845  1.0000
  N   N2        1.0  0.01334662345256989  0.1398963139834564  0.4099954493403146  1.0000
  N   N3        1.0  0.5132779099003316  0.41150001693731747  0.14148294244161266  1.0000
  N   N4        1.0  0.9866481466742913  0.860099940630725  0.5900038686001069  1.0000
  N   N5        1.0  0.22433386991237103  0.62202201177476  0.8882397704012561  1.0000
  N   N6        1.0  0.27632075111328896  0.10994961797337767  0.3771671249652471  1.0000
  N   N7        1.0  0.7756691629876541  0.3779791882690659  0.1117615794722937  1.0000
  N   N8        1.0  0.7236744180845704  0.890050875580499  0.6228342155070835  1.0000
  O   O1        1.0  0.24770716614474253  0.4124806249882268  0.8809213259801183  1.0000
  O   O2        1.0  0.2537608210070701  0.11775633192335277  0.5881296226047256  1.0000
  O   O3        1.0  0.7522935963586048  0.5875163361158966  0.11907755904768176  1.0000
  O   O4        1.0  0.7462429893633883  0.882249813550132  0.41187068754952355  1.0000
  O   O5        1.0  0.16211997409340026  0.4147738913666571  0.726298492190999  1.0000
  O   O6        1.0  0.3374604195119915  0.2695675989173196  0.5830283916589849  1.0000
  O   O7        1.0  0.8378824808716843  0.5852244827173718  0.27370165267515034  1.0000
  O   O8        1.0  0.6625385336803191  0.7304399595360563  0.4169716302351604  1.0000
  O   O9        1.0  0.9225277820577844  0.06129577457134159  0.5682905257427109  1.0000
  O   O10       1.0  0.5753254803049188  0.4325138540167685  0.9388588094915349  1.0000
  O   O11       1.0  0.07747206545427326  0.9387047189825422  0.43170996691862484  1.0000
  O   O12       1.0  0.4246873289660442  0.567495117416513  0.06114469608239404  1.0000
  O   O13       1.0  0.022510722698989096  0.06651178987384299  0.723229268720914  1.0000
  O   O14       1.0  0.4770342028379915  0.2803479290677799  0.9359185787508296  1.0000
  O   O15       1.0  0.9774883680141785  0.9334872907001425  0.27677018525899666  1.0000
  O   O16       1.0  0.5229652869461674  0.7196553904459007  0.06408159536392334  1.0000
