data_image0
_chemical_formula_structural       Ca2H12C4N20O6
_chemical_formula_sum              "Ca2 H12 C4 N20 O6"
_cell_length_a       6.374708351366467
_cell_length_b       8.270210169511513
_cell_length_c       9.20795451488215
_cell_angle_alpha    94.68151582823519
_cell_angle_beta     103.27628297884635
_cell_angle_gamma    91.869175334859

_space_group_name_H-M_alt    "P 1"
_space_group_IT_number       1

loop_
  _space_group_symop_operation_xyz
  'x, y, z'

loop_
  _atom_site_type_symbol
  _atom_site_label
  _atom_site_symmetry_multiplicity
  _atom_site_fract_x
  _atom_site_fract_y
  _atom_site_fract_z
  _atom_site_occupancy
  Ca  Ca1       1.0  0.2050982633885212  0.9623759630750686  0.8790927416207738  1.0000
  Ca  Ca2       1.0  0.7949030710765965  0.03762077924144339  0.12090337203148487  1.0000
  H   H1        1.0  0.21875643817603663  0.5625566174982664  0.832472788106223  1.0000
  H   H2        1.0  0.7812468922812882  0.43744624400087434  0.16753166931596297  1.0000
  H   H3        1.0  0.4620611549586897  0.635469500830567  0.9297382629824399  1.0000
  H   H4        1.0  0.5379430015405474  0.3645455096053283  0.07026716196097028  1.0000
  H   H5        1.0  0.8002820430845787  0.07522259452273522  0.4610501562112503  1.0000
  H   H6        1.0  0.19971614187581818  0.9247753705063818  0.538947706777094  1.0000
  H   H7        1.0  0.8015969035906491  0.2723154762797577  0.4411759123398156  1.0000
  H   H8        1.0  0.198397623833678  0.7276764403338162  0.5588263768348654  1.0000
  H   H9        1.0  0.17669410781359565  0.2720106912269955  0.746178232876396  1.0000
  H   H10       1.0  0.8233010597672603  0.7279909749258097  0.2538302592535757  1.0000
  H   H11       1.0  0.38133254260424104  0.21007693959342794  0.6926507000968627  1.0000
  H   H12       1.0  0.6186606909115967  0.7899198526602478  0.30735497395361483  1.0000
  C   C1        1.0  0.0996939208783232  0.7127057386005902  0.10657115347065371  1.0000
  C   C2        1.0  0.9002973031537067  0.2873079727360163  0.893420155090908  1.0000
  C   C3        1.0  0.36388283912565095  0.10584693332094021  0.2456924271246095  1.0000
  C   C4        1.0  0.6361151806263621  0.8941486019208257  0.754305242359493  1.0000
  N   N1        1.0  0.23588742891205064  0.6174492955226183  0.046639485990496596  1.0000
  N   N2        1.0  0.7641179306206851  0.38255963653543296  0.9533646289003244  1.0000
  N   N3        1.0  0.28754440495469413  0.48874137677800183  0.1294684043978407  1.0000
  N   N4        1.0  0.7124609339010419  0.5112675856698771  0.870541139431289  1.0000
  N   N5        1.0  0.1877571488016088  0.5055838900079622  0.23734560355399742  1.0000
  N   N6        1.0  0.8122419117216924  0.4944274874753065  0.7626620100089953  1.0000
  N   N7        1.0  0.06905066992710833  0.6407053589791263  0.22784417226804274  1.0000
  N   N8        1.0  0.930958157120912  0.35930722817491306  0.7721618376581673  1.0000
  N   N9        1.0  0.298397337191588  0.6472967237702038  0.9164341208146071  1.0000
  N   N10       1.0  0.7016048150446395  0.352712179638985  0.08356513193420062  1.0000
  N   N11       1.0  0.5125044813953465  0.15678519252675469  0.3772874063157303  1.0000
  N   N12       1.0  0.4874993169285418  0.8432006443955375  0.6227126987094422  1.0000
  N   N13       1.0  0.41001636827169813  0.18323123939137537  0.4907135527512666  1.0000
  N   N14       1.0  0.5899877274895786  0.8167581692763619  0.5092738130783232  1.0000
  N   N15       1.0  0.2057149549310111  0.1531446212057688  0.4302226164657413  1.0000
  N   N16       1.0  0.7942908643013166  0.8468459619783744  0.5697575050980248  1.0000
  N   N17       1.0  0.16904083542387127  0.1064294551258982  0.281893841976661  1.0000
  N   N18       1.0  0.830956333577646  0.8935526311939271  0.7180875622068258  1.0000
  N   N19       1.0  0.7341864409003946  0.1613765417093234  0.3922486288978178  1.0000
  N   N20       1.0  0.2658018742540805  0.8386190291451784  0.6077561699134862  1.0000
  O   O1        1.0  0.023815076471912316  0.8402275119519232  0.05172889806127051  1.0000
  O   O2        1.0  0.9761804835567247  0.15977892260609394  0.9482636942622591  1.0000
  O   O3        1.0  0.4144616853758619  0.06619388810076292  0.1226997837598418  1.0000
  O   O4        1.0  0.5855376405870132  0.93379808972  0.8773130559908395  1.0000
  O   O5        1.0  0.30581843786681867  0.2063040179901847  0.77431419661972  1.0000
  O   O6        1.0  0.6941798048853655  0.7936951984003997  0.22569027784671652  1.0000
