data_image0
_chemical_formula_structural       Cu2Mo8H32C40N8O30
_chemical_formula_sum              "Cu2 Mo8 H32 C40 N8 O30"
_cell_length_a       9.957749474329015
_cell_length_b       10.148504643593489
_cell_length_c       13.729003727116599
_cell_angle_alpha    100.46926256099364
_cell_angle_beta     107.06395430546547
_cell_angle_gamma    102.92072999788432

_space_group_name_H-M_alt    "P 1"
_space_group_IT_number       1

loop_
  _space_group_symop_operation_xyz
  'x, y, z'

loop_
  _atom_site_type_symbol
  _atom_site_label
  _atom_site_symmetry_multiplicity
  _atom_site_fract_x
  _atom_site_fract_y
  _atom_site_fract_z
  _atom_site_occupancy
  Cu  Cu1       1.0  0.4254912814455949  0.1392445009575809  0.03198660415831265  1.0000
  Cu  Cu2       1.0  0.5745107954596306  0.8607578485079301  0.9680113009383863  1.0000
  Mo  Mo1       1.0  0.43060075676325477  0.40296375835619364  0.2745969266731266  1.0000
  Mo  Mo2       1.0  0.5693981577331256  0.5970385811271512  0.7254039426578134  1.0000
  Mo  Mo3       1.0  0.3111193480306937  0.4668776989311709  0.500532332218839  1.0000
  Mo  Mo4       1.0  0.6888799689589077  0.5331225432471883  0.4994683392555431  1.0000
  Mo  Mo5       1.0  0.4183198280673892  0.19356877834780312  0.4539175391239711  1.0000
  Mo  Mo6       1.0  0.5816805460166917  0.8064314699442934  0.5460811740992499  1.0000
  Mo  Mo7       1.0  0.30446841439671607  0.6730844713456607  0.31784553025349294  1.0000
  Mo  Mo8       1.0  0.6955305067556238  0.3269178744069521  0.6821531561880152  1.0000
  H   H1        1.0  0.1439333035854915  0.2585626154660119  0.6249608543613834  1.0000
  H   H2        1.0  0.8560740055445066  0.7414397144140068  0.3750447225949857  1.0000
  H   H3        1.0  0.7343791217275139  0.03840720204186  0.4421805145392242  1.0000
  H   H4        1.0  0.265618584273426  0.9615878056219174  0.5578161901788123  1.0000
  H   H5        1.0  0.3196716759052833  0.9465419017549054  0.1341532197347847  1.0000
  H   H6        1.0  0.680326111850661  0.05346358585343579  0.8658471064320568  1.0000
  H   H7        1.0  0.0912344331787551  0.7722565632141638  0.11736068502422377  1.0000
  H   H8        1.0  0.9087679654804646  0.22774683273631519  0.8826381589497106  1.0000
  H   H9        1.0  0.8666739209506247  0.7184123814879373  0.9505321043025038  1.0000
  H   H10       1.0  0.13332992620303946  0.28158891282250664  0.04946822171276473  1.0000
  H   H11       1.0  0.8859859551753074  0.8459368986262346  0.8172838398447626  1.0000
  H   H12       1.0  0.1140165197858281  0.15406334935478583  0.18271532265499965  1.0000
  H   H13       1.0  0.3065790936113757  0.3576681884399306  0.7940523671118388  1.0000
  H   H14       1.0  0.6934219040128441  0.6423341340142843  0.20595477253414182  1.0000
  H   H15       1.0  0.9399823098477924  0.8964974984194004  0.6943161455247236  1.0000
  H   H16       1.0  0.06002831974795699  0.1035121734178901  0.30569040717203694  1.0000
  H   H17       1.0  0.9531888490104521  0.039340523047684414  0.5673300072291882  1.0000
  H   H18       1.0  0.04681951277672161  0.9606618087665451  0.43267506673564793  1.0000
  H   H19       1.0  0.5230892028690377  0.3270052832933601  0.9222866567905543  1.0000
  H   H20       1.0  0.47691196288957366  0.6729907578502292  0.07771602649840763  1.0000
  H   H21       1.0  0.7463385439315005  0.5032530056965784  0.9332436797626403  1.0000
  H   H22       1.0  0.2536553517152883  0.4967398948355852  0.06675556669480195  1.0000
  H   H23       1.0  0.9767085252835271  0.5603476294222817  0.09572299161821729  1.0000
  H   H24       1.0  0.023288128060230034  0.43964737630727774  0.9042742160913594  1.0000
  H   H25       1.0  0.9681826840580711  0.4339165636159592  0.2313263653568782  1.0000
  H   H26       1.0  0.03181178766941179  0.5660815862146225  0.7686715298099503  1.0000
  H   H27       1.0  0.5673523596394078  0.9298789686248058  0.2763503645332222  1.0000
  H   H28       1.0  0.43264907597646374  0.0701212899605395  0.7236449351792091  1.0000
  H   H29       1.0  0.9151326903372307  0.3977730988003145  0.3590894208628371  1.0000
  H   H30       1.0  0.08486016374563128  0.6022198102464106  0.6409066904370848  1.0000
  H   H31       1.0  0.9085377660370211  0.2674322135573775  0.4950353260509957  1.0000
  H   H32       1.0  0.09145711705829038  0.7325638473272563  0.5049594607400253  1.0000
  C   C1        1.0  0.22162650687203472  0.9207157396627252  0.0645539095672518  1.0000
  C   C2        1.0  0.778373142964824  0.07928555944938862  0.9354440626352984  1.0000
  C   C3        1.0  0.09311081308878501  0.821400576653275  0.053314442026255925  1.0000
  C   C4        1.0  0.9068919925009665  0.17860072617174444  0.9466827488314922  1.0000
  C   C5        1.0  0.9712926598330255  0.7923801320953319  0.9621729522809589  1.0000
  C   C6        1.0  0.028707712032407108  0.20762011410700862  0.03782648857207252  1.0000
  C   C7        1.0  0.9823084095955393  0.8641650399523825  0.8865669966490943  1.0000
  C   C8        1.0  0.01769568522886541  0.13584045090224353  0.11343322208775675  1.0000
  C   C9        1.0  0.11382313072026314  0.965497778276486  0.9029282110979938  1.0000
  C   C10       1.0  0.8861791086791794  0.0345119073436422  0.09707217871371641  1.0000
  C   C11       1.0  0.12134645400591638  0.048164562191857406  0.8260671628500875  1.0000
  C   C12       1.0  0.8786467981328627  0.951826245370377  0.17393020585289073  1.0000
  C   C13       1.0  0.22568176688295685  0.1845013146062229  0.8570445579461181  1.0000
  C   C14       1.0  0.7743100367613849  0.8154915945960397  0.14295132871553315  1.0000
  C   C15       1.0  0.22631591220252292  0.25660492832014375  0.7779962069862595  1.0000
  C   C16       1.0  0.7736738900689774  0.7433984778558128  0.22199703080915614  1.0000
  C   C17       1.0  0.022375178198167596  0.9985727793187988  0.7214033432658483  1.0000
  C   C18       1.0  0.9776280165728863  0.0014264136626919999  0.27859801551420565  1.0000
  C   C19       1.0  0.02818832529490581  0.07552985475768993  0.6485933002693118  1.0000
  C   C20       1.0  0.9718183292338266  0.9244703717036133  0.3514140370816534  1.0000
  C   C21       1.0  0.6235277443269566  0.3532729060402602  0.9897793283899718  1.0000
  C   C22       1.0  0.3764708395408221  0.646728378599093  0.010223512582989307  1.0000
  C   C23       1.0  0.7492565029094109  0.45342206899761806  0.99727029777376  1.0000
  C   C24       1.0  0.25074110904039765  0.5465760699175705  0.002731909456940703  1.0000
  C   C25       1.0  0.8746083864942519  0.4838834888680595  0.08584740959376799  1.0000
  C   C26       1.0  0.1253940884668836  0.5161167591129612  0.9141517529059942  1.0000
  C   C27       1.0  0.8696399642029601  0.41341434394408344  0.16306834258057992  1.0000
  C   C28       1.0  0.13035143251085668  0.5865806583836533  0.8369291971972574  1.0000
  C   C29       1.0  0.7396772099361683  0.31286633404820213  0.1513109653293157  1.0000
  C   C30       1.0  0.26031845817772137  0.6871255134186568  0.8486899744168783  1.0000
  C   C31       1.0  0.7360309792769469  0.23648146159945327  0.23212116714402958  1.0000
  C   C32       1.0  0.2639723757696757  0.763525065446892  0.7678834039808466  1.0000
  C   C33       1.0  0.6330817871126015  0.1012492702983963  0.2076047845118155  1.0000
  C   C34       1.0  0.3669289232223676  0.8987572577489475  0.7924006314511519  1.0000
  C   C35       1.0  0.6417360981987342  0.03346983880712881  0.28959438699771317  1.0000
  C   C36       1.0  0.3582733792356266  0.9665293344333252  0.710414868280282  1.0000
  C   C37       1.0  0.837189950094178  0.2938073473548428  0.3360399143810896  1.0000
  C   C38       1.0  0.1628103432506833  0.7061960447271928  0.6639599355759176  1.0000
  C   C39       1.0  0.8372638153915232  0.22342084642031074  0.41306265114010193  1.0000
  C   C40       1.0  0.16273511463542434  0.7765815076913327  0.5869331247821635  1.0000
  N   N1        1.0  0.23248325346577314  0.9914362055507274  0.9919455314871047  1.0000
  N   N2        1.0  0.7675206754429026  0.0085755687042806  0.008058415976968516  1.0000
  N   N3        1.0  0.13176061398797861  0.2009517803154708  0.6789655950660178  1.0000
  N   N4        1.0  0.8682410648613299  0.7990526706345378  0.3210310526276247  1.0000
  N   N5        1.0  0.6176961740727833  0.28420885374676896  0.06393580869221441  1.0000
  N   N6        1.0  0.38229877201253254  0.7157840466298566  0.9360636624034984  1.0000
  N   N7        1.0  0.7394543269524333  0.09514729389641731  0.38667541760228386  1.0000
  N   N8        1.0  0.26055022669924444  0.9048529328759611  0.6133314704721472  1.0000
  O   O1        1.0  0.5337422870785248  0.033911271640526805  0.11500322763796336  1.0000
  O   O2        1.0  0.46626544451255825  0.9660889797423239  0.884995602793538  1.0000
  O   O3        1.0  0.3189068813128983  0.24694515917158813  0.9520920478595517  1.0000
  O   O4        1.0  0.681086119733628  0.7530550714014553  0.04791164156406322  1.0000
  O   O5        1.0  0.5469893886346141  0.4927046894031689  0.2227468990435072  1.0000
  O   O6        1.0  0.45300864355762366  0.5072913689250883  0.7772492892921365  1.0000
  O   O7        1.0  0.30272882400994655  0.31084828804134185  0.3898354952644639  1.0000
  O   O8        1.0  0.6972715478554862  0.6891519581609984  0.6101639455885606  1.0000
  O   O9        1.0  0.3561998452738776  0.23833685717028166  0.18814503110492353  1.0000
  O   O10       1.0  0.6437980950858915  0.7616623344991424  0.8118559321135735  1.0000
  O   O11       1.0  0.2711200144409389  0.48094645838101263  0.24181220489359134  1.0000
  O   O12       1.0  0.7288776086021259  0.5190516909829556  0.7581863641880562  1.0000
  O   O13       1.0  0.5740524318831602  0.3612072357726889  0.39028792528864653  1.0000
  O   O14       1.0  0.42594697250161306  0.6387898688849987  0.6097094265625034  1.0000
  O   O15       1.0  0.3928887367666433  0.07056685303205511  0.3423460367371051  1.0000
  O   O16       1.0  0.6071113089074843  0.9294323425058058  0.6576539204983194  1.0000
  O   O17       1.0  0.19272066484412417  0.38277587337998403  0.5551472595428921  1.0000
  O   O18       1.0  0.8072790590760023  0.6172222756729158  0.4448517588152969  1.0000
  O   O19       1.0  0.2062015224977714  0.5453469648844375  0.41454068251548654  1.0000
  O   O20       1.0  0.7937961005453006  0.4546511844795306  0.5854578865661609  1.0000
  O   O21       1.0  0.30086623353253833  0.11234093566029911  0.5113692994744882  1.0000
  O   O22       1.0  0.6991334096483683  0.8876603571825399  0.48863085561750114  1.0000
  O   O23       1.0  0.6053488283932111  0.19710372570616388  0.5432019520258964  1.0000
  O   O24       1.0  0.3946498473070363  0.8028944255920223  0.4567961140642043  1.0000
  O   O25       1.0  0.4172899709796027  0.7503845628078241  0.2575129156303363  1.0000
  O   O26       1.0  0.5827085454608677  0.24961987816001147  0.7424866962975473  1.0000
  O   O27       1.0  0.4948258131342768  0.5820288170692437  0.427611536299125  1.0000
  O   O28       1.0  0.5051731821013163  0.4179703786241547  0.5723881962980217  1.0000
  O   O29       1.0  0.1407836111166177  0.7072582285037045  0.2666085630856332  1.0000
  O   O30       1.0  0.8592157888308519  0.29273887197446413  0.7333902440251382  1.0000
