data_image0
_chemical_formula_structural       Cd8H112C144N24O56
_chemical_formula_sum              "Cd8 H112 C144 N24 O56"
_cell_length_a       12.417605225124777
_cell_length_b       15.594480823116832
_cell_length_c       24.189314376154197
_cell_angle_alpha    89.99977543807361
_cell_angle_beta     89.99966121200869
_cell_angle_gamma    90.00038571147634

_space_group_name_H-M_alt    "P 1"
_space_group_IT_number       1

loop_
  _space_group_symop_operation_xyz
  'x, y, z'

loop_
  _atom_site_type_symbol
  _atom_site_label
  _atom_site_symmetry_multiplicity
  _atom_site_fract_x
  _atom_site_fract_y
  _atom_site_fract_z
  _atom_site_occupancy
  Cd  Cd1       1.0  0.6770073782612511  0.42747511076673556  0.7323048560804466  1.0000
  Cd  Cd2       1.0  0.8229939638885496  0.9274869063148542  0.7676907213640407  1.0000
  Cd  Cd3       1.0  0.6770012901461512  0.07251508732475999  0.2676947674642492  1.0000
  Cd  Cd4       1.0  0.8229898920766839  0.5725200510310839  0.2323130213445808  1.0000
  Cd  Cd5       1.0  0.32299473149616625  0.5725218093802906  0.2676909748478238  1.0000
  Cd  Cd6       1.0  0.17701619892783776  0.07251899135516739  0.23231585808869684  1.0000
  Cd  Cd7       1.0  0.32299357179152816  0.927476702769823  0.7323051975381675  1.0000
  Cd  Cd8       1.0  0.17700658052913093  0.42748392286553377  0.7676869436404774  1.0000
  H   H1        1.0  0.5043296973904744  0.960229542835151  0.6101344071312625  1.0000
  H   H2        1.0  0.5691665288350976  0.06945004278204436  0.5392772507634405  1.0000
  H   H3        1.0  0.6258823933011043  0.2165219881558045  0.5747186668737428  1.0000
  H   H4        1.0  0.6080748032985851  0.11214621803220129  0.8855870787901524  1.0000
  H   H5        1.0  0.43441435739750023  0.19511607968824046  0.9028051752895152  1.0000
  H   H6        1.0  0.3210501486375604  0.2369244137349185  0.8212039762744682  1.0000
  H   H7        1.0  0.4632207772554721  0.38497785699666304  0.8078443737952554  1.0000
  H   H8        1.0  0.40251852023343554  0.3905210162441718  0.9055479315674476  1.0000
  H   H9        1.0  0.7119818016212063  0.5007902135932412  0.9468705299958419  1.0000
  H   H10       1.0  0.7572060492410984  0.4944826500866241  0.8459391251936453  1.0000
  H   H11       1.0  0.5898481671743311  0.4413954921399536  0.021644895637614108  1.0000
  H   H12       1.0  0.45722673653660445  0.4078147199431824  0.004833996865905  1.0000
  H   H13       1.0  0.8984208854102744  0.40497849587627843  0.7785621613855228  1.0000
  H   H14       1.0  0.8482594550237222  0.3077914255844191  0.7747226447835587  1.0000
  H   H15       1.0  0.9956542055855733  0.4602364183287546  0.8898499282521541  1.0000
  H   H16       1.0  0.9308285581815665  0.5694560743655045  0.960707213912869  1.0000
  H   H17       1.0  0.8741268249853317  0.7165337100359747  0.9252637843103815  1.0000
  H   H18       1.0  0.8919077605541472  0.6121407472907876  0.6143964546432201  1.0000
  H   H19       1.0  0.06556127730952  0.6951179492403411  0.5971718250339253  1.0000
  H   H20       1.0  0.17893469878003293  0.7369308665383655  0.6787708547084534  1.0000
  H   H21       1.0  0.036765324603066994  0.8849719230799167  0.6921524188653339  1.0000
  H   H22       1.0  0.0974700444596195  0.8905006297087326  0.5944492609502988  1.0000
  H   H23       1.0  0.7880135087386644  0.0007769292881789996  0.5531231976187742  1.0000
  H   H24       1.0  0.7427861970035108  0.994483828151985  0.6540546347076202  1.0000
  H   H25       1.0  0.9101541940325147  0.941374369914399  0.4783483482588267  1.0000
  H   H26       1.0  0.0427749555570145  0.9077985813256289  0.49516498784317525  1.0000
  H   H27       1.0  0.6015818766486233  0.9049791374049644  0.7214371917640533  1.0000
  H   H28       1.0  0.6517352356535324  0.8077858987391763  0.7252781863905399  1.0000
  H   H29       1.0  0.5043396477538662  0.5397673741189732  0.3898554246340496  1.0000
  H   H30       1.0  0.5691677039192341  0.43054663240871344  0.4607140200710021  1.0000
  H   H31       1.0  0.6258746753733817  0.28347306656725374  0.42527201763268613  1.0000
  H   H32       1.0  0.6080973042354215  0.3878577190796122  0.1144015929297879  1.0000
  H   H33       1.0  0.4344339367818363  0.3048939824803368  0.09718071870695161  1.0000
  H   H34       1.0  0.32105635848299124  0.26308888965591837  0.17878019637988982  1.0000
  H   H35       1.0  0.4632255792171377  0.11503300040583748  0.19215218093403058  1.0000
  H   H36       1.0  0.40252278491543336  0.10949657030327128  0.09444880824759852  1.0000
  H   H37       1.0  0.7119721258339948  0.9992039662692774  0.053129003772483  1.0000
  H   H38       1.0  0.7572039175097841  0.0055143894385238975  0.1540598403893725  1.0000
  H   H39       1.0  0.5898434763602153  0.058611553663652685  0.9783512729988646  1.0000
  H   H40       1.0  0.45722455344989743  0.09219546412206371  0.99516588339732  1.0000
  H   H41       1.0  0.898417934254709  0.09501609257912952  0.2214400942609345  1.0000
  H   H42       1.0  0.8482596993145177  0.19220545961044877  0.2252859648925565  1.0000
  H   H43       1.0  0.9956625312616649  0.0397631789327804  0.1101483102362337  1.0000
  H   H44       1.0  0.9308393971648312  0.930536710910573  0.0392941329529606  1.0000
  H   H45       1.0  0.874139232434217  0.7834606957521257  0.07474186950268091  1.0000
  H   H46       1.0  0.8918973555007526  0.8878518297828889  0.3856050109324586  1.0000
  H   H47       1.0  0.0655507769085588  0.8048766211212096  0.40283092001615023  1.0000
  H   H48       1.0  0.17893202747643497  0.7630694401757268  0.3212319580303813  1.0000
  H   H49       1.0  0.0367704106121991  0.6150276233473376  0.307849587148077  1.0000
  H   H50       1.0  0.09747315802352569  0.609497317598837  0.40555297337306945  1.0000
  H   H51       1.0  0.7880210615770337  0.49921065621828103  0.446879808079828  1.0000
  H   H52       1.0  0.7427955552814396  0.505507310228168  0.34594811235216844  1.0000
  H   H53       1.0  0.910153129299715  0.5586150985010004  0.5216534750751124  1.0000
  H   H54       1.0  0.042771952262363286  0.5921977909500241  0.5048390668903053  1.0000
  H   H55       1.0  0.6015742438949586  0.5950125282674815  0.2785713601547286  1.0000
  H   H56       1.0  0.6517421607299878  0.6922009051375041  0.274740134320858  1.0000
  H   H57       1.0  0.4956571114562178  0.03976417098635918  0.3898684517208508  1.0000
  H   H58       1.0  0.4308299436993862  0.9305359760468332  0.4607218874322144  1.0000
  H   H59       1.0  0.37411810577904697  0.7834633894352193  0.4252792310995164  1.0000
  H   H60       1.0  0.39192327987142045  0.8878442895685693  0.11441205939755862  1.0000
  H   H61       1.0  0.5655853363700628  0.8048744279064619  0.09719727014119431  1.0000
  H   H62       1.0  0.678951155772985  0.7630712238867828  0.17879764233614992  1.0000
  H   H63       1.0  0.536778111302567  0.6150286819255367  0.1921526973432108  1.0000
  H   H64       1.0  0.5974755365613261  0.6095047602430624  0.09444831274348081  1.0000
  H   H65       1.0  0.2880195029460636  0.49922786790008183  0.053120340039591  1.0000
  H   H66       1.0  0.24280169768254467  0.5055123463270091  0.15405381188861614  1.0000
  H   H67       1.0  0.4101603852507693  0.5586411856981922  0.978345147552652  1.0000
  H   H68       1.0  0.5427834264647159  0.5922219578772284  0.9951630742184964  1.0000
  H   H69       1.0  0.10158122435529289  0.5950203480282853  0.22143366954039584  1.0000
  H   H70       1.0  0.15173862820294198  0.692207418310673  0.2252727727428194  1.0000
  H   H71       1.0  0.004346293528570298  0.5397592192972737  0.1101496233312744  1.0000
  H   H72       1.0  0.06915905597875849  0.4305344332059704  0.03929233769648731  1.0000
  H   H73       1.0  0.12586159448358808  0.2834574387888722  0.07473618070264372  1.0000
  H   H74       1.0  0.10810240230900797  0.38786835665994346  0.38560433712604697  1.0000
  H   H75       1.0  0.9344504961348858  0.3048873071892472  0.40283227398305144  1.0000
  H   H76       1.0  0.8210730481058163  0.2630731073689531  0.3212353113446369  1.0000
  H   H77       1.0  0.9632311479810125  0.11502692079660189  0.3078475461259984  1.0000
  H   H78       1.0  0.9025224016015085  0.10950142042217689  0.4055498772318843  1.0000
  H   H79       1.0  0.21197168949186107  0.9992174257802445  0.44688007464068863  1.0000
  H   H80       1.0  0.2572038330769004  0.005511168180575499  0.34594905094937906  1.0000
  H   H81       1.0  0.0898293936127175  0.058625115174997695  0.5216532703740883  1.0000
  H   H82       1.0  0.9572094374086714  0.09220154502362019  0.5048349771650038  1.0000
  H   H83       1.0  0.3984250648720291  0.09502034771187341  0.27857558878666583  1.0000
  H   H84       1.0  0.3482676793088401  0.19220845634939104  0.27473376736122657  1.0000
  H   H85       1.0  0.49566326732400506  0.4602301872879052  0.610138752669485  1.0000
  H   H86       1.0  0.4308360164703088  0.5694528527552619  0.5392809840403103  1.0000
  H   H87       1.0  0.37412501848199037  0.7165264185898435  0.574721746267727  1.0000
  H   H88       1.0  0.3919128586500449  0.6121488198792164  0.8855934111630718  1.0000
  H   H89       1.0  0.5655746155383382  0.6951196102634895  0.9028105647286041  1.0000
  H   H90       1.0  0.6789417248413655  0.7369240618151804  0.8212086066383224  1.0000
  H   H91       1.0  0.5367765305851434  0.8849767447862359  0.8078453036012763  1.0000
  H   H92       1.0  0.5974640239614286  0.8905003497898745  0.9055511567608222  1.0000
  H   H93       1.0  0.28801468297743327  0.0007859000267914  0.9468771623297914  1.0000
  H   H94       1.0  0.24279819224098984  0.9944921494702468  0.8459442586407706  1.0000
  H   H95       1.0  0.41015299612136863  0.9413686938770593  0.021652826072035208  1.0000
  H   H96       1.0  0.5427703084493983  0.9077867071861405  0.0048336682111838  1.0000
  H   H97       1.0  0.10157531706380496  0.9049795450158481  0.7785631779846867  1.0000
  H   H98       1.0  0.15173596791592558  0.8077927429880701  0.7747214414030594  1.0000
  H   H99       1.0  0.004339578480262698  0.9602401537160289  0.8898549619864653  1.0000
  H   H100      1.0  0.0691651284815151  0.0694640567294584  0.9607107928919165  1.0000
  H   H101      1.0  0.12587576220181515  0.2165381481531838  0.9252647099513214  1.0000
  H   H102      1.0  0.10809911704534869  0.11214252531567576  0.6143982613098231  1.0000
  H   H103      1.0  0.9344481115738715  0.19512158149630204  0.5971731790290989  1.0000
  H   H104      1.0  0.8210668610002185  0.23692683868554096  0.6787717276115401  1.0000
  H   H105      1.0  0.9632284778926061  0.3849725030354846  0.6921520314607292  1.0000
  H   H106      1.0  0.902524925162851  0.3905015262742139  0.5944494720498953  1.0000
  H   H107      1.0  0.21198024281206776  0.500776003877327  0.5531189167019975  1.0000
  H   H108      1.0  0.25721138627869067  0.4944819148938605  0.6540501990122395  1.0000
  H   H109      1.0  0.08983770609362549  0.4413754090790859  0.4783460765293341  1.0000
  H   H110      1.0  0.9572180778010447  0.4077920753650303  0.49516379196160193  1.0000
  H   H111      1.0  0.39842383930326253  0.4049863156120494  0.7214290182398246  1.0000
  H   H112      1.0  0.3482607542947561  0.30779922124441567  0.7252652049329458  1.0000
  C   C1        1.0  0.5271432848908474  0.025757295758545195  0.6201122348534014  1.0000
  C   C2        1.0  0.5632183444285771  0.08648925196545319  0.5828539184917646  1.0000
  C   C3        1.0  0.5930987353273166  0.16743650025768628  0.6019688258207978  1.0000
  C   C4        1.0  0.5816301049342697  0.18748248906970838  0.6578662278196035  1.0000
  C   C5        1.0  0.5429925511158656  0.12521472793788035  0.6945846421465165  1.0000
  C   C6        1.0  0.5206183942788697  0.14032110793675656  0.7541659248445642  1.0000
  C   C7        1.0  0.5859945677141667  0.11416317324518839  0.7978636645418292  1.0000
  C   C8        1.0  0.5559901630110459  0.1333120054835817  0.8520855626697712  1.0000
  C   C9        1.0  0.4606868999022281  0.17808012473281554  0.8612632593361627  1.0000
  C   C10       1.0  0.39610233585024446  0.20167112896359637  0.8171740263916762  1.0000
  C   C11       1.0  0.6172088761538602  0.2746114229378235  0.6782172018868735  1.0000
  C   C12       1.0  0.6850102915705206  0.0625522685880924  0.7854270935975336  1.0000
  C   C13       1.0  0.5163074249265377  0.40997776886028686  0.8398968449967228  1.0000
  C   C14       1.0  0.48334021625894497  0.41250981438033557  0.8949013449254011  1.0000
  C   C15       1.0  0.5535863572434748  0.4448084831010418  0.934963102714278  1.0000
  C   C16       1.0  0.6544466102587164  0.47426410096701926  0.9173336410169668  1.0000
  C   C17       1.0  0.6808247854895981  0.4705200726834419  0.8616586086008554  1.0000
  C   C18       1.0  0.52082047963286  0.45414292222432096  0.9942984319360166  1.0000
  C   C19       1.0  0.9728465999885142  0.5257544402851833  0.8798710965277224  1.0000
  C   C20       1.0  0.9367776923192749  0.5864975124480052  0.9171267838394004  1.0000
  C   C21       1.0  0.9069020138793462  0.6674395908168549  0.8980145722956365  1.0000
  C   C22       1.0  0.9183724247917339  0.6874872740786555  0.8421129871886991  1.0000
  C   C23       1.0  0.9570013978376648  0.625216743584751  0.8053972056628923  1.0000
  C   C24       1.0  0.9793668243183972  0.6403242581763492  0.7458129921762052  1.0000
  C   C25       1.0  0.9139880132792301  0.61416753042198  0.7021186237275644  1.0000
  C   C26       1.0  0.9439909696457389  0.6333149394539388  0.6478937849123484  1.0000
  C   C27       1.0  0.039285369194672584  0.6780835169648894  0.6387170899178756  1.0000
  C   C28       1.0  0.10387577032673789  0.7016784375839007  0.6828075053456075  1.0000
  C   C29       1.0  0.882802444975091  0.7746148628289616  0.821764280365379  1.0000
  C   C30       1.0  0.8149726573482282  0.5625515294640522  0.7145561477653077  1.0000
  C   C31       1.0  0.9836824945422932  0.9099686547753619  0.6600991887071928  1.0000
  C   C32       1.0  0.016646924165293297  0.9124934176021141  0.6050966206010032  1.0000
  C   C33       1.0  0.9464038573609058  0.9447920708904646  0.5650316055607547  1.0000
  C   C34       1.0  0.8455470752075197  0.9742515275689027  0.5826605817733325  1.0000
  C   C35       1.0  0.8191704788960193  0.9705140628012782  0.6383352099338496  1.0000
  C   C36       1.0  0.9791746459041019  0.9541244923974971  0.5056979071181544  1.0000
  C   C37       1.0  0.5271505889504623  0.47424107846759267  0.3798795775124831  1.0000
  C   C38       1.0  0.5632190695006684  0.4135099564353623  0.4171336498263259  1.0000
  C   C39       1.0  0.5930981882852464  0.3325622266724081  0.39802278544542  1.0000
  C   C40       1.0  0.5816316395904337  0.3125168177980271  0.3421212843560397  1.0000
  C   C41       1.0  0.5430014768957249  0.3747824485534748  0.3054054682680914  1.0000
  C   C42       1.0  0.520634317718958  0.35968107894841944  0.24582094653101197  1.0000
  C   C43       1.0  0.5860128244454044  0.38583615699771906  0.20212714154563122  1.0000
  C   C44       1.0  0.5560080739134958  0.3666884468176121  0.1479003740380236  1.0000
  C   C45       1.0  0.4607077579257747  0.3219287954313187  0.13872462157799256  1.0000
  C   C46       1.0  0.39611765659447673  0.29833680455134004  0.18281033081208886  1.0000
  C   C47       1.0  0.6172066845722382  0.2253880741848491  0.32177268224160127  1.0000
  C   C48       1.0  0.6850304536609925  0.4374456674260755  0.21456506419293933  1.0000
  C   C49       1.0  0.51631077192296  0.09003208993034657  0.1601016148927243  1.0000
  C   C50       1.0  0.4833441724896088  0.08750115060942677  0.1050976288909879  1.0000
  C   C51       1.0  0.5535888884974652  0.055197727539947984  0.06503441669867982  1.0000
  C   C52       1.0  0.6544430525828558  0.025736877778385292  0.0826635708688315  1.0000
  C   C53       1.0  0.6808198158564309  0.029481688377963198  0.13833893625955804  1.0000
  C   C54       1.0  0.5208171696711756  0.04586439567654569  0.005699187394135701  1.0000
  C   C55       1.0  0.972860909003053  0.9742456234898282  0.12012929539123722  1.0000
  C   C56       1.0  0.9367959402972942  0.9135010759347323  0.0828749582736279  1.0000
  C   C57       1.0  0.906916940852632  0.8325575552686502  0.1019905681665279  1.0000
  C   C58       1.0  0.9183873462238662  0.8125137808622398  0.1578929451044999  1.0000
  C   C59       1.0  0.9570132047718612  0.8747883654581939  0.19460530159727096  1.0000
  C   C60       1.0  0.9793786253464062  0.8596828942327902  0.2541894468848582  1.0000
  C   C61       1.0  0.9139914818672207  0.885836707317594  0.2978827744856433  1.0000
  C   C62       1.0  0.9439847958334151  0.8666862524561052  0.35210586821161644  1.0000
  C   C63       1.0  0.039280321376125485  0.8219147604059669  0.361285321834103  1.0000
  C   C64       1.0  0.10387666527897468  0.7983240327387975  0.31719594966033077  1.0000
  C   C65       1.0  0.8828051204414605  0.7253904906107351  0.1782450676465857  1.0000
  C   C66       1.0  0.8149759006215118  0.93744768998431  0.2854443121547234  1.0000
  C   C67       1.0  0.9836853905697893  0.5900282606496673  0.3399032372206393  1.0000
  C   C68       1.0  0.016652389361063096  0.5875040974729867  0.3949066869763414  1.0000
  C   C69       1.0  0.9464110053890946  0.55520400393128  0.4349705206258748  1.0000
  C   C70       1.0  0.8455533704065273  0.5257414428657796  0.4173418519506599  1.0000
  C   C71       1.0  0.8191750282054285  0.5294762015598663  0.3616668908178866  1.0000
  C   C72       1.0  0.9791778132862132  0.5458723989193146  0.4943049459603018  1.0000
  C   C73       1.0  0.4728523823405267  0.9742338530791981  0.3798897971769792  1.0000
  C   C74       1.0  0.43678134937898244  0.9135051031572842  0.4171443928774182  1.0000
  C   C75       1.0  0.4069033744043222  0.8325565723690785  0.3980286587349084  1.0000
  C   C76       1.0  0.41837119949929047  0.8125118660625216  0.3421304299244028  1.0000
  C   C77       1.0  0.45700955862970705  0.8747821922026588  0.3054132558101657  1.0000
  C   C78       1.0  0.47938291014728657  0.8596770946975808  0.24583486695154733  1.0000
  C   C79       1.0  0.414007542023313  0.8858363118950264  0.20213754065716932  1.0000
  C   C80       1.0  0.4440127520071682  0.8666804258824568  0.14791522913094474  1.0000
  C   C81       1.0  0.5393160151237878  0.8219135891395409  0.1387371190573106  1.0000
  C   C82       1.0  0.6039021897953489  0.7983238674167977  0.1828267654034477  1.0000
  C   C83       1.0  0.3827924282793445  0.7253822909431875  0.32177904245223493  1.0000
  C   C84       1.0  0.31499584472147285  0.9374497815742373  0.21457369818650562  1.0000
  C   C85       1.0  0.48369468489979534  0.5900326175959733  0.1600969188866657  1.0000
  C   C86       1.0  0.5166570617647321  0.5875127558581427  0.10509324576181463  1.0000
  C   C87       1.0  0.44641414203733376  0.5552192171674333  0.0650310745560674  1.0000
  C   C88       1.0  0.34555630492234707  0.5257533392781041  0.08265722901678882  1.0000
  C   C89       1.0  0.3191813508457528  0.5294832600046602  0.1383355686907137  1.0000
  C   C90       1.0  0.47918485150869106  0.545887984318341  0.005696158728717602  1.0000
  C   C91       1.0  0.027148261970211293  0.4742411973270676  0.12012804165862433  1.0000
  C   C92       1.0  0.06321153247420598  0.4134974838940692  0.08287318116768462  1.0000
  C   C93       1.0  0.09308801620984748  0.33255412301845405  0.10198663292884191  1.0000
  C   C94       1.0  0.08162324245287778  0.31250643977043774  0.1578886314328614  1.0000
  C   C95       1.0  0.042999101274801894  0.37478017654240847  0.19460358613601872  1.0000
  C   C96       1.0  0.020632869507899398  0.35967843321996895  0.25418821302255173  1.0000
  C   C97       1.0  0.08601490180789277  0.38583836725329224  0.29788010102826956  1.0000
  C   C98       1.0  0.056016777291951286  0.3666928819878947  0.3521061800508108  1.0000
  C   C99       1.0  0.9607223777128482  0.32192109820531556  0.3612857688889762  1.0000
  C   C100      1.0  0.8961295606319694  0.2983255363156658  0.3171990741168501  1.0000
  C   C101      1.0  0.11719885944192747  0.22538398105140797  0.17823857845835533  1.0000
  C   C102      1.0  0.18502381527863312  0.43745629195023367  0.2854429904036806  1.0000
  C   C103      1.0  0.01630995150796369  0.0900308303454977  0.33989994947813074  1.0000
  C   C104      1.0  0.9833447165726664  0.08750735001643759  0.39490417120670435  1.0000
  C   C105      1.0  0.05358456214096208  0.05520741421574369  0.4349687728477464  1.0000
  C   C106      1.0  0.15444214956531968  0.025744751263928792  0.4173439306946847  1.0000
  C   C107      1.0  0.18082035650449052  0.029480933539915096  0.3616664086935161  1.0000
  C   C108      1.0  0.020808136430503096  0.045874992688446484  0.4943041249216763  1.0000
  C   C109      1.0  0.47285232612914274  0.5257596891953681  0.6201166668155411  1.0000
  C   C110      1.0  0.43678304028825454  0.5864882462309493  0.5828576336378788  1.0000
  C   C111      1.0  0.40690311618259045  0.6674385409888327  0.6019726320736895  1.0000
  C   C112      1.0  0.4183688595877584  0.687483308620216  0.657870412513951  1.0000
  C   C113      1.0  0.45700143818625344  0.625218319110779  0.6945903626542461  1.0000
  C   C114      1.0  0.47937262393683966  0.640322894999535  0.7541715771358142  1.0000
  C   C115      1.0  0.4139925065782818  0.6141652519332865  0.797866208938153  1.0000
  C   C116      1.0  0.444002088987524  0.6333161683966536  0.852090496000379  1.0000
  C   C117      1.0  0.5393015996911003  0.6780809498021795  0.8612658350496789  1.0000
  C   C118      1.0  0.6038900904058763  0.7016729406778525  0.817180125818034  1.0000
  C   C119      1.0  0.38278978806977176  0.7746126934764345  0.6782186012280604  1.0000
  C   C120      1.0  0.3149789039175488  0.5625589477782496  0.7854282862807765  1.0000
  C   C121      1.0  0.483683284746938  0.9099731664557638  0.8399012439342144  1.0000
  C   C122      1.0  0.5166514947469095  0.9124951282393423  0.8949072969728962  1.0000
  C   C123      1.0  0.4464075840312914  0.9447908562898986  0.9349676153336051  1.0000
  C   C124      1.0  0.34555100404455164  0.9742555535639636  0.9173372209453918  1.0000
  C   C125      1.0  0.31917182490291646  0.9705235680094617  0.8616614421369775  1.0000
  C   C126      1.0  0.47917366567465075  0.9541171343631943  0.994302017844021  1.0000
  C   C127      1.0  0.02714764319544119  0.025757709171017495  0.8798756304443671  1.0000
  C   C128      1.0  0.06321824904539848  0.08649905047862919  0.9171299675573011  1.0000
  C   C129      1.0  0.09309644317943369  0.16744257114125818  0.898014771071317  1.0000
  C   C130      1.0  0.08162523251318278  0.18748891055686553  0.8421119807257469  1.0000
  C   C131      1.0  0.04299534743715581  0.1252168909614895  0.8053992108302951  1.0000
  C   C132      1.0  0.020627510924597893  0.14031979716908433  0.7458154789552083  1.0000
  C   C133      1.0  0.08600821192652566  0.11416277780579519  0.7021217379624929  1.0000
  C   C134      1.0  0.056009260819131185  0.1333132326612798  0.647895750405347  1.0000
  C   C135      1.0  0.960718567110696  0.17808280096291898  0.6387175369948893  1.0000
  C   C136      1.0  0.896122223210213  0.20167352863138888  0.6828064957629751  1.0000
  C   C137      1.0  0.1171961839793738  0.2746154070330036  0.8217623386310253  1.0000
  C   C138      1.0  0.18502298786358298  0.06254666512849379  0.7145564796497793  1.0000
  C   C139      1.0  0.016312692603001694  0.40996737696082153  0.6600992082062476  1.0000
  C   C140      1.0  0.9833456938286669  0.41249218139779487  0.6050932780156729  1.0000
  C   C141      1.0  0.053589493701984695  0.44478842742699937  0.5650306845842081  1.0000
  C   C142      1.0  0.15444712868789878  0.4742484234902377  0.5826568728284728  1.0000
  C   C143      1.0  0.18082627618910857  0.47051174104076665  0.6383318339623685  1.0000
  C   C144      1.0  0.02081704864337299  0.4541219561749443  0.5056983262844312  1.0000
  N   N1        1.0  0.6131145505030702  0.4385413897004184  0.8235249706538285  1.0000
  N   N2        1.0  0.4255639550509897  0.1825312685553016  0.7643085131220176  1.0000
  N   N3        1.0  0.5196826756608245  0.04475036218445889  0.6748868221981185  1.0000
  N   N4        1.0  0.8868740004329109  0.9385393502410719  0.676470579751225  1.0000
  N   N5        1.0  0.07442526324375358  0.6825335993110497  0.7356701715941371  1.0000
  N   N6        1.0  0.9803073701827713  0.5447504551729309  0.8250960493031343  1.0000
  N   N7        1.0  0.6131142464778775  0.0614638567791204  0.17647278065709324  1.0000
  N   N8        1.0  0.42557158403686657  0.3174755399874485  0.23567740788328  1.0000
  N   N9        1.0  0.5196896415250051  0.45524733089595054  0.3251029458895758  1.0000
  N   N10       1.0  0.8868784526764483  0.5614570474620421  0.3235325547687893  1.0000
  N   N11       1.0  0.07443014780974978  0.8174719197869961  0.2643329597967252  1.0000
  N   N12       1.0  0.9803216955042868  0.955254137275851  0.17490225283248864  1.0000
  N   N13       1.0  0.386885143350966  0.5614600192090293  0.1764704468669507  1.0000
  N   N14       1.0  0.5744373493819309  0.8174662928317104  0.2356906250521504  1.0000
  N   N15       1.0  0.4803178234340136  0.9552446341799834  0.3251156232258694  1.0000
  N   N16       1.0  0.11312005620166589  0.061457569862383786  0.32353227908591725  1.0000
  N   N17       1.0  0.9255792624022443  0.31746652707776946  0.2643343408458492  1.0000
  N   N18       1.0  0.019688297086581496  0.45524518244277346  0.17490267547630373  1.0000
  N   N19       1.0  0.38687739430592666  0.9385471708809091  0.8235275977323866  1.0000
  N   N20       1.0  0.5744289151576324  0.6825284339458688  0.764314288982007  1.0000
  N   N21       1.0  0.48031327356338943  0.5447521542697585  0.6748908180059203  1.0000
  N   N22       1.0  0.1131236570416618  0.4385373076593808  0.6764682370308039  1.0000
  N   N23       1.0  0.9255711566130599  0.18252884784961046  0.7356703124303436  1.0000
  N   N24       1.0  0.0196892726338831  0.04475047790166539  0.8251010193751329  1.0000
  O   O1        1.0  0.5902840101646304  0.2960771252169891  0.7271838794593606  1.0000
  O   O2        1.0  0.6736396192379955  0.32036439987050597  0.6461495945552189  1.0000
  O   O3        1.0  0.7262271678301885  0.0189772231023539  0.8248891368203318  1.0000
  O   O4        1.0  0.718136116807045  0.060680696099318275  0.7359965414256993  1.0000
  O   O5        1.0  0.49523729119653837  0.9829949520659936  0.7099846808554845  1.0000
  O   O6        1.0  0.36560023508138767  0.20585551668133917  0.7225839539583846  1.0000
  O   O7        1.0  0.8341072665889084  0.3708239620352671  0.7691804726799418  1.0000
  O   O8        1.0  0.909737156578643  0.7960874287660785  0.7728004440891213  1.0000
  O   O9        1.0  0.8263632312172147  0.8203647718191647  0.8538292953357925  1.0000
  O   O10       1.0  0.7737674913814202  0.5189630447838169  0.6750966915902554  1.0000
  O   O11       1.0  0.7818379579186824  0.5606935773196965  0.7639867045131867  1.0000
  O   O12       1.0  0.004755278531277399  0.4829972635085796  0.7899998832019437  1.0000
  O   O13       1.0  0.13439562330233198  0.7058470051522077  0.7773917798536945  1.0000
  O   O14       1.0  0.6658726571800527  0.8708191172183603  0.7308549303713792  1.0000
  O   O15       1.0  0.5902636759815463  0.20391260906300349  0.2728106342704564  1.0000
  O   O16       1.0  0.673655194394186  0.1796405291241285  0.35383474319716884  1.0000
  O   O17       1.0  0.7262425145387824  0.48103375836495826  0.1751057891228953  1.0000
  O   O18       1.0  0.7181605597806923  0.439303950781941  0.2639942751502745  1.0000
  O   O19       1.0  0.49523691921947927  0.5170006337299782  0.29000517865173964  1.0000
  O   O20       1.0  0.3656015508775638  0.2941586661982427  0.27740049626601865  1.0000
  O   O21       1.0  0.834108523760406  0.1291702824492376  0.2308339678302218  1.0000
  O   O22       1.0  0.9097455311242654  0.7039161449800913  0.2272075815700276  1.0000
  O   O23       1.0  0.8263521964063257  0.6796441272531694  0.1461843588438683  1.0000
  O   O24       1.0  0.7737625984772547  0.9810321067641893  0.3249043073955279  1.0000
  O   O25       1.0  0.7818466155789704  0.9393099537074717  0.2360142698332481  1.0000
  O   O26       1.0  0.004764682388000099  0.017008577056039097  0.20999806947837382  1.0000
  O   O27       1.0  0.13440320461648267  0.7941588346675771  0.22261199548254504  1.0000
  O   O28       1.0  0.665893607421303  0.6291664797020572  0.26919352582708467  1.0000
  O   O29       1.0  0.40972454203541986  0.7039159474282995  0.27281319168084656  1.0000
  O   O30       1.0  0.3263568533633148  0.6796312377603114  0.35384499616617404  1.0000
  O   O31       1.0  0.2737854109540335  0.9810338046058928  0.17511372197130737  1.0000
  O   O32       1.0  0.2818676035594904  0.9393200715541211  0.2640034235522251  1.0000
  O   O33       1.0  0.5047648185164846  0.016998761801616497  0.29001652435057684  1.0000
  O   O34       1.0  0.6344034852702263  0.7941439684618884  0.277417664643842  1.0000
  O   O35       1.0  0.16589967508851086  0.6291761644183537  0.2308054365006811  1.0000
  O   O36       1.0  0.09027783808184608  0.20391718641183582  0.2272061353578181  1.0000
  O   O37       1.0  0.17362438292720833  0.17962701824567515  0.14617397692312303  1.0000
  O   O38       1.0  0.22624186615475134  0.48103772289118035  0.32490120635066694  1.0000
  O   O39       1.0  0.21814965637268804  0.43932450411757873  0.23601036662834932  1.0000
  O   O40       1.0  0.9952379728143439  0.5170002978543025  0.2100000817958687  1.0000
  O   O41       1.0  0.8656072917159462  0.29414991497104365  0.22261231918698604  1.0000
  O   O42       1.0  0.33411093016140103  0.1291752376966571  0.2691958835439365  1.0000
  O   O43       1.0  0.40971266390557287  0.7960817460076582  0.7271843698888818  1.0000
  O   O44       1.0  0.3263606057025469  0.8203640861259486  0.6461495123417296  1.0000
  O   O45       1.0  0.27376523242561746  0.5189708568363542  0.8248871479475925  1.0000
  O   O46       1.0  0.28184879777952426  0.5606974581572285  0.7359999021387298  1.0000
  O   O47       1.0  0.5047635799397553  0.4829994926778909  0.7099898254637084  1.0000
  O   O48       1.0  0.634398948341328  0.7058465902504664  0.7225878933522409  1.0000
  O   O49       1.0  0.16588553283792604  0.8708253551323394  0.7691742652823452  1.0000
  O   O50       1.0  0.09025496797946889  0.2960865464015256  0.7727989979013686  1.0000
  O   O51       1.0  0.17364024964543737  0.320366900386972  0.8538230474409689  1.0000
  O   O52       1.0  0.22622662629246545  0.0189584008077048  0.6750964844284156  1.0000
  O   O53       1.0  0.21815710476923295  0.06068760768081919  0.7639865219599642  1.0000
  O   O54       1.0  0.9952414539108148  0.9829973206161781  0.7900043759236867  1.0000
  O   O55       1.0  0.8655989051179913  0.2058438567261263  0.7773921035523016  1.0000
  O   O56       1.0  0.33411333410032273  0.37083044041121843  0.7308171876983636  1.0000
