data_image0
_chemical_formula_structural       Zn8H24C72O74
_chemical_formula_sum              "Zn8 H24 C72 O74"
_cell_length_a       18.122076012360015
_cell_length_b       18.12212054101977
_cell_length_c       18.12214142017531
_cell_angle_alpha    90.00005130669135
_cell_angle_beta     120.00049775437984
_cell_angle_gamma    119.99981169812415

_space_group_name_H-M_alt    "P 1"
_space_group_IT_number       1

loop_
  _space_group_symop_operation_xyz
  'x, y, z'

loop_
  _atom_site_type_symbol
  _atom_site_label
  _atom_site_symmetry_multiplicity
  _atom_site_fract_x
  _atom_site_fract_y
  _atom_site_fract_z
  _atom_site_occupancy
  Zn  Zn1       1.0  0.5879001983806662  0.6318553683528382  0.043952638803411194  1.0000
  Zn  Zn2       1.0  0.4121045103525914  0.4560533342457945  0.8681488881890546  1.0000
  Zn  Zn3       1.0  0.41209699775800596  0.45605614241488723  0.04395666243310363  1.0000
  Zn  Zn4       1.0  0.5879076328077203  0.4560457057809871  0.04395116105364847  1.0000
  Zn  Zn5       1.0  0.4121171840988679  0.8681620461558311  0.4560609746014848  1.0000
  Zn  Zn6       1.0  0.5879045488028539  0.04395131436132263  0.45604662860957756  1.0000
  Zn  Zn7       1.0  0.5878964853049807  0.0439487176437012  0.6318468754912702  1.0000
  Zn  Zn8       1.0  0.41209905650674017  0.04396013542537956  0.45605470137617493  1.0000
  H   H1        1.0  0.8679171823266073  0.5087456707317417  0.25805388522321254  1.0000
  H   H2        1.0  0.1321197960687855  0.9912800074057275  0.3901302726444769  1.0000
  H   H3        1.0  0.13208868139722818  0.6408249530097978  0.24195516837306752  1.0000
  H   H4        1.0  0.8678963933317404  0.8591762170303598  0.10984678050704849  1.0000
  H   H5        1.0  0.1321060227532698  0.24195484233401746  0.9912798433731638  1.0000
  H   H6        1.0  0.8678949025175626  0.10985998785191231  0.5087289358301562  1.0000
  H   H7        1.0  0.8679121346761959  0.2580320556666607  0.8591764623165334  1.0000
  H   H8        1.0  0.13209863846320496  0.39013516088089534  0.640838178130288  1.0000
  H   H9        1.0  0.25068575913648056  0.5087325253116007  0.10985315286669109  1.0000
  H   H10       1.0  0.60112969883933  0.9912704612191165  0.24196414351889234  1.0000
  H   H11       1.0  0.39886839881020825  0.6408275827939535  0.3901336599315074  1.0000
  H   H12       1.0  0.7493117308287934  0.8591731925351455  0.2580484045178721  1.0000
  H   H13       1.0  0.7492994287301756  0.3901399434182127  0.991266801023656  1.0000
  H   H14       1.0  0.3988612140626131  0.2580334185964191  0.5087402762877248  1.0000
  H   H15       1.0  0.6011288871222149  0.10986390702715447  0.8591793836603613  1.0000
  H   H16       1.0  0.2506709730167032  0.24195508290569742  0.6408323296530298  1.0000
  H   H17       1.0  0.3988741251553307  0.5087320542271956  0.6408274751943921  1.0000
  H   H18       1.0  0.7493085774778337  0.9912723656917068  0.8591746339459763  1.0000
  H   H19       1.0  0.25070127348965343  0.6408355303742826  0.5087300584009286  1.0000
  H   H20       1.0  0.6011311634903721  0.8591723037920149  0.9912740535810088  1.0000
  H   H21       1.0  0.6011323012437018  0.2419615365911554  0.1098641876392962  1.0000
  H   H22       1.0  0.250691663174635  0.10985786988560159  0.24195807575679854  1.0000
  H   H23       1.0  0.7493095910543558  0.2580477792104575  0.3901407652412417  1.0000
  H   H24       1.0  0.39887385657002034  0.3901446126527547  0.2580412984255887  1.0000
  C   C1        1.0  0.49999445998413  0.638345604978085  0.8616560130488226  1.0000
  C   C2        1.0  0.22331402829570388  0.3616546214334307  0.8616654154857245  1.0000
  C   C3        1.0  0.5000041522364003  0.6383537755030421  0.13834678190392688  1.0000
  C   C4        1.0  0.50000866262436  0.36166955086321206  0.13835529895154508  1.0000
  C   C5        1.0  0.7766874466612421  0.6383575351285843  0.13833845094698924  1.0000
  C   C6        1.0  0.4999779433567042  0.3616403534502625  0.8616484983988715  1.0000
  C   C7        1.0  0.5000018249815953  0.8616616954243314  0.36165947340657584  1.0000
  C   C8        1.0  0.7766821019044555  0.13833648251960548  0.6383383998520458  1.0000
  C   C9        1.0  0.5000028696154571  0.8616570402090817  0.6383414255683564  1.0000
  C   C10       1.0  0.49999661866702644  0.13834337487831766  0.6383395664884192  1.0000
  C   C11       1.0  0.22332614460309239  0.8616608190676591  0.36165174620686014  1.0000
  C   C12       1.0  0.5000033428448915  0.13834701306572578  0.3616653614281447  1.0000
  C   C13       1.0  0.8923392993112104  0.696166556758627  0.196165835872613  1.0000
  C   C14       1.0  0.10766752814402726  0.8038274621142135  0.3038143575946677  1.0000
  C   C15       1.0  0.9454986286116877  0.6549345185604738  0.21912900510741204  1.0000
  C   C16       1.0  0.054512806383329  0.8450925179857693  0.27362697314480044  1.0000
  C   C17       1.0  0.054505668148074476  0.7094226792017368  0.2808618864248942  1.0000
  C   C18       1.0  0.9454908093160269  0.7905717776599276  0.2263506872847358  1.0000
  C   C19       1.0  0.10766287137735728  0.303828048158465  0.8038301012372601  1.0000
  C   C20       1.0  0.8923369085569632  0.19615454059079707  0.6961711244760097  1.0000
  C   C21       1.0  0.054512214271262786  0.2808613327639975  0.8450860018950195  1.0000
  C   C22       1.0  0.9454907024878169  0.22635577059769224  0.6549190088930318  1.0000
  C   C23       1.0  0.9454968892605536  0.2191192911227305  0.790582109158045  1.0000
  C   C24       1.0  0.054503249046774734  0.273624168206574  0.709425908060446  1.0000
  C   C25       1.0  0.500001891508262  0.696182735669183  0.196177744268617  1.0000
  C   C26       1.0  0.4999979646076442  0.8038367515905663  0.30383759032692853  1.0000
  C   C27       1.0  0.4357870473826256  0.6549198558605841  0.22636517941635512  1.0000
  C   C28       1.0  0.5714432530462686  0.8450858073372843  0.2808753434620854  1.0000
  C   C29       1.0  0.42855589331122  0.7094310106447639  0.273635474339372  1.0000
  C   C30       1.0  0.5642154884901059  0.7905860233462931  0.21913192907590684  1.0000
  C   C31       1.0  0.4999768768992254  0.3038006319656788  0.8038224941533231  1.0000
  C   C32       1.0  0.4999872529112821  0.19615103763928946  0.6961642172385825  1.0000
  C   C33       1.0  0.5641887991950937  0.27361635445234367  0.8450764969023511  1.0000
  C   C34       1.0  0.4285369154779063  0.21911517192211258  0.6549147239499008  1.0000
  C   C35       1.0  0.5714267457145326  0.22635218103126684  0.7905709487614275  1.0000
  C   C36       1.0  0.43575865156159926  0.2808511439029644  0.7094186818575283  1.0000
  C   C37       1.0  0.4999985238191513  0.6961860255732049  0.8038277581299907  1.0000
  C   C38       1.0  0.5000146446804834  0.803845975040183  0.696173737335549  1.0000
  C   C39       1.0  0.42854680033379816  0.6549079676729265  0.7094171040731042  1.0000
  C   C40       1.0  0.5642050825944268  0.8450759024108409  0.7905747158535165  1.0000
  C   C41       1.0  0.4358002331711717  0.7094324753063435  0.6549221905839674  1.0000
  C   C42       1.0  0.5714500932716505  0.7905823026858272  0.8450868490640034  1.0000
  C   C43       1.0  0.5000135966462765  0.3038361005838938  0.19618970826318374  1.0000
  C   C44       1.0  0.5000086623963682  0.19617246942321032  0.3038476669521161  1.0000
  C   C45       1.0  0.5714548544239477  0.28087644202384615  0.22637415868261704  1.0000
  C   C46       1.0  0.43579421401786067  0.2263676734268572  0.28087556055599805  1.0000
  C   C47       1.0  0.5642123672913045  0.21913423086955675  0.2736441539451065  1.0000
  C   C48       1.0  0.42855696311862357  0.27364038373220734  0.21913360527663178  1.0000
  C   C49       1.0  0.8894704193117846  0.556525396339822  0.16833697557176924  1.0000
  C   C50       1.0  0.11052651004516918  0.9434703985303732  0.2788338028500946  1.0000
  C   C51       1.0  0.11051592273526725  0.6670473056225037  0.33165523985039164  1.0000
  C   C52       1.0  0.8894946231247828  0.8329671423904372  0.2211450741086694  1.0000
  C   C53       1.0  0.11051341588150627  0.33165473222262437  0.9434736294255192  1.0000
  C   C54       1.0  0.8894859519107496  0.22114353558144023  0.5565324252151171  1.0000
  C   C55       1.0  0.8894769482777676  0.16831409350658796  0.8329499332600749  1.0000
  C   C56       1.0  0.11052324383962998  0.2788528162056992  0.6670530852803368  1.0000
  C   C57       1.0  0.3881842677552286  0.5565266262020144  0.22113861395259712  1.0000
  C   C58       1.0  0.6646224959867124  0.9434738520447324  0.3316761893403636  1.0000
  C   C59       1.0  0.3353764154328759  0.667049218069437  0.2788445208825223  1.0000
  C   C60       1.0  0.6118167913926768  0.8329604759667861  0.16834112453243924  1.0000
  C   C61       1.0  0.6118047536528834  0.2788539015073539  0.9434773260278037  1.0000
  C   C62       1.0  0.33536276555936684  0.16831079790258494  0.5565282914725033  1.0000
  C   C63       1.0  0.6646060547189023  0.2211430620931409  0.8329538135720186  1.0000
  C   C64       1.0  0.3881611590312133  0.33164395239849404  0.6670337827957411  1.0000
  C   C65       1.0  0.335381640848233  0.5565224877452196  0.6670455937969494  1.0000
  C   C66       1.0  0.6118023124366018  0.9434702104775354  0.8329541595109405  1.0000
  C   C67       1.0  0.388218577184446  0.6670511588204278  0.5565351515960302  1.0000
  C   C68       1.0  0.6646134463121387  0.8329584208939952  0.943482219203709  1.0000
  C   C69       1.0  0.6646213988796603  0.3316668151964779  0.22114817192198194  1.0000
  C   C70       1.0  0.38819912288425945  0.22115114292042656  0.331670071142547  1.0000
  C   C71       1.0  0.6118038176290809  0.16833753789173045  0.27885382445761314  1.0000
  C   C72       1.0  0.33538535749959664  0.2788599387960177  0.16834278276581222  1.0000
  O   O1        1.0  0.5000032017034001  0.49999812872302857  6.515370031991242e-06  1.0000
  O   O2        1.0  0.540726722466971  0.676006471734006  0.9437655468800871  1.0000
  O   O3        1.0  0.26776266618986  0.4030315946458389  0.8240084515954608  1.0000
  O   O4        1.0  0.4209626220777237  0.5562443911857571  0.0969666669850043  1.0000
  O   O5        1.0  0.4592615194139996  0.5562366124426534  0.8239972308904983  1.0000
  O   O6        1.0  0.5790425421057606  0.6760128832069868  0.1352774311866227  1.0000
  O   O7        1.0  0.2677626903887287  0.36472719937382453  0.9437707504351707  1.0000
  O   O8        1.0  0.4592658387510297  0.40303883293230314  0.13527539697985705  1.0000
  O   O9        1.0  0.7322394476377669  0.5562511148036295  0.135259877348318  1.0000
  O   O10       1.0  0.5407517913471976  0.36474666967258446  0.09698591806176898  1.0000
  O   O11       1.0  0.7322383323010441  0.6760152667445852  0.09696543592279745  1.0000
  O   O12       1.0  0.4209403535280671  0.3647171479053314  0.8239847054216868  1.0000
  O   O13       1.0  0.5790151783008212  0.40301845042646534  0.9437550431224012  1.0000
  O   O14       1.0  0.5000035969121939  1.0525110440065347e-05  0.4999971944696143  1.0000
  O   O15       1.0  0.4592686797612871  0.8239981617982866  0.40303159383954335  1.0000
  O   O16       1.0  0.7322428077360071  0.0969665691314319  0.5562332845837474  1.0000
  O   O17       1.0  0.5790375543942403  0.9437602680218551  0.6760033249985613  1.0000
  O   O18       1.0  0.5407294991632343  0.9437587844390127  0.3647280984139344  1.0000
  O   O19       1.0  0.4209726540605415  0.8240009984540894  0.5562394990201228  1.0000
  O   O20       1.0  0.7322313689887564  0.13526276597475842  0.6759949178598036  1.0000
  O   O21       1.0  0.5407265265772665  0.09697119323967482  0.6759950162603873  1.0000
  O   O22       1.0  0.26776327153903884  0.943769073992556  0.4030227859512224  1.0000
  O   O23       1.0  0.45926692971336547  0.13528080405917106  0.5562385379761566  1.0000
  O   O24       1.0  0.267773406157339  0.8240047479229563  0.36472979529055055  1.0000
  O   O25       1.0  0.5790380977082066  0.13527548061353661  0.4030403224521778  1.0000
  O   O26       1.0  0.42097563330329274  0.09697611566110713  0.36473287396197673  1.0000
  O   O27       1.0  0.8697616326113008  0.4933471733637449  0.20734146849712004  1.0000
  O   O28       1.0  0.8708871345138005  0.5383411765086379  0.09339022013877954  1.0000
  O   O29       1.0  0.1302561348116029  0.006664857879719914  0.33755590875432523  1.0000
  O   O30       1.0  0.12909180962456188  0.9616418239201041  0.2224664430648247  1.0000
  O   O31       1.0  0.13023057244645744  0.6235814095965894  0.29266126508578344  1.0000
  O   O32       1.0  0.12909639048364582  0.6674557389208785  0.4065989081967771  1.0000
  O   O33       1.0  0.8697657421374883  0.876436721005412  0.16242052267406148  1.0000
  O   O34       1.0  0.8709070132950528  0.8325592171270416  0.2775029572538018  1.0000
  O   O35       1.0  0.13023728393420703  0.29265964751092355  0.006665980819399  1.0000
  O   O36       1.0  0.129094406911726  0.4065977663180505  0.9616467717225848  1.0000
  O   O37       1.0  0.8697631399900131  0.16243036877428813  0.4933466230778194  1.0000
  O   O38       1.0  0.8709134061069718  0.27751049284285073  0.5383614691057944  1.0000
  O   O39       1.0  0.8697554567923615  0.20731333191232443  0.8764167734953433  1.0000
  O   O40       1.0  0.8708944517202752  0.09337287079955554  0.8325471168215303  1.0000
  O   O41       1.0  0.1302395379136597  0.337568624506538  0.62358708429462  1.0000
  O   O42       1.0  0.1291035576205104  0.22248760668180276  0.6674491214195016  1.0000
  O   O43       1.0  0.2860076215028826  0.49335063634232085  0.16242227570906212  1.0000
  O   O44       1.0  0.44495201527708883  0.5383519041859588  0.2775021866127291  1.0000
  O   O45       1.0  0.6690956040381478  0.006667016658347844  0.29267468716813033  1.0000
  O   O46       1.0  0.7391671844129135  0.9616538283361254  0.40661426415518787  1.0000
  O   O47       1.0  0.33090297306652855  0.6235721014438056  0.33756244923199563  1.0000
  O   O48       1.0  0.2608304330176239  0.6674423862711976  0.22248033891082747  1.0000
  O   O49       1.0  0.7139930870742505  0.8764181769324967  0.20733884161086996  1.0000
  O   O50       1.0  0.555046560034988  0.8325515174103731  0.0933951483598962  1.0000
  O   O51       1.0  0.7139781401751434  0.3375757248201838  0.0066518448111735975  1.0000
  O   O52       1.0  0.5550421542320834  0.22248746690490162  0.9616581937370868  1.0000
  O   O53       1.0  0.33088788690184145  0.2073170112829814  0.4933306570362532  1.0000
  O   O54       1.0  0.26082018412994046  0.0933711448303214  0.5383400085263689  1.0000
  O   O55       1.0  0.6690842059198304  0.16243299621854138  0.8764263612602933  1.0000
  O   O56       1.0  0.7391448646041212  0.2775092360231711  0.8325513238053618  1.0000
  O   O57       1.0  0.28598690369129554  0.29265148674913644  0.6235734911737298  1.0000
  O   O58       1.0  0.44493578130584405  0.4065873866256738  0.6674411917445867  1.0000
  O   O59       1.0  0.33092056329142144  0.4933441413417442  0.623585838917549  1.0000
  O   O60       1.0  0.2608415061063667  0.5383454495924128  0.6674485744281358  1.0000
  O   O61       1.0  0.7139945914639654  0.006664385381206599  0.8764310227495359  1.0000
  O   O62       1.0  0.5550435681755913  0.9616550913595251  0.8325597770425406  1.0000
  O   O63       1.0  0.2860163671615867  0.6235804691454733  0.49333086847475033  1.0000
  O   O64       1.0  0.4449722248852409  0.6674458874403015  0.5383508388233836  1.0000
  O   O65       1.0  0.669074795066365  0.8764116511486509  0.006653409068178678  1.0000
  O   O66       1.0  0.7391529429829833  0.8325501149431677  0.9616550664766239  1.0000
  O   O67       1.0  0.6690841811859158  0.29266785571681464  0.1624336352162886  1.0000
  O   O68       1.0  0.7391675893225766  0.40661061938002535  0.27751641857918247  1.0000
  O   O69       1.0  0.2860000993408319  0.16243075442545063  0.29266207384791443  1.0000
  O   O70       1.0  0.4449492462904914  0.27751288536541113  0.40660992874830987  1.0000
  O   O71       1.0  0.7139982745990848  0.20733528339776083  0.33757572578671363  1.0000
  O   O72       1.0  0.5550423201420713  0.09339390778134775  0.22249325570825831  1.0000
  O   O73       1.0  0.3309212204841643  0.33757494419822376  0.20733604028350072  1.0000
  O   O74       1.0  0.2608477284860697  0.22249656129648096  0.09339494454013678  1.0000
