data_image0
_chemical_formula_structural       Zn2H10C38Br8N2O10
_chemical_formula_sum              "Zn2 H10 C38 Br8 N2 O10"
_cell_length_a       14.572278054136607
_cell_length_b       16.102902524766602
_cell_length_c       17.295514462782087
_cell_angle_alpha    90.90941547427029
_cell_angle_beta     94.95385320788422
_cell_angle_gamma    83.78631635921343

_space_group_name_H-M_alt    "P 1"
_space_group_IT_number       1

loop_
  _space_group_symop_operation_xyz
  'x, y, z'

loop_
  _atom_site_type_symbol
  _atom_site_label
  _atom_site_symmetry_multiplicity
  _atom_site_fract_x
  _atom_site_fract_y
  _atom_site_fract_z
  _atom_site_occupancy
  Zn  Zn1       1.0  0.40563068352017234  0.5148430570208975  0.5095173591946534  1.0000
  Zn  Zn2       1.0  0.5961817964784045  0.4863174637718047  0.49116347000038024  1.0000
  H   H1        1.0  0.5903145403299844  0.5260749258198061  0.0123831585350942  1.0000
  H   H2        1.0  0.4095868503951508  0.4431227637669295  0.9894957171309712  1.0000
  H   H3        1.0  0.39702883125099225  0.3793826356679658  0.11417528137271661  1.0000
  H   H4        1.0  0.6130953725955451  0.5910861949148369  0.8961330239454244  1.0000
  H   H5        1.0  0.442635861702307  0.08671270225475781  0.6080075579481773  1.0000
  H   H6        1.0  0.5582977542218187  0.9143315403799335  0.3880008393333014  1.0000
  H   H7        1.0  0.45661816944267736  0.9316276923146916  0.6152162331811439  1.0000
  H   H8        1.0  0.5445006338098394  0.0694583386207341  0.3808373933849367  1.0000
  H   H9        1.0  0.8344789705390667  0.48289668080874987  0.3452081198592651  1.0000
  H   H10       1.0  0.16791971445989867  0.5173988513060408  0.6556109121420449  1.0000
  C   C1        1.0  0.48887221085237786  0.3416513215210273  0.4895598881245959  1.0000
  C   C2        1.0  0.5131096032871555  0.6593810162170187  0.5096327658859252  1.0000
  C   C3        1.0  0.4757196858667215  0.9621797233908821  0.5640798800489436  1.0000
  C   C4        1.0  0.5253535235959107  0.03886849607422959  0.4319492771277638  1.0000
  C   C5        1.0  0.5084222331862591  0.9125844782140221  0.502109135958186  1.0000
  C   C6        1.0  0.49274529375320236  0.08846215701858991  0.4939761516918609  1.0000
  C   C7        1.0  0.5331456059751289  0.9524106776145018  0.4360035022077327  1.0000
  C   C8        1.0  0.46782555394780456  0.0486341041206515  0.5599913711383238  1.0000
  C   C9        1.0  0.5144124182624739  0.8243833292544379  0.5058093145959931  1.0000
  C   C10       1.0  0.4870871818838296  0.1766713866233118  0.49074883587883283  1.0000
  C   C11       1.0  0.4849610483686674  0.25245830077272297  0.4884482403256171  1.0000
  C   C12       1.0  0.5168644988469212  0.7486211657257938  0.5090131956513347  1.0000
  C   C13       1.0  0.056384130179424084  0.49949635957460703  0.4360802814933393  1.0000
  C   C14       1.0  0.9457072556277454  0.5020043986366571  0.5647949639217558  1.0000
  C   C15       1.0  0.09453196457263859  0.5073665178030853  0.5135895763410475  1.0000
  C   C16       1.0  0.9075631393142772  0.4940101305862755  0.48733592074844984  1.0000
  C   C17       1.0  0.04129048522140979  0.5078768468878749  0.5783894627710283  1.0000
  C   C18       1.0  0.9608523575587922  0.4932210925878024  0.4225090900068338  1.0000
  C   C19       1.0  0.1909035997245994  0.5166642774563427  0.5253707822753171  1.0000
  C   C20       1.0  0.8110929636322056  0.4850650959367258  0.47558420485248826  1.0000
  C   C21       1.0  0.45385579212366167  0.5148692481252082  0.3517881251411907  1.0000
  C   C22       1.0  0.5469594642649652  0.48112237320617623  0.648494292038535  1.0000
  C   C23       1.0  0.44167877834386365  0.5134793076854507  0.2640870315854968  1.0000
  C   C24       1.0  0.559147500912907  0.47399284783575985  0.7359015361224408  1.0000
  C   C25       1.0  0.468011092794626  0.5787012057138058  0.22076033760680502  1.0000
  C   C26       1.0  0.5278226889125293  0.40709361349318834  0.7736368152018898  1.0000
  C   C27       1.0  0.472608179296003  0.5715244476880842  0.1401812025982423  1.0000
  C   C28       1.0  0.5231350592442611  0.4074602983518075  0.8543671861231488  1.0000
  C   C29       1.0  0.45127999574835803  0.49725753712205284  0.1010168519304813  1.0000
  C   C30       1.0  0.5496152673080346  0.4764273557493155  0.8993997402339958  1.0000
  C   C31       1.0  0.41696095596915217  0.4357224735302836  0.1439142034492278  1.0000
  C   C32       1.0  0.5892141541229776  0.5389764332745628  0.8618844939056274  1.0000
  C   C33       1.0  0.41274404272142806  0.4437060238379757  0.2236719110306638  1.0000
  C   C34       1.0  0.5933827899594704  0.5377840728212107  0.7819611032809348  1.0000
  C   C35       1.0  0.46337627454387587  0.4770936153385181  0.019178453879490603  1.0000
  C   C36       1.0  0.5369418519538841  0.49232421053917336  0.9817151224238572  1.0000
  C   C37       1.0  0.9101805152163962  0.4869954754386185  0.3437279815224912  1.0000
  C   C38       1.0  0.0922022013025128  0.5133223606098838  0.6572008746361178  1.0000
  Br  Br1       1.0  0.49644094159461355  0.6772369498379759  0.2754531921749788  1.0000
  Br  Br2       1.0  0.49244508163502587  0.3159421358228657  0.7110411607772562  1.0000
  Br  Br3       1.0  0.6421106216755631  0.6281954404986932  0.7353548428829982  1.0000
  Br  Br4       1.0  0.37150043535343247  0.35457539654859005  0.2780530779805943  1.0000
  Br  Br5       1.0  0.4852474084190632  0.3128017472960565  0.902223741391488  1.0000
  Br  Br6       1.0  0.5025216679149409  0.6643717181870272  0.0843229083494066  1.0000
  Br  Br7       1.0  0.1372242568537203  0.49655835866782644  0.3571765593124283  1.0000
  Br  Br8       1.0  0.8648425768592104  0.5058550323807934  0.6437990317497296  1.0000
  N   N1        1.0  0.7328733727537154  0.4758097405890921  0.4688371296354673  1.0000
  N   N2        1.0  0.26906540529169126  0.5261372070127308  0.5320711763181336  1.0000
  O   O1        1.0  0.413596767520488  0.38769674542187  0.4982954034953408  1.0000
  O   O2        1.0  0.5892433308349325  0.613028048909058  0.5057699233005977  1.0000
  O   O3        1.0  0.5681693804837449  0.36545922814013926  0.48234210008664763  1.0000
  O   O4        1.0  0.43298334200489547  0.6358164479281997  0.5133423477096883  1.0000
  O   O5        1.0  0.3825953618092015  0.5251940459648097  0.3892277226003031  1.0000
  O   O6        1.0  0.6178252846523974  0.46951439184272203  0.6106440733004774  1.0000
  O   O7        1.0  0.5378743947291297  0.5029078338217089  0.3789178191162961  1.0000
  O   O8        1.0  0.4635963537388861  0.50072264063121  0.6221475450867402  1.0000
  O   O9        1.0  0.9453739363444242  0.4870509567592976  0.2824732119466731  1.0000
  O   O10       1.0  0.057234435571430695  0.5126450612759825  0.7185125434062627  1.0000
