data_image0
_chemical_formula_structural       Cd2H28C28N20
_chemical_formula_sum              "Cd2 H28 C28 N20"
_cell_length_a       8.824419132290464
_cell_length_b       9.89741925313047
_cell_length_c       11.405567893695475
_cell_angle_alpha    104.16380145234513
_cell_angle_beta     104.3461026530712
_cell_angle_gamma    109.78710873455289

_space_group_name_H-M_alt    "P 1"
_space_group_IT_number       1

loop_
  _space_group_symop_operation_xyz
  'x, y, z'

loop_
  _atom_site_type_symbol
  _atom_site_label
  _atom_site_symmetry_multiplicity
  _atom_site_fract_x
  _atom_site_fract_y
  _atom_site_fract_z
  _atom_site_occupancy
  Cd  Cd1       1.0  0.021794301136068832  0.29162946392612105  0.2467544726973045  1.0000
  Cd  Cd2       1.0  0.9782031103973952  0.7083695480876528  0.7532453913017036  1.0000
  H   H1        1.0  0.32289178348980124  0.9414323105382109  0.3924627127460596  1.0000
  H   H2        1.0  0.6771096833773953  0.058567819381195804  0.6075372937317312  1.0000
  H   H3        1.0  0.3724937922847075  0.0358524811925491  0.5590699648802371  1.0000
  H   H4        1.0  0.6275082319459742  0.9641487998004195  0.4409303862777421  1.0000
  H   H5        1.0  0.3844557999895811  0.21712588461208782  0.4442392193088835  1.0000
  H   H6        1.0  0.61554450111624  0.7828742534692098  0.5557605617545818  1.0000
  H   H7        1.0  0.5922095904890056  0.27312508265765695  0.5596294562983741  1.0000
  H   H8        1.0  0.4077907106168154  0.7268750554236474  0.4403703247650838  1.0000
  H   H9        1.0  0.8376127925040393  0.3196186426628813  0.4843512325996642  1.0000
  H   H10       1.0  0.16238806527913843  0.6803826551742276  0.5156497715883859  1.0000
  H   H11       1.0  0.5831287556946947  0.1182933719208421  0.07781455025408233  1.0000
  H   H12       1.0  0.4168721538090167  0.8817056069250029  0.92218511154352  1.0000
  H   H13       1.0  0.33741832420180623  0.05761876323193601  0.1952783058357284  1.0000
  H   H14       1.0  0.6625825342674998  0.9423825259229301  0.8047218199079252  1.0000
  H   H15       1.0  0.5236977407046196  0.648914597107975  0.9722328420867469  1.0000
  H   H16       1.0  0.4763025093667962  0.3510878512823509  0.027767402922769614  1.0000
  H   H17       1.0  0.5230899601946676  0.6268144915570133  0.1215605940531788  1.0000
  H   H18       1.0  0.4769108982746388  0.3731867975978531  0.8784395316904678  1.0000
  H   H19       1.0  0.7769898583234892  0.5543201992633797  0.1328306667626435  1.0000
  H   H20       1.0  0.2230092770209566  0.4456799469798156  0.8671688888864894  1.0000
  H   H21       1.0  0.7851575955168925  0.6037534532764751  0.9936614327143258  1.0000
  H   H22       1.0  0.2148409831501965  0.39624553321091593  0.006336899810214884  1.0000
  H   H23       1.0  0.8417407294325301  0.9030067570262689  0.027435045602807386  1.0000
  H   H24       1.0  0.1582572401505473  0.0969933973788244  0.9725642846319928  1.0000
  H   H25       1.0  0.0792086250122566  0.08050044092023262  0.43514492612180783  1.0000
  H   H26       1.0  0.9207946160141988  0.9194985216018172  0.5648551865044454  1.0000
  H   H27       1.0  0.9230641455110629  0.7591651422687422  0.348378963281661  1.0000
  H   H28       1.0  0.07693793181239528  0.24083380236847057  0.6516182885970636  1.0000
  C   C1        1.0  0.4286027604094258  0.0267519739335569  0.4829094122107945  1.0000
  C   C2        1.0  0.5713987071438922  0.9732481473036005  0.5170897158225927  1.0000
  C   C3        1.0  0.4917368048713725  0.18396793850791227  0.46890323693375535  1.0000
  C   C4        1.0  0.5082663851206775  0.8160333343231587  0.5310973396385492  1.0000
  C   C5        1.0  0.7378544377835823  0.2555844644272298  0.3884457835948396  1.0000
  C   C6        1.0  0.262146420685724  0.7444168247276367  0.611554342148814  1.0000
  C   C7        1.0  0.5992368660544473  0.1493509969845519  0.1795093371842071  1.0000
  C   C8        1.0  0.40076515817623454  0.8506502840084166  0.8204910139737721  1.0000
  C   C9        1.0  0.4769968938547393  0.11783833867705343  0.2359126395641766  1.0000
  C   C10       1.0  0.5230033569028051  0.8821641010310302  0.7640867270009294  1.0000
  C   C11       1.0  0.5542200343608812  0.5864060053286411  0.035692330090476745  1.0000
  C   C12       1.0  0.4457791009835645  0.41359414091455454  0.964307225558656  1.0000
  C   C13       1.0  0.7466992094647295  0.6251093107250795  0.07842345228841908  1.0000
  C   C14       1.0  0.25329936988848084  0.37488966708006893  0.9215740017917183  1.0000
  C   C15       1.0  0.8859700211631818  0.9110212832371615  0.12758401657548996  1.0000
  C   C16       1.0  0.11402855750390727  0.08897770325022947  0.872414315949051  1.0000
  C   C17       1.0  0.006491418012558428  0.9961758640633321  0.33774174637159865  1.0000
  C   C18       1.0  0.9935094928633955  0.0038230974180209006  0.6622561585371969  1.0000
  C   C19       1.0  0.9287317165280554  0.8383026732523787  0.29699309576980665  1.0000
  C   C20       1.0  0.071270967821043  0.1616951295138662  0.7030057937318617  1.0000
  C   C21       1.0  0.1457100191659818  0.6241326674244475  0.21209335300253673  1.0000
  C   C22       1.0  0.854290279881468  0.3758674967035843  0.7879090633941246  1.0000
  C   C23       1.0  0.1706241313344138  0.7441659790792559  0.06337967302236082  1.0000
  C   C24       1.0  0.8293773334744116  0.2558341768868786  0.9366229687886259  1.0000
  C   C25       1.0  0.43586535962085554  0.4350027439368703  0.2724895402925469  1.0000
  C   C26       1.0  0.564129109933603  0.5649974696828863  0.7275126274768766  1.0000
  C   C27       1.0  0.7130770043900795  0.5748297568701444  0.42802939943246787  1.0000
  C   C28       1.0  0.2869198490937777  0.42516811275231  0.5719709983307624  1.0000
  N   N1        1.0  0.5668015113948498  0.18684054306950773  0.36825146391834096  1.0000
  N   N2        1.0  0.4331987379904447  0.8131619140030608  0.631749659535572  1.0000
  N   N3        1.0  0.7609025773554734  0.23541697751791452  0.2756349709421499  1.0000
  N   N4        1.0  0.23909944687520826  0.7645843034750542  0.7243653802158291  1.0000
  N   N5        1.0  0.8531717051892043  0.7859739160979515  0.16355944172667586  1.0000
  N   N6        1.0  0.1468280392392529  0.21402506222754883  0.8364391162121905  1.0000
  N   N7        1.0  0.979355286398416  0.0400850810084066  0.23122925761692412  1.0000
  N   N8        1.0  0.020644457343927117  0.9599139059993363  0.7687701787663457  1.0000
  N   N9        1.0  0.23255686342761803  0.7054042701300033  0.15838211685609577  1.0000
  N   N10       1.0  0.7674434369920816  0.29459587663354364  0.8416185426517657  1.0000
  N   N11       1.0  0.08154426865760196  0.5533270770476834  0.27052131653039874  1.0000
  N   N12       1.0  0.9184554219919577  0.4466742463158083  0.7294812191321256  1.0000
  N   N13       1.0  0.1301139741364921  0.7894614582181703  0.9793909806518784  1.0000
  N   N14       1.0  0.8698869346810908  0.2105375293099172  0.02060955959012734  1.0000
  N   N15       1.0  0.5966578682202552  0.5292046564297905  0.3152579689861454  1.0000
  N   N16       1.0  0.4033377670955786  0.470795549028068  0.6847444241976105  1.0000
  N   N17       1.0  0.2877018043315545  0.3499753452303409  0.22006150182828318  1.0000
  N   N18       1.0  0.7122926672812823  0.6500248423426881  0.77993803060793  1.0000
  N   N19       1.0  0.832212629387456  0.6280717501597833  0.5264743374847711  1.0000
  N   N20       1.0  0.1677847821460148  0.3719272618539975  0.4735255265142442  1.0000
