data_image0
_chemical_formula_structural       CuH30C24N4O8
_chemical_formula_sum              "Cu1 H30 C24 N4 O8"
_cell_length_a       6.754472796671434
_cell_length_b       10.892106274988633
_cell_length_c       11.194980125920054
_cell_angle_alpha    114.76468167024473
_cell_angle_beta     98.97407170179915
_cell_angle_gamma    103.10261023932097

_space_group_name_H-M_alt    "P 1"
_space_group_IT_number       1

loop_
  _space_group_symop_operation_xyz
  'x, y, z'

loop_
  _atom_site_type_symbol
  _atom_site_label
  _atom_site_symmetry_multiplicity
  _atom_site_fract_x
  _atom_site_fract_y
  _atom_site_fract_z
  _atom_site_occupancy
  Cu  Cu1       1.0  0.5000246480640912  2.4344156059996443e-06  1.93124728795991e-05  1.0000
  H   H1        1.0  0.19960027992404147  0.5498748813035449  0.7263259338514345  1.0000
  H   H2        1.0  0.8003982991867105  0.4501484730186151  0.2736806001492128  1.0000
  H   H3        1.0  0.9214301808902902  0.46130381176752866  0.6505794518015974  1.0000
  H   H4        1.0  0.07856974269198236  0.5387154791320083  0.3494283341507654  1.0000
  H   H5        1.0  0.33606113586887426  0.42003199770180527  0.3262164487349822  1.0000
  H   H6        1.0  0.6639073504040098  0.5799494319685579  0.6737536793194892  1.0000
  H   H7        1.0  0.24632668864328616  0.3658588120111119  0.019209674020402242  1.0000
  H   H8        1.0  0.7536825361303984  0.6341302711388151  0.980780225979963  1.0000
  H   H9        1.0  0.17631520608497192  0.4859241736809067  0.15544830043287308  1.0000
  H   H10       1.0  0.8236884315963594  0.5140603394717971  0.8445511837461339  1.0000
  H   H11       1.0  0.8942913269008272  0.293476608827106  0.8596252953274401  1.0000
  H   H12       1.0  0.10572230074353668  0.7065268843439724  0.1403783393722549  1.0000
  H   H13       1.0  0.3620298277216775  0.10646815555922017  0.4637775890756687  1.0000
  H   H14       1.0  0.6379553807724817  0.8935416655353374  0.5362445384680612  1.0000
  H   H15       1.0  0.7986277758007531  0.3049891543937163  0.39370566338829605  1.0000
  H   H16       1.0  0.20135814879265712  0.6950249276066742  0.6062867458364991  1.0000
  H   H17       1.0  0.988942915746662  0.28339603563423305  0.301511120935352  1.0000
  H   H18       1.0  0.011037834176995763  0.7166160631637907  0.6984829071561052  1.0000
  H   H19       1.0  0.4373085947584485  0.2731676913877407  0.12292468304312372  1.0000
  H   H20       1.0  0.5626896907159774  0.7267995170663396  0.8770644028691308  1.0000
  H   H21       1.0  0.46830437601622044  0.9719019508090694  0.25145265891809027  1.0000
  H   H22       1.0  0.5317028998381375  0.0281014351399662  0.748580996870814  1.0000
  H   H23       1.0  0.7811716082470072  0.49677664277955824  0.10587630595979658  1.0000
  H   H24       1.0  0.21884251190849105  0.5032143303131136  0.894126257829143  1.0000
  H   H25       1.0  0.6091588861143221  0.3826885491131334  0.939182453994384  1.0000
  H   H26       1.0  0.39085199954087096  0.617305470494692  0.06081925385984737  1.0000
  H   H27       1.0  0.10271708616149043  0.9340967224787775  0.892642321123475  1.0000
  H   H28       1.0  0.8973137122770467  0.06590947988039629  0.10732309400194139  1.0000
  H   H29       1.0  0.12411604773846815  0.08672694929300917  0.9180405516269657  1.0000
  H   H30       1.0  0.8758902504802819  0.9132812931888524  0.0819411030771918  1.0000
  C   C1        1.0  0.068711344779352  0.5134576388132358  0.6353664528893076  1.0000
  C   C2        1.0  0.9312795095914694  0.4865655375360873  0.36463773484329215  1.0000
  C   C3        1.0  0.35855836719906614  0.3201741158857628  0.3141713470759838  1.0000
  C   C4        1.0  0.6414261412261411  0.6798160331264498  0.6858200790322826  1.0000
  C   C5        1.0  0.1497398938302935  0.4367201590613873  0.04340638118075896  1.0000
  C   C6        1.0  0.8502625726479706  0.5632693003043981  0.9565895045344917  1.0000
  C   C7        1.0  0.33005656163479796  0.27075669757116566  0.4089084033820285  1.0000
  C   C8        1.0  0.6699336683806576  0.7292413660808632  0.5910926178099203  1.0000
  C   C9        1.0  0.9142715042151863  0.3494969445457058  0.9716560811553593  1.0000
  C   C10       1.0  0.08574525054675754  0.6505034405336897  0.028347483703157567  1.0000
  C   C11       1.0  0.37489753519285773  0.145336784752061  0.3892098374586793  1.0000
  C   C12       1.0  0.6250838761354341  0.8546733430163297  0.6108014137035767  1.0000
  C   C13       1.0  0.2695005640176689  0.35504460437606866  0.5345435810170898  1.0000
  C   C14       1.0  0.7304722606034204  0.644951265208867  0.4654564159437058  1.0000
  C   C15       1.0  0.9517122609155563  0.36067804306733825  0.3876271308038426  1.0000
  C   C16       1.0  0.048282124351786054  0.6393398395376834  0.6123752986237321  1.0000
  C   C17       1.0  0.41648911750377243  0.23954038002930386  0.20017584016292742  1.0000
  C   C18       1.0  0.5834817225453788  0.7604376318770817  0.7998209318090658  1.0000
  C   C19       1.0  0.4331384986643343  0.07056448335395521  0.2728842783437742  1.0000
  C   C20       1.0  0.5668502063307486  0.9294328395901134  0.7271369761757143  1.0000
  C   C21       1.0  0.8426470524650751  0.22893198435038897  0.007972527270055704  1.0000
  C   C22       1.0  0.157350222235145  0.7710578323017997  0.9920133088963398  1.0000
  C   C23       1.0  0.77561647792988  0.44640992370738525  0.9964940356523542  1.0000
  C   C24       1.0  0.224402874137425  0.5535790813541083  0.0035099138301503195  1.0000
  N   N1        1.0  0.11132083360504194  0.4101749871719775  0.5167345262976895  1.0000
  N   N2        1.0  0.8886889911352894  0.589837627823897  0.48326601059503826  1.0000
  N   N3        1.0  0.4489601473638274  0.1157625755675653  0.17834059188777474  1.0000
  N   N4        1.0  0.5510452585817447  0.8842269356195658  0.8216716259209849  1.0000
  O   O1        1.0  0.9790459757923173  0.17936023584455535  0.04423902474871974  1.0000
  O   O2        1.0  0.020985256373037844  0.8206246611786696  0.9557336750984292  1.0000
  O   O3        1.0  0.37114988760291817  0.37861102662857593  0.6489314011992989  1.0000
  O   O4        1.0  0.6288232203957947  0.6213874895380586  0.35109289886350586  1.0000
  O   O5        1.0  0.6441338680390984  0.18328196919078008  0.996428371906717  1.0000
  O   O6        1.0  0.35588221940102466  0.8167173166854836  0.003589970567311647  1.0000
  O   O7        1.0  0.16699418964073232  0.005023874719107381  0.8633770371905882  1.0000
  O   O8        1.0  0.8330368120869093  0.9950000810950282  0.13660578663560588  1.0000
