data_image0
_chemical_formula_structural       Li6H36C27O15
_chemical_formula_sum              "Li6 H36 C27 O15"
_cell_length_a       9.243896993804888
_cell_length_b       9.245754782143011
_cell_length_c       10.737421796576191
_cell_angle_alpha    90.00948538861539
_cell_angle_beta     89.98924509658829
_cell_angle_gamma    120.0257770536979

_space_group_name_H-M_alt    "P 1"
_space_group_IT_number       1

loop_
  _space_group_symop_operation_xyz
  'x, y, z'

loop_
  _atom_site_type_symbol
  _atom_site_label
  _atom_site_symmetry_multiplicity
  _atom_site_fract_x
  _atom_site_fract_y
  _atom_site_fract_z
  _atom_site_occupancy
  Li  Li1       1.0  0.8718829156516397  0.9704313361922919  0.41476029617464155  1.0000
  Li  Li2       1.0  0.029696534850003842  0.9015179112260227  0.08148637427769499  1.0000
  Li  Li3       1.0  0.09850933411691903  0.12825573331998194  0.7481249101100147  1.0000
  Li  Li4       1.0  0.1894822054507515  0.10301735210392594  0.2805714994666459  1.0000
  Li  Li5       1.0  0.8969834132000257  0.08637124763256317  0.9471993136705592  1.0000
  Li  Li6       1.0  0.9134667680823227  0.8106777040790478  0.6139321137989739  1.0000
  H   H1        1.0  0.7718155335549073  0.9322375921856438  0.19228766548972936  1.0000
  H   H2        1.0  0.06770240914386258  0.8396429600817897  0.8590827048652868  1.0000
  H   H3        1.0  0.16042274996284087  0.2282518471472486  0.5256462491527073  1.0000
  H   H4        1.0  0.32134557625435883  0.030212980763572355  0.4603325329757483  1.0000
  H   H5        1.0  0.9695695594497096  0.29098106740611496  0.12682765583019057  1.0000
  H   H6        1.0  0.7089169374192464  0.6786252078876416  0.7935801139742863  1.0000
  H   H7        1.0  0.18516745097254964  0.6797866549862234  0.1963934464198402  1.0000
  H   H8        1.0  0.3204078703009258  0.5053346184861951  0.8630646040285512  1.0000
  H   H9        1.0  0.494162594889268  0.8147850770858373  0.5298063885191056  1.0000
  H   H10       1.0  0.22400492133294853  0.43275460716988334  0.2120422171791745  1.0000
  H   H11       1.0  0.567505049688684  0.7913577314501623  0.8789310296231747  1.0000
  H   H12       1.0  0.2082273405583452  0.7760508878777799  0.5456163517088725  1.0000
  H   H13       1.0  0.8811421736613596  0.2518489738780759  0.52237295843004  1.0000
  H   H14       1.0  0.7486819477212096  0.6292218153637564  0.18877829084863856  1.0000
  H   H15       1.0  0.37086056500874787  0.11941038172715686  0.855601097676903  1.0000
  H   H16       1.0  0.8524626720416892  0.5045486320756397  0.5093454433961925  1.0000
  H   H17       1.0  0.4958525390245114  0.34773631421862217  0.1756423567175602  1.0000
  H   H18       1.0  0.6521136543236566  0.14763287760684582  0.8426238462935913  1.0000
  H   H19       1.0  0.5077326437655287  0.8569015646411415  0.173532819966745  1.0000
  H   H20       1.0  0.14302143053377855  0.6509963996993875  0.8401852884267385  1.0000
  H   H21       1.0  0.3492714339262335  0.4922203487103971  0.5068119448809015  1.0000
  H   H22       1.0  0.5070989548477914  0.9314003677400751  0.3264314907569386  1.0000
  H   H23       1.0  0.06848870308990483  0.5757378162205099  0.9930373514268351  1.0000
  H   H24       1.0  0.4244847739480305  0.49300364141013386  0.6596936553167155  1.0000
  H   H25       1.0  0.49635117106067383  0.7337052493407725  0.30451264947457457  1.0000
  H   H26       1.0  0.26628404664336364  0.762814130549451  0.9711924037689599  1.0000
  H   H27       1.0  0.23742876990329623  0.5036412317698336  0.6377973635236387  1.0000
  H   H28       1.0  0.5743211695753914  0.21067397890379877  0.503110837197589  1.0000
  H   H29       1.0  0.7892420416229698  0.3632926314842353  0.1700392959885022  1.0000
  H   H30       1.0  0.6364941165220159  0.4258794864708264  0.8366062275276034  1.0000
  H   H31       1.0  0.507902792118259  0.3539676595947301  0.4549826296041103  1.0000
  H   H32       1.0  0.6456435030244307  0.15348282754588646  0.12200486476557869  1.0000
  H   H33       1.0  0.8462776656252233  0.49234481710544775  0.7883776079872717  1.0000
  H   H34       1.0  0.6066043649026581  0.28268253637583746  0.34668660738571333  1.0000
  H   H35       1.0  0.7168335865277841  0.32348181942698784  0.013712412860080299  1.0000
  H   H36       1.0  0.676112857856545  0.3933346210981697  0.6802018999605791  1.0000
  C   C1        1.0  0.0008713534612639491  0.7609872183997766  0.346420322534108  1.0000
  C   C2        1.0  0.23912982565969543  0.23973270235472915  0.013059561115859698  1.0000
  C   C3        1.0  0.7598856357421366  0.9990777162710386  0.679732563768013  1.0000
  C   C4        1.0  0.015458856592182853  0.6086505323827113  0.3510844661468511  1.0000
  C   C5        1.0  0.3916474296096126  0.4066676098997349  0.017588155908946097  1.0000
  C   C6        1.0  0.5929359634804429  0.9844882110122771  0.6844742572538393  1.0000
  C   C7        1.0  0.11765342556794421  0.5845035016583395  0.26675444066268744  1.0000
  C   C8        1.0  0.4157498956263552  0.5330746526385185  0.933369057244512  1.0000
  C   C9        1.0  0.4664554439303854  0.8822993332026597  0.6001813498330222  1.0000
  C   C10       1.0  0.1372740780265148  0.44496083943699466  0.2743061880467579  1.0000
  C   C11       1.0  0.5553738092508381  0.6923204339781605  0.9410283195622499  1.0000
  C   C12       1.0  0.3073289511686285  0.8628822285706478  0.6077579442939153  1.0000
  C   C13       1.0  0.053080415931660255  0.3211075440441391  0.36744198050869403  1.0000
  C   C14       1.0  0.6793179232013743  0.7320161524140476  0.034079954924727894  1.0000
  C   C15       1.0  0.26781345103366766  0.9472173097930608  0.7008490755751352  1.0000
  C   C16       1.0  0.9476290388880741  0.345752781993845  0.45078912274552607  1.0000
  C   C17       1.0  0.6547359328115406  0.601802241117966  0.11726209747748577  1.0000
  C   C18       1.0  0.398112895835773  0.05274243659889788  0.784084432242068  1.0000
  C   C19       1.0  0.9318580520653584  0.486597117989099  0.4434606746134334  1.0000
  C   C20       1.0  0.5138089087149139  0.44513350738110097  0.10982943518308019  1.0000
  C   C21       1.0  0.5546407899486783  0.06820515992274782  0.7768132396814379  1.0000
  C   C22       1.0  0.5515434601793816  0.8627668116177959  0.26965799161598625  1.0000
  C   C23       1.0  0.1371827677874649  0.6889126149199357  0.936335377083168  1.0000
  C   C24       1.0  0.3113346044233439  0.44847621152591444  0.6029616037885502  1.0000
  C   C25       1.0  0.5209500233261366  0.2468755287187677  0.4261485946827221  1.0000
  C   C26       1.0  0.752746379512388  0.2736358531081893  0.0930704540599905  1.0000
  C   C27       1.0  0.7260438306240291  0.4791296653547977  0.7595619491727561  1.0000
  O   O1        1.0  0.05602298650793378  0.8565913227467236  0.2512322287429427  1.0000
  O   O2        1.0  0.14328900661922012  0.1993082058035115  0.9180116440856664  1.0000
  O   O3        1.0  0.8002752754053475  0.9438762100177697  0.5845377168566372  1.0000
  O   O4        1.0  0.9356075061470365  0.7950222393817016  0.4388909159948112  1.0000
  O   O5        1.0  0.20525022986891633  0.14041560677287637  0.10547498945015829  1.0000
  O   O6        1.0  0.8593672832087053  0.0644857820363855  0.7721028917982125  1.0000
  O   O7        1.0  0.07513515961392156  0.1909112703053637  0.3796601215194784  1.0000
  O   O8        1.0  0.8094571876213481  0.8843866344698059  0.04635140123959759  1.0000
  O   O9        1.0  0.11551739815035955  0.9251246834837945  0.7131746716712045  1.0000
  O   O10       1.0  0.7303067571365676  0.9479396334862289  0.27439005548338713  1.0000
  O   O11       1.0  0.052026931795992985  0.7824252386768435  0.9411675721849662  1.0000
  O   O12       1.0  0.21767386502075686  0.26974195582869254  0.607747159196954  1.0000
  O   O13       1.0  0.3626830150698623  0.10794085200793549  0.3898392227865343  1.0000
  O   O14       1.0  0.8915757975547008  0.25432766923436406  0.0564904337292802  1.0000
  O   O15       1.0  0.7452585432773663  0.6372346142287386  0.7230833813170604  1.0000
