data_image0
_chemical_formula_structural       Ti4P4H36C8N8O20
_chemical_formula_sum              "Ti4 P4 H36 C8 N8 O20"
_cell_length_a       7.2922717620051944
_cell_length_b       9.21080683873287
_cell_length_c       9.963990768327639
_cell_angle_alpha    100.09549790012971
_cell_angle_beta     89.99995045847808
_cell_angle_gamma    89.99989807807535

_space_group_name_H-M_alt    "P 1"
_space_group_IT_number       1

loop_
  _space_group_symop_operation_xyz
  'x, y, z'

loop_
  _atom_site_type_symbol
  _atom_site_label
  _atom_site_symmetry_multiplicity
  _atom_site_fract_x
  _atom_site_fract_y
  _atom_site_fract_z
  _atom_site_occupancy
  Ti  Ti1       1.0  0.8621679377077384  0.5089461961094983  0.7682070079691456  1.0000
  Ti  Ti2       1.0  0.6378307651640965  0.5089478988474881  0.2682060285237142  1.0000
  Ti  Ti3       1.0  0.13783298326789153  0.4910515810119023  0.23179520863949682  1.0000
  Ti  Ti4       1.0  0.36216741317919343  0.4910531930602673  0.7317957395719574  1.0000
  P   P1        1.0  0.8642923596427324  0.7112549236477648  0.08645747752542832  1.0000
  P   P2        1.0  0.6357020895732362  0.7112547478238938  0.5864568320137521  1.0000
  P   P3        1.0  0.13570581870313703  0.2887461945681125  0.9135402804488421  1.0000
  P   P4        1.0  0.36429883140089453  0.2887463572354321  0.4135429310200322  1.0000
  H   H1        1.0  0.8770593232796529  0.4010649264618422  0.4942926053249508  1.0000
  H   H2        1.0  0.622943400015842  0.40106478037913007  0.9942909682968731  1.0000
  H   H3        1.0  0.1229388550670762  0.5989328572390704  0.5057086087545244  1.0000
  H   H4        1.0  0.3770602635876871  0.5989352087880349  0.005710615124364421  1.0000
  H   H5        1.0  0.0481338391657999  0.3339640213801188  0.5692415112490465  1.0000
  H   H6        1.0  0.451868432115873  0.3339651738840672  0.06923725320883278  1.0000
  H   H7        1.0  0.9518629678638602  0.6660359677932632  0.4307600721751541  1.0000
  H   H8        1.0  0.5481311175442727  0.6660370536432011  0.9307596869065619  1.0000
  H   H9        1.0  0.7502754281300809  0.9360836256864005  0.2816811443644127  1.0000
  H   H10       1.0  0.7497265770135542  0.9360832363415381  0.7816814029865709  1.0000
  H   H11       1.0  0.24972412153121576  0.06391749910526559  0.7183156110789142  1.0000
  H   H12       1.0  0.2502770865880422  0.06391673309452979  0.2183231880257139  1.0000
  H   H13       1.0  0.5784079487627309  0.0444823524088633  0.3682849105435366  1.0000
  H   H14       1.0  0.9215942301028052  0.044480561548290595  0.8682828311162823  1.0000
  H   H15       1.0  0.4215916008984167  0.9555176564931213  0.631713665288423  1.0000
  H   H16       1.0  0.07840806218609941  0.9555205435097918  0.1317169319169125  1.0000
  H   H17       1.0  0.7017047225137176  0.9337383198507608  0.4505458788418578  1.0000
  H   H18       1.0  0.7982998099582872  0.9337367527677715  0.9505439058150742  1.0000
  H   H19       1.0  0.29829619846628225  0.06625838742017008  0.5494511404429687  1.0000
  H   H20       1.0  0.20170659627070353  0.06626653802670998  0.04945923415152719  1.0000
  H   H21       1.0  0.8360394788010124  0.1941219447525455  0.3375225646753818  1.0000
  H   H22       1.0  0.6639624618650044  0.1941206083311541  0.8375227126373588  1.0000
  H   H23       1.0  0.16396144217540612  0.8058769548355542  0.662476829014274  1.0000
  H   H24       1.0  0.33604120173673374  0.8058804769945879  0.16248005798629347  1.0000
  H   H25       1.0  0.9856883878755837  0.0722891250750735  0.4033134246902107  1.0000
  H   H26       1.0  0.5143136937218316  0.07228805368453098  0.9033147043250763  1.0000
  H   H27       1.0  0.0143111617878517  0.9277086783556853  0.5966847817976273  1.0000
  H   H28       1.0  0.485687227254587  0.9277108459035688  0.09668468936457944  1.0000
  H   H29       1.0  0.6658934130092576  0.2299235220818616  0.5711910700501761  1.0000
  H   H30       1.0  0.8341101788594967  0.22992376584779345  0.07118973655143179  1.0000
  H   H31       1.0  0.3341075079681631  0.7700731588809475  0.4288099593560516  1.0000
  H   H32       1.0  0.16588799948429062  0.77007621674732  0.9288128494025258  1.0000
  H   H33       1.0  0.8580173923682537  0.14611700045047368  0.6341558057128083  1.0000
  H   H34       1.0  0.6419862734080368  0.1461186956508485  0.13415482268342768  1.0000
  H   H35       1.0  0.14198627123821686  0.8538807898224974  0.36584440583395406  1.0000
  H   H36       1.0  0.3580119049365464  0.8538824094109642  0.8658449403515361  1.0000
  C   C1        1.0  0.8474392385620177  0.12018416244166728  0.41237507813118407  1.0000
  C   C2        1.0  0.652566856149427  0.12018066096656806  0.9123718589938433  1.0000
  C   C3        1.0  0.15256305372803072  0.8798158398807985  0.5876245002299497  1.0000
  C   C4        1.0  0.3474381787719594  0.8798182451948263  0.08762653216368932  1.0000
  C   C5        1.0  0.8127516575045846  0.20744864487434705  0.5549581025305343  1.0000
  C   C6        1.0  0.6872492546381893  0.20744694313749076  0.0549575289535085  1.0000
  C   C7        1.0  0.1872478921582115  0.7925491519793793  0.44504110648765044  1.0000
  C   C8        1.0  0.31275166633758283  0.7925519498735766  0.9450428672665012  1.0000
  N   N1        1.0  0.9087490319667779  0.34944010816758453  0.5748659831486833  1.0000
  N   N2        1.0  0.5912543329133442  0.34943857408364914  0.0748664949438549  1.0000
  N   N3        1.0  0.0912518890104366  0.6505599138872212  0.425130587621993  1.0000
  N   N4        1.0  0.40874795937770614  0.6505592096135326  0.925134719133851  1.0000
  N   N5        1.0  0.7114095049994233  0.9992100286369735  0.37567563605461624  1.0000
  N   N6        1.0  0.7885936318248168  0.9992073698564781  0.8756744892616624  1.0000
  N   N7        1.0  0.2885900446617242  0.0007899802650115009  0.6243229397773502  1.0000
  N   N8        1.0  0.211410031778712  0.0007926193106798001  0.12432709415957528  1.0000
  O   O1        1.0  0.8492567537636334  0.6710796365706742  0.9290729107027288  1.0000
  O   O2        1.0  0.6507400670916184  0.6710790906746665  0.4290745583630482  1.0000
  O   O3        1.0  0.15074279589751427  0.3289203723313108  0.0709256651292378  1.0000
  O   O4        1.0  0.3492567399370401  0.32892311712400607  0.5709253893445734  1.0000
  O   O5        1.0  0.1347951419648723  0.5512718125957362  0.7285522176415924  1.0000
  O   O6        1.0  0.36519829016629757  0.5512719999285095  0.22855085731033847  1.0000
  O   O7        1.0  0.8652071503235349  0.4487304017749878  0.2714467275333163  1.0000
  O   O8        1.0  0.634786175033483  0.448726906251551  0.7714475338560689  1.0000
  O   O9        1.0  0.8680139244263357  0.8814503162172611  0.12534922155520428  1.0000
  O   O10       1.0  0.6319870143374048  0.8814512367235777  0.6253507689850935  1.0000
  O   O11       1.0  0.1319856252330212  0.11855078884330784  0.8746505414791768  1.0000
  O   O12       1.0  0.3680125353195081  0.11855095791854346  0.3746511837820491  1.0000
  O   O13       1.0  0.042610177552198494  0.6445706662334345  0.1340750011977008  1.0000
  O   O14       1.0  0.45739143190059645  0.6445709961416951  0.6340762678134481  1.0000
  O   O15       1.0  0.9573893721053609  0.355431534985719  0.8659259490390878  1.0000
  O   O16       1.0  0.5426081177576093  0.35543121165448344  0.3659236798929939  1.0000
  O   O17       1.0  0.6911556529430881  0.6543258140861568  0.1503735550619396  1.0000
  O   O18       1.0  0.8088443042343414  0.654323111971422  0.6503733933222264  1.0000
  O   O19       1.0  0.3088438967151247  0.345676393710022  0.8496263926445025  1.0000
  O   O20       1.0  0.19115524542551302  0.3456768837765053  0.3496271875704409  1.0000
