data_image0
_chemical_formula_structural       Ni4H40C68N12O16
_chemical_formula_sum              "Ni4 H40 C68 N12 O16"
_cell_length_a       11.651024770705693
_cell_length_b       14.77792620916804
_cell_length_c       14.777967706360386
_cell_angle_alpha    96.54025177587252
_cell_angle_beta     107.62151189821451
_cell_angle_gamma    107.62162030171456

_space_group_name_H-M_alt    "P 1"
_space_group_IT_number       1

loop_
  _space_group_symop_operation_xyz
  'x, y, z'

loop_
  _atom_site_type_symbol
  _atom_site_label
  _atom_site_symmetry_multiplicity
  _atom_site_fract_x
  _atom_site_fract_y
  _atom_site_fract_z
  _atom_site_occupancy
  Ni  Ni1       1.0  0.6102740282254189  0.6906681582898954  0.9315642734783723  1.0000
  Ni  Ni2       1.0  0.3897263256052811  0.06843637732541202  0.3093315371588831  1.0000
  Ni  Ni3       1.0  0.38972577642682193  0.30933141253717633  0.06843548159700674  1.0000
  Ni  Ni4       1.0  0.6102738213546673  0.9315639224049834  0.6906683848034589  1.0000
  H   H1        1.0  0.43233495673604955  0.7760005445477988  0.9908463312116356  1.0000
  H   H2        1.0  0.5676658237896534  0.009152732661213706  0.22399922311881681  1.0000
  H   H3        1.0  0.5676651865312934  0.22399975984182427  0.009152237048148468  1.0000
  H   H4        1.0  0.43233273950757933  0.9908461061920876  0.7760008290277157  1.0000
  H   H5        1.0  0.20236459032895496  0.7153260837090943  0.9768167761793197  1.0000
  H   H6        1.0  0.7976370690789238  0.02318405756597741  0.28467376097614044  1.0000
  H   H7        1.0  0.7976364556783011  0.2846742190917554  0.023182681824898962  1.0000
  H   H8        1.0  0.20236217698741404  0.9768162414235848  0.7153259480930388  1.0000
  H   H9        1.0  0.16695863712695314  0.4348137937970052  0.8249975113841475  1.0000
  H   H10       1.0  0.8330400887963806  0.17500112927377393  0.5651857541417372  1.0000
  H   H11       1.0  0.8330402666316773  0.5651857762892335  0.17500203079807627  1.0000
  H   H12       1.0  0.16695971770216297  0.8249984392236842  0.4348146777849139  1.0000
  H   H13       1.0  0.40149823326015627  0.5085554177488802  0.8463177974767008  1.0000
  H   H14       1.0  0.5985015569013896  0.15368100831672393  0.4914432483230229  1.0000
  H   H15       1.0  0.5985012272380745  0.49144342650448913  0.15368111386043648  1.0000
  H   H16       1.0  0.40149734870355064  0.846318559439901  0.5085569707104798  1.0000
  H   H17       1.0  8.947132642594999e-05  0.6633858739416213  0.9309984330630315  1.0000
  H   H18       1.0  0.9999116745339052  0.0690021181105038  0.33661549407589325  1.0000
  H   H19       1.0  0.9999103314795121  0.3366136992150643  0.06900064516106845  1.0000
  H   H20       1.0  8.847242604305292e-05  0.9309981816198917  0.6633844278864489  1.0000
  H   H21       1.0  0.6652548960149647  0.4036416659182295  0.8368026378913884  1.0000
  H   H22       1.0  0.33474390454108527  0.16319828104499123  0.5963589638967052  1.0000
  H   H23       1.0  0.33474525279129363  0.5963586314825521  0.1631979609222257  1.0000
  H   H24       1.0  0.6652556838329603  0.8368027468478942  0.4036409120594442  1.0000
  H   H25       1.0  0.5236383497222263  0.0977566804640162  0.6281326592331598  1.0000
  H   H26       1.0  0.4763610739099847  0.37186699120108824  0.9022431395206425  1.0000
  H   H27       1.0  0.47636179908402454  0.9022436169367726  0.37186793958046144  1.0000
  H   H28       1.0  0.523639973943574  0.6281333092701474  0.09775699533486201  1.0000
  H   H29       1.0  0.6078904635213931  0.27843309819601814  0.6886063624706794  1.0000
  H   H30       1.0  0.39210951691173795  0.31139378679255725  0.7215671688807604  1.0000
  H   H31       1.0  0.39211058433216556  0.7215672022752175  0.3113937723848181  1.0000
  H   H32       1.0  0.607890628201915  0.6886065152674592  0.2784320762303026  1.0000
  H   H33       1.0  0.9541112119167537  0.2550389146381491  0.8820944416186693  1.0000
  H   H34       1.0  0.04588891083317041  0.11790534860598002  0.7449614180486038  1.0000
  H   H35       1.0  0.04588893688949736  0.7449613827626326  0.11790615719495186  1.0000
  H   H36       1.0  0.954112138866691  0.8820949495356347  0.2550393936581798  1.0000
  H   H37       1.0  0.8505470034442979  0.07273752238550203  0.8180107273512576  1.0000
  H   H38       1.0  0.14945143102876565  0.18198719279633482  0.927262386335123  1.0000
  H   H39       1.0  0.14945224077573732  0.927262778933674  0.18198830486664974  1.0000
  H   H40       1.0  0.8505492745170857  0.8180123787715772  0.07273758163341167  1.0000
  C   C1        1.0  0.3697004127590589  0.7007932942282695  0.9548664328548713  1.0000
  C   C2        1.0  0.6303001005698479  0.045133637177620804  0.2992070346451002  1.0000
  C   C3        1.0  0.6302993882005765  0.2992062812580301  0.04513196851794988  1.0000
  C   C4        1.0  0.3696991473428  0.9548666594823276  0.7007933512753652  1.0000
  C   C5        1.0  0.2409083605563326  0.6661512731370113  0.945783715654514  1.0000
  C   C6        1.0  0.7590925496999221  0.05421698452831693  0.3338492469553317  1.0000
  C   C7        1.0  0.7590914422496056  0.33384830001968174  0.05421536256958603  1.0000
  C   C8        1.0  0.24090669821271873  0.9457833121316316  0.6661511389651267  1.0000
  C   C9        1.0  0.1639993723051134  0.5688753507622977  0.898143801343096  1.0000
  C   C10       1.0  0.8360011132434411  0.10185527166041913  0.4311246149161435  1.0000
  C   C11       1.0  0.8360016737021496  0.4311249520385446  0.10185565666112237  1.0000
  C   C12       1.0  0.16399834910109232  0.8981435702633361  0.5688749732722728  1.0000
  C   C13       1.0  0.2229523295945415  0.5107707703942455  0.8619380397583641  1.0000
  C   C14       1.0  0.777045117035648  0.13805984288622855  0.4892275729652555  1.0000
  C   C15       1.0  0.7770462300100789  0.48922807311828365  0.1380606586856175  1.0000
  C   C16       1.0  0.22295344626158453  0.8619389959670728  0.5107724791812843  1.0000
  C   C17       1.0  0.3519893586284084  0.5507507390569942  0.8736520860562964  1.0000
  C   C18       1.0  0.6480093560600936  0.12634705613907474  0.4492492899210348  1.0000
  C   C19       1.0  0.648009200976212  0.4492481044555349  0.12634661238767816  1.0000
  C   C20       1.0  0.35198989369884975  0.8736532381912526  0.5507517728507099  1.0000
  C   C21       1.0  0.025653171243291743  0.5270349047506572  0.884415856349783  1.0000
  C   C22       1.0  0.9743476679253364  0.1155850449451776  0.4729664790868926  1.0000
  C   C23       1.0  0.974347318024364  0.4729661238830618  0.11558423249952204  1.0000
  C   C24       1.0  0.025651579987304534  0.884415251714771  0.527033906833566  1.0000
  C   C25       1.0  0.9561664207838237  0.5846444575528623  0.904106012425189  1.0000
  C   C26       1.0  0.04383438829470521  0.09589329799812422  0.41535555070689173  1.0000
  C   C27       1.0  0.04383462706973527  0.41535584291836625  0.09589412243030894  1.0000
  C   C28       1.0  0.9561650740498282  0.9041055439256243  0.5846440374815175  1.0000
  C   C29       1.0  0.8254400853466421  0.5398589427181619  0.8879326788747407  1.0000
  C   C30       1.0  0.17455999173800768  0.1120678386958645  0.4601417685978931  1.0000
  C   C31       1.0  0.17456040392101363  0.46014208591555683  0.11206740997456421  1.0000
  C   C32       1.0  0.8254401570682433  0.8879324587049171  0.5398588302157279  1.0000
  C   C33       1.0  0.7670647308370135  0.4396416467548788  0.8495726417481748  1.0000
  C   C34       1.0  0.23293554553244894  0.15042807337825084  0.5603589439191056  1.0000
  C   C35       1.0  0.23293631886285493  0.5603586513867429  0.15042816995860164  1.0000
  C   C36       1.0  0.7670640428415967  0.8495729545146348  0.439640932037044  1.0000
  C   C37       1.0  0.8430850859582009  0.38756343429057705  0.8312970717341771  1.0000
  C   C38       1.0  0.15691498338862434  0.1687035672442931  0.6124367111296962  1.0000
  C   C39       1.0  0.15691596374166034  0.6124368638510375  0.16870373997259952  1.0000
  C   C40       1.0  0.8430851635713239  0.8312967324861023  0.38756321083264583  1.0000
  C   C41       1.0  0.6171202807499654  0.1350619959860069  0.6862744621870008  1.0000
  C   C42       1.0  0.38287959578349984  0.31372517202716926  0.864938639614252  1.0000
  C   C43       1.0  0.3828807652572906  0.8649383068148427  0.31372499581721774  1.0000
  C   C44       1.0  0.6171214520700589  0.6862751284440664  0.13506149524124572  1.0000
  C   C45       1.0  0.6645896824168389  0.23562113690005052  0.7203061298449145  1.0000
  C   C46       1.0  0.3354096694358192  0.27969406049455614  0.7643790271925825  1.0000
  C   C47       1.0  0.3354104663894121  0.764379160500731  0.2796944689686996  1.0000
  C   C48       1.0  0.6645904775241293  0.7203062392358391  0.23562089476975961  1.0000
  C   C49       1.0  0.7873677843730462  0.28098088135018884  0.7923954603456025  1.0000
  C   C50       1.0  0.21263095564282256  0.20760315226749534  0.7190192898388119  1.0000
  C   C51       1.0  0.21263201843289192  0.7190186918064968  0.20760361787850462  1.0000
  C   C52       1.0  0.7873686345775328  0.7923978732957767  0.28098126296860937  1.0000
  C   C53       1.0  0.8574632589241844  0.2221396671131401  0.8271725320287973  1.0000
  C   C54       1.0  0.14253542702731184  0.17282676165192618  0.777860093198946  1.0000
  C   C55       1.0  0.14253654572806346  0.7778599037139319  0.17282722304658193  1.0000
  C   C56       1.0  0.857464719932637  0.8271735380784767  0.22213982876339608  1.0000
  C   C57       1.0  0.8016488189028268  0.12194982641643293  0.7915799830537581  1.0000
  C   C58       1.0  0.19835056387285022  0.20841884010472717  0.878050481322781  1.0000
  C   C59       1.0  0.19835132805712175  0.8780504733139627  0.208419938908584  1.0000
  C   C60       1.0  0.8016492407793907  0.7915807307223446  0.12194927375259824  1.0000
  C   C61       1.0  0.748813896303233  0.5983350960880859  0.9109311460381663  1.0000
  C   C62       1.0  0.25118464571279026  0.08906867043963024  0.40166521868436433  1.0000
  C   C63       1.0  0.25118715155032595  0.40166520438315  0.08906898881733133  1.0000
  C   C64       1.0  0.7488151607857532  0.910930898057835  0.5983352132422867  1.0000
  C   C65       1.0  0.5753751103217584  0.7652953376818062  0.7652992555839548  1.0000
  C   C66       1.0  0.4246262798395151  0.23470569169275285  0.2347010461585057  1.0000
  C   C67       1.0  0.6169031034212652  0.8523890231002302  0.8523904860114088  1.0000
  C   C68       1.0  0.3830967012309756  0.14761054772684193  0.1476092690639703  1.0000
  N   N1        1.0  0.424887353830826  0.6440939834657655  0.9196462521834691  1.0000
  N   N2        1.0  0.5751146767317296  0.08035351790387321  0.3559055036483016  1.0000
  N   N3        1.0  0.5751133480224199  0.3559055927613742  0.0803523620825146  1.0000
  N   N4        1.0  0.4248854720745284  0.919646779496908  0.6440950951653194  1.0000
  N   N5        1.0  0.9696505259742736  0.42986835102437493  0.8499618970319178  1.0000
  N   N6        1.0  0.030348455890411716  0.15003948288762103  0.5701323366915789  1.0000
  N   N7        1.0  0.03034962283197729  0.5701319463764065  0.1500387017817033  1.0000
  N   N8        1.0  0.9696507920222293  0.8499608137723275  0.4298680492288868  1.0000
  N   N9        1.0  0.6834702773465651  0.07878849980070872  0.7220979606259166  1.0000
  N   N10       1.0  0.3165281202474191  0.2779009941596869  0.9212122228957258  1.0000
  N   N11       1.0  0.31653021376739343  0.9212125265033962  0.2779028050746676  1.0000
  N   N12       1.0  0.6834720285588322  0.7220993032410948  0.07878837591789532  1.0000
  O   O1        1.0  0.6346383022832071  0.5534591320566378  0.9081357664944819  1.0000
  O   O2        1.0  0.36536124159232497  0.0918649586422973  0.4465385825370163  1.0000
  O   O3        1.0  0.36536274557035153  0.44654116841459063  0.09186436836101562  1.0000
  O   O4        1.0  0.6346376640126153  0.9081346091143276  0.5534616364964792  1.0000
  O   O5        1.0  0.7986219055080783  0.6908875379866547  0.9319783962204299  1.0000
  O   O6        1.0  0.20137773788167834  0.06802170205951802  0.3091127678762363  1.0000
  O   O7        1.0  0.20137880188408272  0.30911203125164394  0.06802224859938381  1.0000
  O   O8        1.0  0.7986224090782699  0.9319785976708772  0.6908871540861058  1.0000
  O   O9        1.0  0.5589696305400695  0.6817376431367567  0.7840460064105488  1.0000
  O   O10       1.0  0.4410283829899555  0.21595408803042918  0.3182635009287651  1.0000
  O   O11       1.0  0.4410301722658689  0.31826193001993647  0.21595307181355147  1.0000
  O   O12       1.0  0.5589735639109108  0.7840462155112535  0.6817361699686091  1.0000
  O   O13       1.0  0.6316119668433731  0.8341396508371235  0.9362043493811785  1.0000
  O   O14       1.0  0.3683886974571991  0.06379419578264842  0.16586165351264984  1.0000
  O   O15       1.0  0.36838783780886797  0.16585991998994845  0.0637954056942007  1.0000
  O   O16       1.0  0.6316111071950419  0.9362053750444307  0.8341381015627293  1.0000
