data_image0
_chemical_formula_structural       Zn4H24C20O16
_chemical_formula_sum              "Zn4 H24 C20 O16"
_cell_length_a       4.820765868008985
_cell_length_b       9.31638951326966
_cell_length_c       13.845472466744814
_cell_angle_alpha    90.09368642539049
_cell_angle_beta     89.99991566053637
_cell_angle_gamma    90.00020631566895

_space_group_name_H-M_alt    "P 1"
_space_group_IT_number       1

loop_
  _space_group_symop_operation_xyz
  'x, y, z'

loop_
  _atom_site_type_symbol
  _atom_site_label
  _atom_site_symmetry_multiplicity
  _atom_site_fract_x
  _atom_site_fract_y
  _atom_site_fract_z
  _atom_site_occupancy
  Zn  Zn1       1.0  0.9861539745211874  0.0038839139478099994  0.25300625873018845  1.0000
  Zn  Zn2       1.0  0.9861525481013873  0.4961155881164956  0.746993639845357  1.0000
  Zn  Zn3       1.0  0.013841983589031803  0.9961154305581703  0.7469930977823724  1.0000
  Zn  Zn4       1.0  0.013847558727214004  0.5038837563933283  0.2530057166661734  1.0000
  H   H1        1.0  0.42798708021534526  0.40086640119709926  0.11866999046512923  1.0000
  H   H2        1.0  0.4279843729725387  0.09913209021348018  0.8813265744767378  1.0000
  H   H3        1.0  0.5720130266169933  0.5991340166798125  0.8813293705768646  1.0000
  H   H4        1.0  0.5720157338613917  0.900868332641238  0.1186720643207337  1.0000
  H   H5        1.0  0.1412942246037616  0.40411112482131983  0.0409390963313001  1.0000
  H   H6        1.0  0.14129323199261992  0.0958868247470619  0.9590590556778055  1.0000
  H   H7        1.0  0.858703807865645  0.5958882196865857  0.959060260180749  1.0000
  H   H8        1.0  0.8587089491951759  0.9041125197646875  0.040940300833213414  1.0000
  H   H9        1.0  0.5955994387670388  0.32756876088426884  0.9633765776274362  1.0000
  H   H10       1.0  0.5955988319548311  0.1724300414918218  0.036619903956612604  1.0000
  H   H11       1.0  0.4043985937061123  0.6724316569907174  0.0366227834150692  1.0000
  H   H12       1.0  0.4044012748790991  0.8275703813628964  0.9633787348408591  1.0000
  H   H13       1.0  0.7629299560171817  0.0941749353808987  0.4682159075663679  1.0000
  H   H14       1.0  0.7629246834870856  0.4058327544125859  0.5317819715344215  1.0000
  H   H15       1.0  0.23707015082048602  0.9058265608409002  0.5317827357615599  1.0000
  H   H16       1.0  0.23707334898074353  0.594166585117513  0.46821810722214974  1.0000
  H   H17       1.0  0.7549484984385019  0.2380890587653681  0.3879505470617417  1.0000
  H   H18       1.0  0.7549543188591772  0.2619175378858785  0.612048053719697  1.0000
  H   H19       1.0  0.24504745967171712  0.7619102857406119  0.6120488094508191  1.0000
  H   H20       1.0  0.24504578797316867  0.7380828799910262  0.38795130732228966  1.0000
  H   H21       1.0  0.30125101818405403  0.32289912541880733  0.46018415929713546  1.0000
  H   H22       1.0  0.30125448509098623  0.17710016939230397  0.5398175289139218  1.0000
  H   H23       1.0  0.6987490886429628  0.6771002141132172  0.5398159194589242  1.0000
  H   H24       1.0  0.6987456217360376  0.8228991701397134  0.46018254984213774  1.0000
  C   C1        1.0  0.1317887079945663  0.2397867397934803  0.1465290597576256  1.0000
  C   C2        1.0  0.13178309784596823  0.26020262013222606  0.8534668940027075  1.0000
  C   C3        1.0  0.8682113988302975  0.7602115313492633  0.853470292223449  1.0000
  C   C4        1.0  0.8682149346240208  0.739797787787154  0.14653391152884152  1.0000
  C   C5        1.0  0.290562707898097  0.33116875945386676  0.0756292828079239  1.0000
  C   C6        1.0  0.2905623751693512  0.1688294670461303  0.9243687949665402  1.0000
  C   C7        1.0  0.7094373989342488  0.6688316584230377  0.9243700782340697  1.0000
  C   C8        1.0  0.7094377316614031  0.8311709458529747  0.07563128831997552  1.0000
  C   C9        1.0  0.4600065254056531  0.24999827615008025  0.9999988631987267  1.0000
  C   C10       1.0  0.5399935814266855  0.7500021417268313  4.978432670990514e-07  1.0000
  C   C11       1.0  0.4629591241180719  0.07575833949753269  0.357019143204397  1.0000
  C   C12       1.0  0.46295349800715263  0.4242412652704246  0.6429810200988941  1.0000
  C   C13       1.0  0.5370389083444352  0.9242399216876723  0.6429816532662402  1.0000
  C   C14       1.0  0.5370507575494728  0.5757612943666927  0.3570190722474963  1.0000
  C   C15       1.0  0.6193099570361938  0.16578341238712113  0.4294270108312119  1.0000
  C   C16       1.0  0.6193081648732816  0.3342218492903726  0.5705730973667258  1.0000
  C   C17       1.0  0.38069014979240734  0.8342159321227028  0.5705723456803256  1.0000
  C   C18       1.0  0.38069401631610594  0.6657775001991838  0.42942553689977103  1.0000
  C   C19       1.0  0.4388740380037035  0.2500008509227881  0.5000004532926852  1.0000
  C   C20       1.0  0.5611260688211601  0.7499974202199553  0.4999988986883893  1.0000
  O   O1        1.0  0.13133189499291834  0.10346875599157809  0.13635044773318586  1.0000
  O   O2        1.0  0.13132926717815252  0.3965280867921308  0.8636498714339214  1.0000
  O   O3        1.0  0.868668211837843  0.8965316569075269  0.8636496355533296  1.0000
  O   O4        1.0  0.8686708396413966  0.6034691060057255  0.13635019826121922  1.0000
  O   O5        1.0  0.00035943537668710004  0.29817392553506034  0.21679700953512085  1.0000
  O   O6        1.0  0.0003599452406320001  0.2018269776882775  0.7832019483994658  1.0000
  O   O7        1.0  0.9996385970964639  0.7018264923399258  0.7832023515073916  1.0000
  O   O8        1.0  0.9996401615917065  0.7981734401886342  0.2167974126425278  1.0000
  O   O9        1.0  0.5882586682091359  0.017586190922706604  0.2857640433544121  1.0000
  O   O10       1.0  0.588259362490561  0.48241469976949947  0.7142389511416454  1.0000
  O   O11       1.0  0.41174143861256607  0.9824120702644235  0.7142367531157063  1.0000
  O   O12       1.0  0.41174489305541334  0.5175857031778436  0.28576257663287663  1.0000
  O   O13       1.0  0.20152340529229923  0.059669799291086206  0.36841799046477053  1.0000
  O   O14       1.0  0.20152001534306416  0.44033253059482286  0.6315837609360813  1.0000
  O   O15       1.0  0.7984746271814275  0.940331681995367  0.6315828195972344  1.0000
  O   O16       1.0  0.7984904632805014  0.5596678723582896  0.36841776683689187  1.0000
