data_image0
_chemical_formula_structural       Tb4Cu6H48C48O60
_chemical_formula_sum              "Tb4 Cu6 H48 C48 O60"
_cell_length_a       13.075109442008586
_cell_length_b       13.065289642929937
_cell_length_c       16.205194532729745
_cell_angle_alpha    89.99981598699523
_cell_angle_beta     90.00014739198953
_cell_angle_gamma    120.02762842425194

_space_group_name_H-M_alt    "P 1"
_space_group_IT_number       1

loop_
  _space_group_symop_operation_xyz
  'x, y, z'

loop_
  _atom_site_type_symbol
  _atom_site_label
  _atom_site_symmetry_multiplicity
  _atom_site_fract_x
  _atom_site_fract_y
  _atom_site_fract_z
  _atom_site_occupancy
  Tb  Tb1       1.0  0.3333624855893191  0.6667276629939922  0.7499956904801903  1.0000
  Tb  Tb2       1.0  0.6666381871149908  0.33328337510273104  0.7500166031009242  1.0000
  Tb  Tb3       1.0  0.6666541018237239  0.33328715882160503  0.2500047098418534  1.0000
  Tb  Tb4       1.0  0.3333515408402759  0.6667122394279447  0.25000169212001566  1.0000
  Cu  Cu1       1.0  0.999998592033961  0.4999986142169491  0.5000061821196695  1.0000
  Cu  Cu2       1.0  0.5000133092890521  5.51330755634899e-06  0.500006459926709  1.0000
  Cu  Cu3       1.0  0.49998914485634316  0.49998979058031523  0.4999912519609068  1.0000
  Cu  Cu4       1.0  0.49999361392564606  0.4999970950111318  3.3945139679999485e-07  1.0000
  Cu  Cu5       1.0  0.49999689556516064  0.9999985066794463  7.964264703699993e-06  1.0000
  Cu  Cu6       1.0  1.3541710401173734e-06  0.5000161335452944  0.9999937697515976  1.0000
  H   H1        1.0  0.19095121670122928  0.8425044522976535  0.6435895874014861  1.0000
  H   H2        1.0  0.06521798056851234  0.7550760121679689  0.7083580133021525  1.0000
  H   H3        1.0  0.6514130064362574  0.8090411383778643  0.6435887934320943  1.0000
  H   H4        1.0  0.6899429197921234  0.9349175903675047  0.7082991812313963  1.0000
  H   H5        1.0  0.1575913682336675  0.348434926844412  0.6435943762621006  1.0000
  H   H6        1.0  0.24487517814544185  0.31000310492736116  0.7083563672453081  1.0000
  H   H7        1.0  0.8090154677267661  0.15751158780064856  0.643604525947822  1.0000
  H   H8        1.0  0.9347758515243852  0.2449177412589237  0.7083550639868645  1.0000
  H   H9        1.0  0.348598113888741  0.19094256140771648  0.6435948300184718  1.0000
  H   H10       1.0  0.3100751549496365  0.06506782274679782  0.7083071405349627  1.0000
  H   H11       1.0  0.8424000582038429  0.6514985913078418  0.6435873952535045  1.0000
  H   H12       1.0  0.7551540510951539  0.6900211720844354  0.7083159831841499  1.0000
  H   H13       1.0  0.34843525923678687  0.1574859152452319  0.8564140198491257  1.0000
  H   H14       1.0  0.31013510186766513  0.2449106324236681  0.7916470399651201  1.0000
  H   H15       1.0  0.8423507527179622  0.19090782004945356  0.8564198078319618  1.0000
  H   H16       1.0  0.7549682134366262  0.06506972187965945  0.7916832639492737  1.0000
  H   H17       1.0  0.8091625219036797  0.6515863662537881  0.8564105470178375  1.0000
  H   H18       1.0  0.9348668934970302  0.6900008043018175  0.7916362428401128  1.0000
  H   H19       1.0  0.6515421547493357  0.8424941365227026  0.8564121331865946  1.0000
  H   H20       1.0  0.6898580744210105  0.7550773810631313  0.7916502764105855  1.0000
  H   H21       1.0  0.1576267095195405  0.8090180428305019  0.8564149840515539  1.0000
  H   H22       1.0  0.24497873507939255  0.9349132515142031  0.7917152537007651  1.0000
  H   H23       1.0  0.1908729514102062  0.348488067719792  0.8564131393145472  1.0000
  H   H24       1.0  0.06512887500367978  0.30999072432771163  0.7916586052599115  1.0000
  H   H25       1.0  0.8090822775785752  0.15751060303177414  0.3564003227548866  1.0000
  H   H26       1.0  0.9348084208944626  0.24495942133071225  0.2916306626925049  1.0000
  H   H27       1.0  0.34859010384981554  0.19094758256981958  0.3564159260838976  1.0000
  H   H28       1.0  0.3100987717352197  0.06508354053626422  0.2916981340095148  1.0000
  H   H29       1.0  0.8423954141309478  0.651590601886106  0.3564017040060179  1.0000
  H   H30       1.0  0.7551041776215399  0.6899980065432987  0.2916298393539876  1.0000
  H   H31       1.0  0.1909238187387315  0.8424800520790469  0.3564045120719682  1.0000
  H   H32       1.0  0.06519577119929915  0.7550381922920623  0.2916373130391462  1.0000
  H   H33       1.0  0.6514370008632324  0.8090874727981328  0.35640989033127096  1.0000
  H   H34       1.0  0.6898975292458117  0.9349291975750307  0.2916772146621724  1.0000
  H   H35       1.0  0.15759523044797416  0.348392402180032  0.3563864691753551  1.0000
  H   H36       1.0  0.244892894497731  0.30999595062944246  0.2916078990107422  1.0000
  H   H37       1.0  0.6515130854665473  0.8425060095421631  0.1435944012451458  1.0000
  H   H38       1.0  0.6898643743245569  0.7550966355014881  0.20833484742477273  1.0000
  H   H39       1.0  0.15763947397070388  0.809033172651766  0.14358491114283817  1.0000
  H   H40       1.0  0.24498165790617288  0.9349041881476196  0.20830726155627838  1.0000
  H   H41       1.0  0.19090252274094865  0.3484899925504479  0.14356640528875175  1.0000
  H   H42       1.0  0.0651358083851648  0.30997327614979764  0.2083030654472395  1.0000
  H   H43       1.0  0.34849445740538687  0.1574938465464158  0.14359628942790437  1.0000
  H   H44       1.0  0.31014662912885166  0.24490228409882064  0.20834148426573046  1.0000
  H   H45       1.0  0.8423677924022142  0.19096995975367287  0.1435829473619847  1.0000
  H   H46       1.0  0.7550202569636824  0.06508996956520025  0.20829501961367206  1.0000
  H   H47       1.0  0.8091180877384899  0.6515213229670209  0.1435817067493019  1.0000
  H   H48       1.0  0.9348672432387415  0.6900318139580153  0.20833192137724407  1.0000
  C   C1        1.0  0.1216358359725545  0.6548451091168204  0.6346208718683781  1.0000
  C   C2        1.0  0.14821275538287884  0.7643891572506974  0.684405481242379  1.0000
  C   C3        1.0  0.5332927492622586  0.8784117850661628  0.6345974726990207  1.0000
  C   C4        1.0  0.6161564943475569  0.8518446363668063  0.6843624216251527  1.0000
  C   C5        1.0  0.3451271836289037  0.46679291217513  0.6346062655334918  1.0000
  C   C6        1.0  0.23563392099666197  0.383793989115823  0.6843872184454084  1.0000
  C   C7        1.0  0.8783656038206756  0.345179341570315  0.6346370180814416  1.0000
  C   C8        1.0  0.851784421488901  0.23562899388230815  0.6844161625165057  1.0000
  C   C9        1.0  0.46673753187023675  0.1215938688935267  0.6346098165730607  1.0000
  C   C10       1.0  0.3838575308480826  0.14814523580227504  0.6843703618461134  1.0000
  C   C11       1.0  0.6548511394775145  0.5331876697650202  0.6346102789538789  1.0000
  C   C12       1.0  0.7643575960171911  0.6161935319183697  0.6843788872644507  1.0000
  C   C13       1.0  0.4667847316742097  0.3451529191735574  0.8653891481940972  1.0000
  C   C14       1.0  0.38382143269608804  0.23560763643869367  0.8156035510269815  1.0000
  C   C15       1.0  0.6548695173971523  0.12159166596519104  0.8654144145581454  1.0000
  C   C16       1.0  0.764291619531896  0.1481458360271333  0.8156417264887139  1.0000
  C   C17       1.0  0.8783379853655403  0.5332319588648533  0.865395749843344  1.0000
  C   C18       1.0  0.8518345655326414  0.6162230790132457  0.815611797383724  1.0000
  C   C19       1.0  0.5331865170176753  0.654827234585518  0.8653756971425536  1.0000
  C   C20       1.0  0.6161669058160085  0.7643784738679004  0.815597540723047  1.0000
  C   C21       1.0  0.34512112210208573  0.8783983512779231  0.8654096714472812  1.0000
  C   C22       1.0  0.23569018257762755  0.8518345423683585  0.8156439059021706  1.0000
  C   C23       1.0  0.12165375064171956  0.4668036260935793  0.8653808208541847  1.0000
  C   C24       1.0  0.14815649266594724  0.3838040198384078  0.8156139781281837  1.0000
  C   C25       1.0  0.8783721093076265  0.34516451446232566  0.3653813795261555  1.0000
  C   C26       1.0  0.8518115752019709  0.23563173037732812  0.3155887483945889  1.0000
  C   C27       1.0  0.46674413020107847  0.1216120345862705  0.36541095015705577  1.0000
  C   C28       1.0  0.3838688068615708  0.1481647865845729  0.3156416813303479  1.0000
  C   C29       1.0  0.6548674521753456  0.5332130088935828  0.3653861122260977  1.0000
  C   C30       1.0  0.764355492108528  0.6162199783195774  0.31560515927587557  1.0000
  C   C31       1.0  0.1216312787650296  0.6548244100334204  0.3653812773186189  1.0000
  C   C32       1.0  0.1481913752636713  0.7643605100185269  0.3155928761287611  1.0000
  C   C33       1.0  0.5332642293530794  0.8783961528930674  0.3654035421330447  1.0000
  C   C34       1.0  0.6161404955082046  0.8518498937929948  0.3156331234510148  1.0000
  C   C35       1.0  0.3451223152157113  0.466771008742704  0.3653753101754659  1.0000
  C   C36       1.0  0.23563670664010056  0.3837675942569945  0.31558942383599486  1.0000
  C   C37       1.0  0.533185742189275  0.6548311924180866  0.13461865615010987  1.0000
  C   C38       1.0  0.6161573725763317  0.7643804694475663  0.18439931680092053  1.0000
  C   C39       1.0  0.34513441947683515  0.8784067839071313  0.13460634927476886  1.0000
  C   C40       1.0  0.23569603825516322  0.85183523323294  0.1843648439642465  1.0000
  C   C41       1.0  0.12166432156698184  0.4667906247954861  0.1345941598164444  1.0000
  C   C42       1.0  0.1481705781678997  0.38379526514303564  0.18436268514568604  1.0000
  C   C43       1.0  0.46682419772164246  0.34516918993655576  0.1346228516967543  1.0000
  C   C44       1.0  0.3838510353690906  0.23561549075514424  0.1844028594848481  1.0000
  C   C45       1.0  0.6548761769942715  0.12160048733994704  0.1345999847224491  1.0000
  C   C46       1.0  0.764311368416031  0.14816771440944626  0.18436019658989974  1.0000
  C   C47       1.0  0.8783517364864079  0.5332204009773845  0.13461402555951446  1.0000
  C   C48       1.0  0.8518417010371236  0.6162135078571753  0.18438271937303338  1.0000
  O   O1        1.0  0.18083224302161227  0.6048325699396813  0.6488861401576427  1.0000
  O   O2        1.0  0.0401661612318165  0.6255288857741803  0.5812980766949778  1.0000
  O   O3        1.0  0.42409689025715386  0.8191855420685387  0.6489590810215943  1.0000
  O   O4        1.0  0.5854380408430301  0.9599551799779678  0.5812536846691783  1.0000
  O   O5        1.0  0.39522908754801017  0.5761206628369281  0.6489137725565826  1.0000
  O   O6        1.0  0.37442118433806815  0.4145543095213072  0.5813117939125831  1.0000
  O   O7        1.0  0.8191822997544091  0.3952026839559295  0.6489175351675626  1.0000
  O   O8        1.0  0.9598209610230624  0.3744812145441543  0.5813057398998254  1.0000
  O   O9        1.0  0.5759296515807506  0.1808200785059526  0.6489822045142475  1.0000
  O   O10       1.0  0.4145969348476938  0.04005538336325291  0.5812606552850709  1.0000
  O   O11       1.0  0.604749891189904  0.42386166975922623  0.6489263098746318  1.0000
  O   O12       1.0  0.6255589261310844  0.5854264591154532  0.5813148545505341  1.0000
  O   O13       1.0  0.5759958321228494  0.39517239398818305  0.8511280643105292  1.0000
  O   O14       1.0  0.4146253236608785  0.3744662357150546  0.9187077511559636  1.0000
  O   O15       1.0  0.6049107313220929  0.18082535774164646  0.851058657395299  1.0000
  O   O16       1.0  0.6254679586551929  0.04004462318939512  0.9187573668197898  1.0000
  O   O17       1.0  0.8191014914777383  0.4239020521409885  0.8510954878178865  1.0000
  O   O18       1.0  0.9598810023871207  0.5854726108799254  0.9186816726737133  1.0000
  O   O19       1.0  0.42397779889032694  0.6048090873085954  0.8511039548099291  1.0000
  O   O20       1.0  0.5853409884522235  0.6255167654523532  0.918701293745066  1.0000
  O   O21       1.0  0.39509159553005424  0.8191780795257487  0.8510413059514121  1.0000
  O   O22       1.0  0.37451629328838715  0.959936102167788  0.9187602855309221  1.0000
  O   O23       1.0  0.18089214706261453  0.576130817195491  0.8510705037819617  1.0000
  O   O24       1.0  0.04011063993940674  0.41456717046492736  0.9186675156964128  1.0000
  O   O25       1.0  0.8191787441412899  0.39518013515494504  0.3511111746218916  1.0000
  O   O26       1.0  0.959826297806167  0.3744686062658431  0.4187140477253948  1.0000
  O   O27       1.0  0.5759355989706307  0.18083649750738573  0.3510456392293121  1.0000
  O   O28       1.0  0.414595519351181  0.04006883372578331  0.41875844064652057  1.0000
  O   O29       1.0  0.604783181470175  0.42388178195150766  0.35108415926367087  1.0000
  O   O30       1.0  0.6255584488660373  0.5854435264254222  0.41867441266992234  1.0000
  O   O31       1.0  0.18082629955052434  0.6048138263725845  0.35111125098548956  1.0000
  O   O32       1.0  0.04017090957497517  0.6255183488422277  0.4187100870404237  1.0000
  O   O33       1.0  0.42407224790475323  0.8191683051329194  0.35104226173292824  1.0000
  O   O34       1.0  0.5854143676723704  0.9599389692552619  0.4187502352724835  1.0000
  O   O35       1.0  0.3952119792974499  0.5761021673509887  0.3510765574961851  1.0000
  O   O36       1.0  0.3744245195549283  0.41453611661837914  0.4186651810048616  1.0000
  O   O37       1.0  0.423979448030465  0.6048085843083512  0.14888591095798626  1.0000
  O   O38       1.0  0.5853486751695838  0.625525003337728  0.08129264826412447  1.0000
  O   O39       1.0  0.395108552086711  0.8191868605959628  0.1489762997773738  1.0000
  O   O40       1.0  0.3745300337043742  0.959946026340056  0.08126031142701608  1.0000
  O   O41       1.0  0.1808944539733303  0.5761176437765911  0.14891108303559258  1.0000
  O   O42       1.0  0.04012683323374223  0.4145626866877876  0.08130330047831788  1.0000
  O   O43       1.0  0.576029663685908  0.39519649064635604  0.1488915086025102  1.0000
  O   O44       1.0  0.41465759290508697  0.374471813202213  0.0812991060880748  1.0000
  O   O45       1.0  0.6049037665199607  0.18082413166313685  0.1489695843788468  1.0000
  O   O46       1.0  0.6254761656481803  0.04006138978651563  0.08125430723377038  1.0000
  O   O47       1.0  0.819120738643434  0.4238935917873974  0.1489261940221169  1.0000
  O   O48       1.0  0.9598915281224264  0.5854570508287935  0.0813260964882616  1.0000
  O   O49       1.0  0.22510465530299198  0.7748834694726979  0.7500037652357177  1.0000
  O   O50       1.0  0.5497793607620524  0.7748742509183943  0.7499927915501841  1.0000
  O   O51       1.0  0.22511138321497257  0.4502448744878861  0.7499929801938733  1.0000
  O   O52       1.0  0.7749186904705211  0.22515231578044145  0.7500282756608029  1.0000
  O   O53       1.0  0.4502231493056568  0.2251199763600482  0.7500046918860263  1.0000
  O   O54       1.0  0.7748403685352512  0.5497637293727065  0.7500174612559007  1.0000
  O   O55       1.0  0.7749107221968784  0.22513101578416445  0.2499947838046665  1.0000
  O   O56       1.0  0.4502425492358241  0.2251459629492345  0.2500162481059007  1.0000
  O   O57       1.0  0.7749005363986182  0.549771442667975  0.2500068029702049  1.0000
  O   O58       1.0  0.22508866560907836  0.7748593785021427  0.24999619083605748  1.0000
  O   O59       1.0  0.5497662059599403  0.7748459188578991  0.2500154543901729  1.0000
  O   O60       1.0  0.2250940777958092  0.4502265638648595  0.2499958962727717  1.0000
