data_image0
_chemical_formula_structural       Na4H36C40O24
_chemical_formula_sum              "Na4 H36 C40 O24"
_cell_length_a       7.279715260438525
_cell_length_b       9.874168999924525
_cell_length_c       15.851590926170484
_cell_angle_alpha    74.76962368177583
_cell_angle_beta     76.70815508335984
_cell_angle_gamma    68.3700729212069

_space_group_name_H-M_alt    "P 1"
_space_group_IT_number       1

loop_
  _space_group_symop_operation_xyz
  'x, y, z'

loop_
  _atom_site_type_symbol
  _atom_site_label
  _atom_site_symmetry_multiplicity
  _atom_site_fract_x
  _atom_site_fract_y
  _atom_site_fract_z
  _atom_site_occupancy
  Na  Na1       1.0  0.45449238200888703  0.678919919727065  0.9245147092702625  1.0000
  Na  Na2       1.0  0.05798883739432645  0.8210060068028895  0.575794982743517  1.0000
  Na  Na3       1.0  0.5455131151917102  0.3210793792202082  0.07548423676652764  1.0000
  Na  Na4       1.0  0.9420142888062346  0.1789944077868881  0.42420289894187857  1.0000
  H   H1        1.0  0.034582584417357766  0.2201550668839262  0.8238256373329733  1.0000
  H   H2        1.0  0.07799739099657922  0.27961452792729347  0.6763319190554924  1.0000
  H   H3        1.0  0.9654129381049261  0.7798453313967713  0.17617556735939402  1.0000
  H   H4        1.0  0.9220042267840683  0.7203892064599061  0.3236684050370259  1.0000
  H   H5        1.0  0.9391152222961241  0.40841214263669917  0.9172105701909815  1.0000
  H   H6        1.0  0.26432001024015517  0.0914621363548918  0.5828987300629933  1.0000
  H   H7        1.0  0.06087685186303556  0.5915860255160723  0.08279247595960733  1.0000
  H   H8        1.0  0.735680185238643  0.9085404776580289  0.4171036131264431  1.0000
  H   H9        1.0  0.05661950006783914  0.3345223559062305  0.06486647597031951  1.0000
  H   H10       1.0  0.4555577501813346  0.1654695113725353  0.43520651055991516  1.0000
  H   H11       1.0  0.9433749621658766  0.6654747034495827  0.9351362210157533  1.0000
  H   H12       1.0  0.5444401604155121  0.8345297781112039  0.5647943449679218  1.0000
  H   H13       1.0  0.25793287670865084  0.07672732703964162  0.11799626376469521  1.0000
  H   H14       1.0  0.4523185954611079  0.42330746224273247  0.382178675492682  1.0000
  H   H15       1.0  0.7420685512948638  0.9232697455547768  0.8820037405106262  1.0000
  H   H16       1.0  0.5476785648914344  0.5766907236283104  0.6178207418040103  1.0000
  H   H17       1.0  0.707126009004796  0.16978831301164385  0.8357580239404285  1.0000
  H   H18       1.0  0.7126644936530228  0.33021327489284147  0.6638762162508983  1.0000
  H   H19       1.0  0.292874582636344  0.8302120961417715  0.1642409654139527  1.0000
  H   H20       1.0  0.2873403656390821  0.6697860209839561  0.3361233600821194  1.0000
  H   H21       1.0  0.46750105454447827  0.15377319495694763  0.8810850420004285  1.0000
  H   H22       1.0  0.5022642885097712  0.3465887622796089  0.6185337507455202  1.0000
  H   H23       1.0  0.5324993906117966  0.8462260999631541  0.11891470585842265  1.0000
  H   H24       1.0  0.4977412086908263  0.653410536667657  0.3814651952912699  1.0000
  H   H25       1.0  0.041020466741798774  0.021393532706888204  0.7859766579089111  1.0000
  H   H26       1.0  0.8476015033193539  0.4786184956712347  0.7143316670900717  1.0000
  H   H27       1.0  0.9589739264483728  0.9786079736661718  0.2140250488714416  1.0000
  H   H28       1.0  0.1524019678199623  0.5213796935223841  0.2856671013080287  1.0000
  H   H29       1.0  0.28275800752106073  0.0388375334424964  0.7405159692490174  1.0000
  H   H30       1.0  0.06141752104498039  0.461117209403092  0.759696441204909  1.0000
  H   H31       1.0  0.7172359113200172  0.9611650909389553  0.2594841958071754  1.0000
  H   H32       1.0  0.9385850966574342  0.5388843095039775  0.24030272578816905  1.0000
  H   H33       1.0  0.3800352070568709  0.5525146268183221  0.789831199189102  1.0000
  H   H34       1.0  0.7218983647444477  0.9478466835471834  0.7100466723350465  1.0000
  H   H35       1.0  0.6199647296012502  0.4474857724190641  0.21016983397742456  1.0000
  H   H36       1.0  0.2781048908664516  0.052154838430361394  0.2899518643617967  1.0000
  C   C1        1.0  0.255947706733302  0.9993294951430657  0.0028635131298955356  1.0000
  C   C2        1.0  0.25779038557855233  0.5005507259372096  0.4973746703755779  1.0000
  C   C3        1.0  0.7440533763314511  0.0006698028475114011  0.9971356044327279  1.0000
  C   C4        1.0  0.7422109733814114  0.49945079367445533  0.5026243436940306  1.0000
  C   C5        1.0  0.19467881019971162  0.04085360669515841  0.9183309040175586  1.0000
  C   C6        1.0  0.15330292840144458  0.45897901869953744  0.5818949271503229  1.0000
  C   C7        1.0  0.805318608973508  0.959146793951419  0.08166982330204328  1.0000
  C   C8        1.0  0.8466967927282599  0.5410247133217823  0.4181058743149536  1.0000
  C   C9        1.0  0.08163349667391667  0.18770525593359366  0.8886432935675684  1.0000
  C   C10       1.0  0.15743267960741772  0.3121189881187121  0.6115243116947653  1.0000
  C   C11       1.0  0.9183637930889645  0.8122940373252234  0.11135677874057855  1.0000
  C   C12       1.0  0.8425685157931537  0.6878814104140859  0.3884768743952307  1.0000
  C   C13       1.0  0.029022259834242566  0.29413371854704456  0.94142477780602  1.0000
  C   C14       1.0  0.26410664477769086  0.20575333432544338  0.5587047777647101  1.0000
  C   C15       1.0  0.9709724953692107  0.7058655692754101  0.05857640217112001  1.0000
  C   C16       1.0  0.7358931453955577  0.7942459506786295  0.44129701390627935  1.0000
  C   C17       1.0  0.09246435434098295  0.2534010621249081  0.023490200271126613  1.0000
  C   C18       1.0  0.3689057216831275  0.2465402377894392  0.4766348028801062  1.0000
  C   C19       1.0  0.9075321510285406  0.7465971138301061  0.9765112608377108  1.0000
  C   C20       1.0  0.6310934305816359  0.753459044144158  0.5233676190871179  1.0000
  C   C21       1.0  0.2065489759459425  0.10600908506793158  0.05422467013068651  1.0000
  C   C22       1.0  0.36641050179691353  0.39394072413723796  0.4459479063211517  1.0000
  C   C23       1.0  0.7934516847387416  0.8939868770682436  0.9457753094294149  1.0000
  C   C24       1.0  0.6335888140272419  0.6060596788752264  0.5540523436256919  1.0000
  C   C25       1.0  0.5784849824834598  0.20054479251001575  0.887592549013725  1.0000
  C   C26       1.0  0.6664960359503737  0.29959620151541344  0.6120362739980579  1.0000
  C   C27       1.0  0.4215161005813004  0.7994545054805613  0.11240656854889865  1.0000
  C   C28       1.0  0.33350721966053254  0.7004053204621317  0.38796226269879247  1.0000
  C   C29       1.0  0.4867791485812488  0.36835950420222474  0.8742705580860887  1.0000
  C   C30       1.0  0.728999916729997  0.13183394195912262  0.625362513193565  1.0000
  C   C31       1.0  0.51322430548354  0.6316386781458476  0.12572962382792954  1.0000
  C   C32       1.0  0.2710063477894237  0.8681664674463931  0.3746364575584522  1.0000
  C   C33       1.0  0.20340626445047874  0.9650279589309103  0.784760479854029  1.0000
  C   C34       1.0  0.9525518480762045  0.53494347141568  0.7154514588945774  1.0000
  C   C35       1.0  0.7965894045566702  0.0349735535831073  0.21523996633386844  1.0000
  C   C36       1.0  0.04745126104983647  0.4650569363285514  0.28454783630673564  1.0000
  C   C37       1.0  0.25696716024952365  0.8250791535936132  0.7469800383161527  1.0000
  C   C38       1.0  0.8285647158085541  0.674967041018796  0.7532015018199303  1.0000
  C   C39       1.0  0.743029767500076  0.17492235821580948  0.2530205607952071  1.0000
  C   C40       1.0  0.17143461709013508  0.3250333688392217  0.24679733461098857  1.0000
  O   O1        1.0  0.36339390137229094  0.8517599645071527  0.026650931687278553  1.0000
  O   O2        1.0  0.24173227294397756  0.6481046115994856  0.4736876187647141  1.0000
  O   O3        1.0  0.6366078196009547  0.14823933655390684  0.9733475555791173  1.0000
  O   O4        1.0  0.7582719655141693  0.3518946880523828  0.5263111743486065  1.0000
  O   O5        1.0  0.5392790701589761  0.5652751911489419  0.06556727235741994  1.0000
  O   O6        1.0  0.1707140326884232  0.9346757313249087  0.4347589364811668  1.0000
  O   O7        1.0  0.46072578913312895  0.4347241047278487  0.9344323039755906  1.0000
  O   O8        1.0  0.8292928526649562  0.0653246743055362  0.5652408174905403  1.0000
  O   O9        1.0  0.44159511080807334  0.4327434949706871  0.7942987994332142  1.0000
  O   O10       1.0  0.6682030210615082  0.0675909595454485  0.705403906553201  1.0000
  O   O11       1.0  0.5584029291991116  0.5672569019008193  0.20570271110607766  1.0000
  O   O12       1.0  0.3318018382305962  0.9324083363313423  0.2945956697798167  1.0000
  O   O13       1.0  0.2541435111796065  0.9287498575927207  0.8718871145260323  1.0000
  O   O14       1.0  0.05418026123754783  0.5710952172483985  0.6283200154746709  1.0000
  O   O15       1.0  0.7458559511294214  0.07125165965305769  0.12811237691634156  1.0000
  O   O16       1.0  0.9458223564648665  0.4289063016586638  0.37167915151840003  1.0000
  O   O17       1.0  0.3125702409283308  0.7004504972044714  0.8002503096675255  1.0000
  O   O18       1.0  0.813062718063783  0.799564650470245  0.6999283523323997  1.0000
  O   O19       1.0  0.6874266868212687  0.29955101460495115  0.19975028944384124  1.0000
  O   O20       1.0  0.18693648542456034  0.2004346519999984  0.3000698290870645  1.0000
  O   O21       1.0  0.23738807604223666  0.8470516832866296  0.6677082654977228  1.0000
  O   O22       1.0  0.7517100078891875  0.6530404969015037  0.832499052360248  1.0000
  O   O23       1.0  0.762607101541292  0.1529509403902267  0.33229205248193233  1.0000
  O   O24       1.0  0.24829197190473443  0.34696101893509024  0.16750074492905043  1.0000
