data_image0
_chemical_formula_structural       Gd2H42C56O24
_chemical_formula_sum              "Gd2 H42 C56 O24"
_cell_length_a       9.587942446779921
_cell_length_b       11.428575913967826
_cell_length_c       12.503927414546204
_cell_angle_alpha    75.17278076029025
_cell_angle_beta     73.6907137434603
_cell_angle_gamma    73.40591136024369

_space_group_name_H-M_alt    "P 1"
_space_group_IT_number       1

loop_
  _space_group_symop_operation_xyz
  'x, y, z'

loop_
  _atom_site_type_symbol
  _atom_site_label
  _atom_site_symmetry_multiplicity
  _atom_site_fract_x
  _atom_site_fract_y
  _atom_site_fract_z
  _atom_site_occupancy
  Gd  Gd1       1.0  0.28841947149685876  0.9551459564550483  0.05152691708028099  1.0000
  Gd  Gd2       1.0  0.7115808105107675  0.0448543645482857  0.9484731121780212  1.0000
  H   H1        1.0  0.20801490146499904  0.6910297448414937  0.262441339307216  1.0000
  H   H2        1.0  0.79198511550711  0.3089715062901561  0.7375585277213403  1.0000
  H   H3        1.0  0.4888958556044828  0.9264133569688155  0.20114133761489936  1.0000
  H   H4        1.0  0.5111046807588905  0.07358603180587411  0.7988580569603697  1.0000
  H   H5        1.0  0.3962790775500056  0.8206013552531456  0.2608996395109174  1.0000
  H   H6        1.0  0.603721988884395  0.17939617326490515  0.739100079523844  1.0000
  H   H7        1.0  0.14816590005084862  0.890251590243075  0.8918857115685696  1.0000
  H   H8        1.0  0.8518346469922946  0.1097478006319434  0.1081144799194789  1.0000
  H   H9        1.0  0.04977506698952548  0.8521538135522061  0.012109466339715975  1.0000
  H   H10       1.0  0.9502243952730822  0.1478455706730841  0.9878909685925519  1.0000
  H   H11       1.0  0.09517970076905868  0.7685766936462458  0.4355151690202348  1.0000
  H   H12       1.0  0.9048208355943146  0.23142269512844385  0.5644842255550344  1.0000
  H   H13       1.0  0.9367130510269419  0.76452501081981  0.6330476559282159  1.0000
  H   H14       1.0  0.06328776105171129  0.23547344992688582  0.3669526977895785  1.0000
  H   H15       1.0  0.7033492250574229  0.9289890146351711  0.6681411407077105  1.0000
  H   H16       1.0  0.2966513326654763  0.0710103783401763  0.33185984769312427  1.0000
  H   H17       1.0  0.6235991031217695  0.08994401522398478  0.5084146753787806  1.0000
  H   H18       1.0  0.3764012002453897  0.9100563099800137  0.49158694770508776  1.0000
  H   H19       1.0  0.7993656142507036  0.2738373398792859  0.3926445685115354  1.0000
  H   H20       1.0  0.2006344134011685  0.7261639133526926  0.6073560954298002  1.0000
  H   H21       1.0  0.6334805540986325  0.48806080304208166  0.38993490133749725  1.0000
  H   H22       1.0  0.3665175369884039  0.511939500461132  0.6100640209836781  1.0000
  H   H23       1.0  0.3598621391820629  0.3974126352617944  0.21739120372094328  1.0000
  H   H24       1.0  0.6401381321458006  0.6025876836412037  0.7826080286245798  1.0000
  H   H25       1.0  0.5303350464712154  0.18527409362258138  0.21508436749358836  1.0000
  H   H26       1.0  0.4696663203169467  0.8147262340304804  0.7849154183205016  1.0000
  H   H27       1.0  0.4422004765840484  0.46056136775613515  0.9491920394090272  1.0000
  H   H28       1.0  0.5577978474992024  0.5394379993177693  0.050804654403549386  1.0000
  H   H29       1.0  0.2515691119500048  0.6470020344835135  0.010477602375878746  1.0000
  H   H30       1.0  0.7484289577774988  0.3529982648190355  0.9895197261197382  1.0000
  H   H31       1.0  0.9435645916069717  0.41359414713243586  0.18907169177107616  1.0000
  H   H32       1.0  0.05643705089646289  0.5864052524926393  0.8109290531855392  1.0000
  H   H33       1.0  0.13418026141044243  0.22848248848606537  0.1310912267771229  1.0000
  H   H34       1.0  0.8658216674880351  0.7715159852113658  0.8689112742348044  1.0000
  H   H35       1.0  0.012478582748649191  0.48556464676004635  0.3310796806346445  1.0000
  H   H36       1.0  0.9875206144784415  0.5144356675935596  0.6689205920678771  1.0000
  H   H37       1.0  0.8453520155407831  0.5179100121092831  0.5174707212565153  1.0000
  H   H38       1.0  0.15464610758554195  0.48209029769492406  0.4825305918029983  1.0000
  H   H39       1.0  0.640417226969703  0.7096312265135152  0.5315556079455488  1.0000
  H   H40       1.0  0.3595814401863606  0.29037094809672226  0.46844434029748067  1.0000
  H   H41       1.0  0.6096651055822947  0.8695650680545695  0.3570339600382866  1.0000
  H   H42       1.0  0.39033462499477883  0.1304371090047312  0.6429641509349577  1.0000
  C   C1        1.0  0.05433736172576431  0.9341664088577775  0.24854007246119628  1.0000
  C   C2        1.0  0.945662644566582  0.06583484017353669  0.7514589976545806  1.0000
  C   C3        1.0  0.9506124163303938  0.9310356999604746  0.36197313026573846  1.0000
  C   C4        1.0  0.04938922617304801  0.0689636996646001  0.638027614690877  1.0000
  C   C5        1.0  0.9909411367718093  0.8380083393961685  0.4529210431936264  1.0000
  C   C6        1.0  0.009056964994989904  0.1619919662073741  0.5470786760403286  1.0000
  C   C7        1.0  0.9033986137074806  0.836202702727675  0.5626123635328993  1.0000
  C   C8        1.0  0.0966021983711727  0.16379575801902035  0.43738799018489527  1.0000
  C   C9        1.0  0.7717325009198961  0.9275733655425925  0.5824647557971757  1.0000
  C   C10       1.0  0.22826940661905581  0.07242510395416697  0.4175361513891857  1.0000
  C   C11       1.0  0.7272627353974742  0.019518083645834797  0.49314508954734043  1.0000
  C   C12       1.0  0.2727375572899149  0.9804822394578281  0.5068557366237485  1.0000
  C   C13       1.0  0.8163113767622647  0.021649692108901795  0.3833843131536057  1.0000
  C   C14       1.0  0.18368891592512435  0.9783506309947612  0.6166165130174831  1.0000
  C   C15       1.0  0.6732947190515688  0.21909575226064248  0.3031269838078358  1.0000
  C   C16       1.0  0.3267047645705645  0.7809036361653058  0.6968750449499977  1.0000
  C   C17       1.0  0.7035442405618896  0.30240179917318233  0.35377937195592307  1.0000
  C   C18       1.0  0.2964546916296911  0.6975994453087325  0.6462207385168526  1.0000
  C   C19       1.0  0.610772784670104  0.4209203088505261  0.35279594184768825  1.0000
  C   C20       1.0  0.3892312603906162  0.5790781676447024  0.6472020877118962  1.0000
  C   C21       1.0  0.486591814347385  0.4560686685044218  0.3035702569929484  1.0000
  C   C22       1.0  0.5134084463007084  0.5439316482982476  0.6964281784397953  1.0000
  C   C23       1.0  0.45653939689040623  0.3705670827330394  0.2549895351156408  1.0000
  C   C24       1.0  0.5434597896569215  0.6294332295202308  0.7450099406740947  1.0000
  C   C25       1.0  0.5501570346144645  0.2524849409641376  0.25376256306158496  1.0000
  C   C26       1.0  0.4498432473931614  0.7475153800391966  0.7462374661967175  1.0000
  C   C27       1.0  0.3911751908565861  0.5838182910139977  0.30231892434118635  1.0000
  C   C28       1.0  0.60882542354409  0.41618483542534057  0.6976835624347898  1.0000
  C   C29       1.0  0.425579463374511  0.2253536385769905  0.010780028113089231  1.0000
  C   C30       1.0  0.574420829312878  0.7746466845266721  0.9892207980579925  1.0000
  C   C31       1.0  0.3023303241659435  0.3328074562386333  0.03840695162825369  1.0000
  C   C32       1.0  0.6976710533019812  0.6671928735147573  0.9615936310986158  1.0000
  C   C33       1.0  0.33286695715292336  0.4516048847664819  0.0018449343568533835  1.0000
  C   C34       1.0  0.6671303248688574  0.5483944840590096  0.9981551905510668  1.0000
  C   C35       1.0  0.2281684940474378  0.55478842023944  0.035467964162954516  1.0000
  C   C36       1.0  0.7718298407155828  0.44521094893479335  0.9645295265624014  1.0000
  C   C37       1.0  0.09081067775490231  0.5388579243558596  0.10663111562244862  1.0000
  C   C38       1.0  0.9091909433889995  0.4611414710685509  0.8933680355086082  1.0000
  C   C39       1.0  0.05431825649633031  0.42272741423649757  0.13892132500954088  1.0000
  C   C40       1.0  0.9456823012265756  0.5772719787388496  0.8610796633912938  1.0000
  C   C41       1.0  0.1611399817574721  0.3194447220593091  0.1050724304634798  1.0000
  C   C42       1.0  0.8388603109299241  0.6805556010443539  0.894928395707609  1.0000
  C   C43       1.0  0.9017554659099858  0.6570537601871747  0.23863745064608824  1.0000
  C   C44       1.0  0.09824263585681342  0.3429465454163676  0.7613622685878667  1.0000
  C   C45       1.0  0.921446410144327  0.5679975663808962  0.3368360910641712  1.0000
  C   C46       1.0  0.07855036316595229  0.432003666901899  0.6631653032098157  1.0000
  C   C47       1.0  0.8275438793785598  0.5872923969981515  0.44139782077206746  1.0000
  C   C48       1.0  0.17245505281302087  0.41270884748376346  0.5586022897007084  1.0000
  C   C49       1.0  0.7128701641332712  0.6946417370278509  0.44972452529299295  1.0000
  C   C50       1.0  0.2871298421590752  0.30535951200346284  0.550274544822784  1.0000
  C   C51       1.0  0.6952023581406696  0.7834709178258733  0.3526116420961571  1.0000
  C   C52       1.0  0.304797383116167  0.21653126133375622  0.6473872657898737  1.0000
  C   C53       1.0  0.7886485324307843  0.767791135366096  0.24613336767782099  1.0000
  C   C54       1.0  0.21135173889707923  0.23220918353690218  0.7538658646677021  1.0000
  C   C55       1.0  0.7683288474276041  0.8699163758594113  0.14768845896903565  1.0000
  C   C56       1.0  0.2316711481849795  0.13008487107157407  0.8523098142339548  1.0000
  O   O1        1.0  0.13820731066785905  0.8330881880264799  0.2174308194729305  1.0000
  O   O2        1.0  0.8617929713397671  0.16691213297685437  0.7825692097853718  1.0000
  O   O3        1.0  0.06503316220386779  0.03799506335826659  0.18197840188064868  1.0000
  O   O4        1.0  0.9349673848392754  0.9620043275167519  0.8180217896073997  1.0000
  O   O5        1.0  0.7697168099059084  0.10459565900112006  0.2912551571951525  1.0000
  O   O6        1.0  0.2302837584967606  0.8954037360745556  0.7087466281184545  1.0000
  O   O7        1.0  0.4288864039572644  0.6674439135713399  0.3262892500847697  1.0000
  O   O8        1.0  0.5711092812935378  0.332553590099387  0.673714873822199  1.0000
  O   O9        1.0  0.262089133288299  0.5995487848603672  0.27386902573307037  1.0000
  O   O10       1.0  0.7379111380395643  0.4004515340426309  0.7261302066124529  1.0000
  O   O11       1.0  0.40426974094837936  0.1142122562231194  0.036180959513984604  1.0000
  O   O12       1.0  0.5957319015550553  0.8857871434019557  0.9638197854426309  1.0000
  O   O13       1.0  0.5561323217639043  0.2437487994660259  0.9648538375044708  1.0000
  O   O14       1.0  0.4438679495639519  0.7562515194369795  0.03514539484105233  1.0000
  O   O15       1.0  0.9928899481870631  0.6468695488134628  0.1340430407948645  1.0000
  O   O16       1.0  0.007108672971000409  0.3531288944331195  0.8659562059858031  1.0000
  O   O17       1.0  0.8634913797593169  0.8715276755696806  0.05293294978273629  1.0000
  O   O18       1.0  0.1365086372127919  0.12847357556196215  0.9470669172458271  1.0000
  O   O19       1.0  0.651501331548488  0.9608073367693565  0.15612071348161286  1.0000
  O   O20       1.0  0.34849893977936836  0.039192982133649  0.84387851886391  1.0000
  O   O21       1.0  0.38878355006499293  0.9070826256746045  0.21634823341427284  1.0000
  O   O22       1.0  0.6112180710789161  0.09291676974981299  0.7836509177167841  1.0000
  O   O23       1.0  0.15251078221896114  0.8631079787492908  0.9719557022995174  1.0000
  O   O24       1.0  0.8474897648241824  0.1368914121257205  0.028044489188530974  1.0000
