data_image0
_chemical_formula_structural       Zr6H30C64Cl10O36
_chemical_formula_sum              "Zr6 H30 C64 Cl10 O36"
_cell_length_a       14.865374433540197
_cell_length_b       14.903869383215776
_cell_length_c       14.880772412491897
_cell_angle_alpha    59.5193901165303
_cell_angle_beta     60.2507448206804
_cell_angle_gamma    59.60669837571677

_space_group_name_H-M_alt    "P 1"
_space_group_IT_number       1

loop_
  _space_group_symop_operation_xyz
  'x, y, z'

loop_
  _atom_site_type_symbol
  _atom_site_label
  _atom_site_symmetry_multiplicity
  _atom_site_fract_x
  _atom_site_fract_y
  _atom_site_fract_z
  _atom_site_occupancy
  Zr  Zr1       1.0  0.8843198770962102  0.38275528582261126  0.614603463264089  1.0000
  Zr  Zr2       1.0  0.12141611443772855  0.6207983585652387  0.37825963948247926  1.0000
  Zr  Zr3       1.0  0.1261731040934677  0.38097128782521855  0.6137991473901394  1.0000
  Zr  Zr4       1.0  0.8860420278701472  0.621338834152958  0.37537570646418283  1.0000
  Zr  Zr5       1.0  0.8840283543222394  0.6173528316351949  0.6177198420414951  1.0000
  Zr  Zr6       1.0  0.12280251491827687  0.38072948169786275  0.3793798690332578  1.0000
  H   H1        1.0  0.9089783413002692  0.4062231036324776  0.7769410758557526  1.0000
  H   H2        1.0  0.9097034205373119  0.7835122907363473  0.4046777300788022  1.0000
  H   H3        1.0  0.2853490441800089  0.40876613731509803  0.40315900633568447  1.0000
  H   H4        1.0  0.9100285256449895  0.40785910047510743  0.40340780357835354  1.0000
  H   H5        1.0  0.48148227639299546  0.7624000447897218  0.8071661195323471  1.0000
  H   H6        1.0  0.5634038489321185  0.7386921931487649  0.8781590823772092  1.0000
  H   H7        1.0  0.3972571943046999  0.7388365037907081  0.05077596229040171  1.0000
  H   H8        1.0  0.3179093836526402  0.7658688671105056  0.9752820242507241  1.0000
  H   H9        1.0  0.19867338432703716  0.09953213007554501  0.27466995280342127  1.0000
  H   H10       1.0  0.06983609363626896  0.1757965569219309  0.25033829983033223  1.0000
  H   H11       1.0  0.07071036528974162  0.006301464908176509  0.2505272631635975  1.0000
  H   H12       1.0  0.19972697514524604  0.9288772382934456  0.2755241386434829  1.0000
  H   H13       1.0  0.4603046550758591  0.7933074717292073  0.5118389946616375  1.0000
  H   H14       1.0  0.5188820271855406  0.856294714805408  0.36746312463709774  1.0000
  H   H15       1.0  0.3488094911166897  0.026531484473380863  0.3693588342228082  1.0000
  H   H16       1.0  0.2916552856599635  0.9644564868460109  0.5149272943865313  1.0000
  H   H17       1.0  0.8011069690546081  0.717424905279408  0.0672552257214603  1.0000
  H   H18       1.0  0.7499464774643271  0.6052663697514334  0.15337893175586678  1.0000
  H   H19       1.0  0.747254011284568  0.597880393175053  0.9905449712665017  1.0000
  H   H20       1.0  0.7973274238872745  0.7103958870272538  0.9025942857432836  1.0000
  H   H21       1.0  0.8881388866726355  0.2825657787453294  0.9370891712088535  1.0000
  H   H22       1.0  0.7872889662781687  0.30064623708467053  0.12076499367224601  1.0000
  H   H23       1.0  0.8985468801343969  0.9467403411477022  0.2741199743051364  1.0000
  H   H24       1.0  0.7927901127277863  0.13131157338182214  0.2901818919948979  1.0000
  H   H25       1.0  0.5302797904966001  0.3807015612995031  0.7510832702177622  1.0000
  H   H26       1.0  0.6105966203356843  0.2798034113550046  0.6850555627727883  1.0000
  H   H27       1.0  0.4354571530665437  0.27921076454232  0.6955473031072684  1.0000
  H   H28       1.0  0.3569285072730183  0.3847149178707099  0.755506492365754  1.0000
  H   H29       1.0  0.021407409501890032  0.7201321152271872  0.09116707524074727  1.0000
  H   H30       1.0  0.072039149211342  0.006860869434625253  0.7193956554752178  1.0000
  C   C1        1.0  0.6975359792347077  0.5000720655280304  0.7961960823813712  1.0000
  C   C2        1.0  0.008681221071256753  0.7936859396309899  0.5080758680224449  1.0000
  C   C3        1.0  0.3018631603644548  0.5045032446693085  0.1926133629269414  1.0000
  C   C4        1.0  0.0068039250467321  0.19104616314845665  0.5079790733034883  1.0000
  C   C5        1.0  0.016163879292697948  0.19261215288494773  0.7922412841498813  1.0000
  C   C6        1.0  0.6972196316042839  0.5138386664564439  0.49385408893954236  1.0000
  C   C7        1.0  0.010995362238190828  0.80146227637875  0.18623741399337476  1.0000
  C   C8        1.0  0.30200641143750306  0.5068419309218656  0.49880164420952144  1.0000
  C   C9        1.0  0.007175282792324621  0.489722985007397  0.8019562119386947  1.0000
  C   C10       1.0  0.30931567435144547  0.2011524191445417  0.49493525111239467  1.0000
  C   C11       1.0  0.00993571702468902  0.4992760635986216  0.19131401256547056  1.0000
  C   C12       1.0  0.704148414547774  0.8049479844059635  0.4932828238870852  1.0000
  C   C13       1.0  0.5996808293209028  0.49530513581260044  0.8988930919625486  1.0000
  C   C14       1.0  0.4057598218382095  0.4978623353997023  0.09590131294392971  1.0000
  C   C15       1.0  0.5261342582122595  0.5911331600584974  0.924948358478218  1.0000
  C   C16       1.0  0.48195314465150574  0.39794343321943876  0.07387875900305105  1.0000
  C   C17       1.0  0.4330346768385526  0.5924834801987728  0.019000358071750104  1.0000
  C   C18       1.0  0.5748805096879153  0.39691528126370923  0.9770064172685267  1.0000
  C   C19       1.0  0.5011573532252314  0.7148371142888836  0.8844196900120095  1.0000
  C   C20       1.0  0.3967497003182101  0.7161183000641815  0.9914720270230216  1.0000
  C   C21       1.0  0.010598713275925244  0.08482310372617258  0.5157626777604207  1.0000
  C   C22       1.0  0.013661161679770467  0.8873093131454727  0.5159979568477269  1.0000
  C   C23       1.0  0.05893848609995437  0.057297509288027  0.42137399811876003  1.0000
  C   C24       1.0  0.970534914552438  0.9092430154086204  0.6148580128697955  1.0000
  C   C25       1.0  0.05941041536022591  0.9633646765665274  0.42133305887726624  1.0000
  C   C26       1.0  0.9663923283346918  0.006654846496054596  0.6139396378730806  1.0000
  C   C27       1.0  0.11740941522055688  0.09641251008086023  0.2982588787027609  1.0000
  C   C28       1.0  0.117989156680444  0.9900004670900843  0.2983001368089189  1.0000
  C   C29       1.0  0.6089741528548342  0.9108675681334049  0.48747393589168536  1.0000
  C   C30       1.0  0.4154594100446615  0.10727248180417347  0.48694058389015277  1.0000
  C   C31       1.0  0.5196869486158987  0.9251334894566484  0.46780164903472615  1.0000
  C   C32       1.0  0.5080768515666562  0.09794663848788339  0.5003279508709327  1.0000
  C   C33       1.0  0.42631383596091155  0.01989450562381017  0.467740115411388  1.0000
  C   C34       1.0  0.6022794394436701  0.001471436354769564  0.5015722533157146  1.0000
  C   C35       1.0  0.4732745389589895  0.8703076464109927  0.4464401492375955  1.0000
  C   C36       1.0  0.36684861672730285  0.9775617426859924  0.44747569544261956  1.0000
  C   C37       1.0  0.01447885469925569  0.49158568837950883  0.09275335779621934  1.0000
  C   C38       1.0  0.009426171119237384  0.4796335443362167  0.9058006156236615  1.0000
  C   C39       1.0  0.9248241654845726  0.5543762153296967  0.053740924238269046  1.0000
  C   C40       1.0  0.09749658706918746  0.40648688344546  0.9504829857736398  1.0000
  C   C41       1.0  0.9232510453025924  0.5502408122088199  0.963157987127033  1.0000
  C   C42       1.0  0.10356263831397423  0.41741330221744744  0.0366218897448788  1.0000
  C   C43       1.0  0.8089541819043902  0.6367605292685781  0.07486626860808328  1.0000
  C   C44       1.0  0.8070849183289325  0.6324128432609301  0.9721430303068314  1.0000
  C   C45       1.0  0.019647955200781587  0.09013643292692555  0.893227044093372  1.0000
  C   C46       1.0  0.9539063942959418  0.10313781214104967  0.9981310404192029  1.0000
  C   C47       1.0  0.08680282675175013  0.9866170264522938  0.8840110389734332  1.0000
  C   C48       1.0  0.8913292025039966  0.208572458944957  0.010411565906934797  1.0000
  C   C49       1.0  0.834914133476353  0.2187687940041912  0.11317794100037289  1.0000
  C   C50       1.0  0.014915643479213111  0.9004307289453239  0.08218692564069821  1.0000
  C   C51       1.0  0.07653788123312914  0.8896138500046292  0.978843147524799  1.0000
  C   C52       1.0  0.9563114826332112  0.006352486016751861  0.0948722746950563  1.0000
  C   C53       1.0  0.8971921625352054  0.019632882987593827  0.19960402415268408  1.0000
  C   C54       1.0  0.8379165689292946  0.12333566254286404  0.2088462839640072  1.0000
  C   C55       1.0  0.5953990077742829  0.5202515865343217  0.490551939339312  1.0000
  C   C56       1.0  0.40257688315169554  0.5127817466851783  0.49193895250168396  1.0000
  C   C57       1.0  0.5402656649966388  0.4472476639916324  0.5762947501591852  1.0000
  C   C58       1.0  0.45880873991308835  0.5865265477965734  0.4015373356748596  1.0000
  C   C59       1.0  0.44658793804112656  0.4452193881066721  0.5782242159811304  1.0000
  C   C60       1.0  0.5496728594541905  0.5933413240457456  0.40325928005593403  1.0000
  C   C61       1.0  0.5397206602145843  0.3566254664225499  0.6874699597000244  1.0000
  C   C62       1.0  0.43158252838950517  0.3566969152568474  0.6913534956016677  1.0000
  C   C63       1.0  0.13126781790305847  0.7817790741309096  0.958532038736308  1.0000
  C   C64       1.0  0.1785527177597428  0.980078312571095  0.776005747449318  1.0000
  Cl  Cl1       1.0  0.46760803206691287  0.2722595807442616  0.16933927355733389  1.0000
  Cl  Cl2       1.0  0.660263003187019  0.270943432107508  0.95893259042014  1.0000
  Cl  Cl3       1.0  0.9286157087005122  0.8132133244220512  0.7399191169105773  1.0000
  Cl  Cl4       1.0  0.9092950427337242  0.02547385382145952  0.7395596174210722  1.0000
  Cl  Cl5       1.0  0.5090328809486236  0.20939634855005096  0.5076694887707233  1.0000
  Cl  Cl6       1.0  0.7143213012135519  0.9964352482864455  0.5145274641298837  1.0000
  Cl  Cl7       1.0  0.19796911918945173  0.29741739113963933  0.9064185117912515  1.0000
  Cl  Cl8       1.0  0.22478025988122136  0.33998687599219585  0.06710292775555617  1.0000
  Cl  Cl9       1.0  0.42272454064465137  0.6685614154105793  0.2831912947107184  1.0000
  Cl  Cl10      1.0  0.6020722727385388  0.6942596861751724  0.29441655987846355  1.0000
  O   O1        1.0  0.7377455138329622  0.42784312160046056  0.7518611447168267  1.0000
  O   O2        1.0  0.07957818531829723  0.7643257978364489  0.4246785068414311  1.0000
  O   O3        1.0  0.26438790505161314  0.5828748543619754  0.2285267478367387  1.0000
  O   O4        1.0  0.9265916679764317  0.23721708308796266  0.5774554508352593  1.0000
  O   O5        1.0  0.09170084732306076  0.23198953445120912  0.7526038079890965  1.0000
  O   O6        1.0  0.7414218404287919  0.5869382410844326  0.4187910946862414  1.0000
  O   O7        1.0  0.9358411554850788  0.7619776525918099  0.2214092076734599  1.0000
  O   O8        1.0  0.2690548287004829  0.4268732585956982  0.5760570159009931  1.0000
  O   O9        1.0  0.9266435993882208  0.5676360995013855  0.7678712729323106  1.0000
  O   O10       1.0  0.26457307071022734  0.23552799061395294  0.4235887778266162  1.0000
  O   O11       1.0  0.07960954999273168  0.42132407541460276  0.23994386351971994  1.0000
  O   O12       1.0  0.7394170964543535  0.7598806610483492  0.5741760592677564  1.0000
  O   O13       1.0  0.2700495273338745  0.2381840820512622  0.5720955649142212  1.0000
  O   O14       1.0  0.9339014408799499  0.5807738751821107  0.22326703067641038  1.0000
  O   O15       1.0  0.7412863228451769  0.7673244939345525  0.4166281174347618  1.0000
  O   O16       1.0  0.08590310157225636  0.42215560570850397  0.7529507073430182  1.0000
  O   O17       1.0  0.936213157098294  0.23142481848409338  0.7576852501594614  1.0000
  O   O18       1.0  0.2551656456287786  0.5828407776562942  0.42687358107765044  1.0000
  O   O19       1.0  0.08170163795384859  0.7671510374626537  0.2304370902641537  1.0000
  O   O20       1.0  0.734603692374307  0.4333398629956733  0.57100161405409  1.0000
  O   O21       1.0  0.0824016450265289  0.22914279876094676  0.4294230287728454  1.0000
  O   O22       1.0  0.7346601306687502  0.5773151695123033  0.7596078679606248  1.0000
  O   O23       1.0  0.9319841104397357  0.7541016996567648  0.5807857369887869  1.0000
  O   O24       1.0  0.2575314159482147  0.4326672395009298  0.23172659568052711  1.0000
  O   O25       1.0  0.936132347516576  0.4349900164071415  0.4298164798248435  1.0000
  O   O26       1.0  0.20542819589676492  0.4350074833461336  0.4291416019472364  1.0000
  O   O27       1.0  0.9368225288653775  0.703405566752487  0.42789501786467066  1.0000
  O   O28       1.0  0.9367847590966815  0.431574850288456  0.6971615010345997  1.0000
  O   O29       1.0  0.0519569273452659  0.5497615857355171  0.5465247611003433  1.0000
  O   O30       1.0  0.8563756320199901  0.5514809438597156  0.5439108088580652  1.0000
  O   O31       1.0  0.052797236318461595  0.5513300169897803  0.34821517971179367  1.0000
  O   O32       1.0  0.05338308515266016  0.3526103885632424  0.5464516435534534  1.0000
  O   O33       1.0  0.09058238299741105  0.698531633479341  0.033107739686705766  1.0000
  O   O34       1.0  0.20842762663816933  0.7684983477233516  0.8756131005665252  1.0000
  O   O35       1.0  0.14996015801041548  0.0003283740393130519  0.6923051746077179  1.0000
  O   O36       1.0  0.27103987162796955  0.968419624105387  0.7618959945205218  1.0000
