data_image0
_chemical_formula_structural       Dy2H50C34N12O16
_chemical_formula_sum              "Dy2 H50 C34 N12 O16"
_cell_length_a       8.591000934103937
_cell_length_b       11.008259074388784
_cell_length_c       13.3944
_cell_angle_alpha    101.346749070635
_cell_angle_beta     107.63283184586193
_cell_angle_gamma    106.58101828986177

_space_group_name_H-M_alt    "P 1"
_space_group_IT_number       1

loop_
  _space_group_symop_operation_xyz
  'x, y, z'

loop_
  _atom_site_type_symbol
  _atom_site_label
  _atom_site_symmetry_multiplicity
  _atom_site_fract_x
  _atom_site_fract_y
  _atom_site_fract_z
  _atom_site_occupancy
  Dy  Dy1       1.0  0.257710016529451  0.11015789138386371  0.061620212424969616  1.0000
  Dy  Dy2       1.0  0.7422902143803681  0.8898418781215085  0.9383801684577691  1.0000
  H   H1        1.0  0.2048671152299306  0.5330477506423961  0.044072056678153636  1.0000
  H   H2        1.0  0.795127995884009  0.46694902801565524  0.9559253527249397  1.0000
  H   H3        1.0  0.053348409573303  0.4389556940895289  0.2080388870085201  1.0000
  H   H4        1.0  0.9466520723186562  0.5610420815176269  0.7919597270681891  1.0000
  H   H5        1.0  0.13061990441008212  0.7055947170323833  0.15060766381889576  1.0000
  H   H6        1.0  0.8693764280969841  0.294402061625668  0.8493922226264702  1.0000
  H   H7        1.0  0.15509223172467293  0.6917151915891822  0.28445276891524424  1.0000
  H   H8        1.0  0.8449053221755276  0.3082815870688691  0.7155466082497384  1.0000
  H   H9        1.0  0.9437712434234341  0.6306640222822963  0.18026846549582126  1.0000
  H   H10       1.0  0.05622826805753787  0.3693317594266503  0.8197326239585507  1.0000
  H   H11       1.0  0.8372756643161878  0.39964399697157665  0.33071867022617607  1.0000
  H   H12       1.0  0.162720902414236  0.6003557725337956  0.6692795055944032  1.0000
  H   H13       1.0  0.8725435446590308  0.1279285091848266  0.2630000018936158  1.0000
  H   H14       1.0  0.12745887805491649  0.8720732542187549  0.7370018738150534  1.0000
  H   H15       1.0  0.13969871175606838  0.4055309814380337  0.42628319327903347  1.0000
  H   H16       1.0  0.8603005319839735  0.5944717789146452  0.5737174794206226  1.0000
  H   H17       1.0  0.1863603347112885  0.3010457304630094  0.3283521447248461  1.0000
  H   H18       1.0  0.8136401304218878  0.6989570298896695  0.6716495118557547  1.0000
  H   H19       1.0  0.1462762974358682  0.24731216758860342  0.4360359007532821  1.0000
  H   H20       1.0  0.8537249038849453  0.7526895958149709  0.5639649910744424  1.0000
  H   H21       1.0  0.8803711770239531  0.8606980649279308  0.21940392741203144  1.0000
  H   H22       1.0  0.1196290538858662  0.1393017045774414  0.7805957068900469  1.0000
  H   H23       1.0  0.2473639517785529  0.0025900737754228  0.4051512379721416  1.0000
  H   H24       1.0  0.7526367643367633  0.9974106926790469  0.5948486518024296  1.0000
  H   H25       1.0  0.8996908222584353  0.7936661979386841  0.3881846632298576  1.0000
  H   H26       1.0  0.10031307283077948  0.206333571566681  0.6118186692957011  1.0000
  H   H27       1.0  0.06182479704632024  0.9198330980545394  0.51206360587274  1.0000
  H   H28       1.0  0.9381790980429014  0.0801666714508258  0.48793674033017714  1.0000
  H   H29       1.0  0.11394764240367287  0.7899515655725438  0.45054836679680926  1.0000
  H   H30       1.0  0.8860557507212619  0.21005219172923972  0.549452526695525  1.0000
  H   H31       1.0  0.11332842456382504  0.8182798743980371  0.9473084279644935  1.0000
  H   H32       1.0  0.8866705849528598  0.1817198951073351  0.05269171561796069  1.0000
  H   H33       1.0  0.32744887961175806  0.8549785679111466  0.9992383416524931  1.0000
  H   H34       1.0  0.6725518365035583  0.1450221985433231  0.0007622947027386447  1.0000
  H   H35       1.0  0.407701814349501  0.0273762224299787  0.9002796659746082  1.0000
  H   H36       1.0  0.5922976803726812  0.972624544024491  0.09971923991902541  1.0000
  H   H37       1.0  0.4191632984034611  0.1709697929054954  0.8894106841220762  1.0000
  H   H38       1.0  0.5808344897200968  0.8290299765998768  0.1105892221601081  1.0000
  H   H39       1.0  0.4823389351880393  0.585833214917713  0.5763813684845404  1.0000
  H   H40       1.0  0.5176630023204041  0.4141675515367567  0.42361950517096864  1.0000
  H   H41       1.0  0.5172325190961615  0.7524842242992946  0.6289827275205867  1.0000
  H   H42       1.0  0.482769418412289  0.2475165421551822  0.3710188927155826  1.0000
  H   H43       1.0  0.5224439310382466  0.034336921082790205  0.41940072311001586  1.0000
  H   H44       1.0  0.47755385708530435  0.9656628484225749  0.5805984365915081  1.0000
  H   H45       1.0  0.538496438347053  0.9900910923483508  0.29150534881289764  1.0000
  H   H46       1.0  0.4615025711696318  0.0099086771570143  0.7084933016082433  1.0000
  H   H47       1.0  0.61141535043199  0.5906056102845127  0.09015417493629493  1.0000
  H   H48       1.0  0.38858585088882336  0.4093961531190686  0.9098467168914298  1.0000
  H   H49       1.0  0.5583948026292163  0.45455096894285424  0.2218719255905555  1.0000
  H   H50       1.0  0.4416046920929658  0.5454497975116226  0.7781277268837316  1.0000
  C   C1        1.0  0.1775073705064401  0.3386287178324707  0.0688003876606231  1.0000
  C   C2        1.0  0.8224901833937607  0.6613680608255805  0.9311974963430389  1.0000
  C   C3        1.0  0.15790495524925763  0.468261013038159  0.08916109947099221  1.0000
  C   C4        1.0  0.8420964970536956  0.5317387564672131  0.9108380255507029  1.0000
  C   C5        1.0  0.09507536770938428  0.5085576958720921  0.1646964861011284  1.0000
  C   C6        1.0  0.9049219352086764  0.4914410766841684  0.8353031647085558  1.0000
  C   C7        1.0  0.0809630666787342  0.6408199428174086  0.195554364339543  1.0000
  C   C8        1.0  0.9190342362393266  0.35917882973885185  0.8044452864701412  1.0000
  C   C9        1.0  0.6160431025362243  0.22305838975624684  0.21407141950608383  1.0000
  C   C10       1.0  0.3839593201777234  0.7769433736473346  0.785929709621918  1.0000
  C   C11       1.0  0.8000530515506836  0.2938308097883677  0.2892797081665037  1.0000
  C   C12       1.0  0.1999481497701296  0.7061709536152136  0.7107211836612207  1.0000
  C   C13       1.0  0.9180047018901192  0.2343219207472842  0.3067030640081683  1.0000
  C   C14       1.0  0.08199479283206298  0.7656788457071855  0.693298828208107  1.0000
  C   C15       1.0  0.10636368039003229  0.3020037985531516  0.3788243989594235  1.0000
  C   C16       1.0  0.8936350781445198  0.6979979648504298  0.6211767648483999  1.0000
  C   C17       1.0  0.09749525920180699  0.9971654431991582  0.19732730141810606  1.0000
  C   C18       1.0  0.9025042355203822  0.0028353232553116  0.8026716044755204  1.0000
  C   C19       1.0  0.01788115932888702  0.9266960956950356  0.26245013257550204  1.0000
  C   C20       1.0  0.9821205271974234  0.0733066646576432  0.7375525078860363  1.0000
  C   C21       1.0  0.1098604674651966  0.934731505483299  0.3661132971946799  1.0000
  C   C22       1.0  0.8901424404542482  0.065271254869387  0.6338888339864822  1.0000
  C   C23       1.0  0.040022984066482095  0.8550782628216709  0.43134299497052814  1.0000
  C   C24       1.0  0.9599782172543243  0.1449235005819034  0.5686564036958757  1.0000
  C   C25       1.0  0.4944446351969559  0.6947528955128632  0.4708398833274643  1.0000
  C   C26       1.0  0.5055560809183604  0.3052478709416135  0.5291614996084277  1.0000
  C   C27       1.0  0.5356180983575598  0.627817732586827  0.31555240941876417  1.0000
  C   C28       1.0  0.46438335394539365  0.3721820369185451  0.6844482087642518  1.0000
  C   C29       1.0  0.5443135062393623  0.7480478007809594  0.2922043506314438  1.0000
  C   C30       1.0  0.45568794606359125  0.2519519687244056  0.7077962675515722  1.0000
  C   C31       1.0  0.5282375078058337  0.8465064944147898  0.3703795343749193  1.0000
  C   C32       1.0  0.47176394449711967  0.1534932750905753  0.6296195906467759  1.0000
  C   C33       1.0  0.5853200476325426  0.624898665606672  0.16298714001549544  1.0000
  C   C34       1.0  0.4146789618841495  0.37510110389869317  0.8370122569863058  1.0000
  N   N1        1.0  0.503351067956899  0.8165182653290729  0.4590858017195387  1.0000
  N   N2        1.0  0.4966491629529202  0.18348150417629944  0.5409145791632  1.0000
  N   N3        1.0  0.46750653893093386  0.6709288027448608  0.5615470882036746  1.0000
  N   N4        1.0  0.5324953985775165  0.3290719637096089  0.4384530388711738  1.0000
  N   N5        1.0  0.508233609519543  0.5945764585706996  0.4013801338765433  1.0000
  N   N6        1.0  0.4917671065957734  0.40542430788377715  0.5986205024786884  1.0000
  N   N7        1.0  0.5406780314176699  0.9686018543848363  0.36223006752850034  1.0000
  N   N8        1.0  0.459320492893525  0.0313969181714313  0.6377690740008077  1.0000
  N   N9        1.0  0.5745834024211901  0.7432195762642664  0.1953351961250078  1.0000
  N   N10       1.0  0.42541609230099187  0.25678119019021045  0.8046644563492862  1.0000
  N   N11       1.0  0.5647265017668203  0.5525680141230609  0.23323457422938534  1.0000
  N   N12       1.0  0.4352737291429988  0.4474317553823113  0.7667650600726931  1.0000
  O   O1        1.0  0.1125342283623212  0.2527206164845524  0.1132887120893642  1.0000
  O   O2        1.0  0.8874655173420009  0.7472781560717082  0.8867099201595607  1.0000
  O   O3        1.0  0.26302046929586  0.31074405135881733  0.010338019269220006  1.0000
  O   O4        1.0  0.7369778207919779  0.6892517303501293  0.989661339723547  1.0000
  O   O5        1.0  0.5483487535143964  0.0962993018718734  0.1676808726987957  1.0000
  O   O6        1.0  0.4516517116187799  0.9037034584808127  0.8323192907204843  1.0000
  O   O7        1.0  0.5161604991334909  0.2902687106353312  0.19348346022236737  1.0000
  O   O8        1.0  0.4838409531694622  0.7097310588700338  0.8065171579606485  1.0000
  O   O9        1.0  0.2573484573363416  0.0754351509973432  0.23471609120499445  1.0000
  O   O10       1.0  0.7426512883679803  0.9245636215589174  0.7652825410439306  1.0000
  O   O11       1.0  0.0009425952305476294  0.975389083893333  0.09515042333507744  1.0000
  O   O12       1.0  0.9990588570724057  0.024610685612039204  0.9048464619446364  1.0000
  O   O13       1.0  0.2303412338525632  0.8851472447849176  0.9999134028558886  1.0000
  O   O14       1.0  0.769657775664129  0.11485252472045461  8.674072656588439e-05  1.0000
  O   O15       1.0  0.4207845528263974  0.11662809107689041  0.9441988062920503  1.0000
  O   O16       1.0  0.5792149418957846  0.8833726753775792  0.05580084618224387  1.0000
