data_image0
_chemical_formula_structural       Al4H15C36O20F
_chemical_formula_sum              "Al4 H15 C36 O20 F1"
_cell_length_a       6.665118876423016
_cell_length_b       16.43299307189273
_cell_length_c       18.784905345211826
_cell_angle_alpha    74.06283546271467
_cell_angle_beta     89.72810461510983
_cell_angle_gamma    90.27633090913427

_space_group_name_H-M_alt    "P 1"
_space_group_IT_number       1

loop_
  _space_group_symop_operation_xyz
  'x, y, z'

loop_
  _atom_site_type_symbol
  _atom_site_label
  _atom_site_symmetry_multiplicity
  _atom_site_fract_x
  _atom_site_fract_y
  _atom_site_fract_z
  _atom_site_occupancy
  Al  Al1       1.0  0.11032900835477483  0.5047542484847725  0.5035775092541286  1.0000
  Al  Al2       1.0  0.6111202114339565  0.5073649438181319  0.5032366177936964  1.0000
  Al  Al3       1.0  0.6170536839610822  0.004931559746673001  0.0034196220216458004  1.0000
  Al  Al4       1.0  0.11672942636201361  0.0069902371753727  0.0032050833825820997  1.0000
  H   H1        1.0  0.5888956470119525  0.7394269131526839  0.34373108161494775  1.0000
  H   H2        1.0  0.5848756174775573  0.8553648494234521  0.22653737965387685  1.0000
  H   H3        1.0  0.21518085083302202  0.7188031652236334  0.12582207065403134  1.0000
  H   H4        1.0  0.3484378751601298  0.6647850246948507  0.28904738835591093  1.0000
  H   H5        1.0  0.2125970154864945  0.6003036581007494  0.2434719559027626  1.0000
  H   H6        1.0  0.08214086192818831  0.35608734430199007  0.7300924479981888  1.0000
  H   H7        1.0  0.0925741569868919  0.23869195305363886  0.8464198722742822  1.0000
  H   H8        1.0  0.7091480973027586  0.10950378154839771  0.7321494124401013  1.0000
  H   H9        1.0  0.8499639098326812  0.1603956225959635  0.7889104840595992  1.0000
  H   H10       1.0  0.8462280523947499  0.2955406814165826  0.6835827797470486  1.0000
  H   H11       1.0  0.346938499609685  0.7844628032158597  0.17185819322129697  1.0000
  H   H12       1.0  0.35690114576133425  0.6075898303202507  0.5156590747959413  1.0000
  H   H13       1.0  0.8535233919587386  0.3932602160086632  0.5307768624915568  1.0000
  H   H14       1.0  0.3606937251429443  0.8962972983301327  0.04184343647259683  1.0000
  H   H15       1.0  0.8636761729541149  0.1044054603039939  0.021167730735250193  1.0000
  C   C1        1.0  0.3688761636383547  0.4212023078152711  0.41813718447627934  1.0000
  C   C2        1.0  0.3538998729308248  0.3928375932986441  0.6165883184533953  1.0000
  C   C3        1.0  0.8555588554532748  0.5941113306087188  0.5883095824684403  1.0000
  C   C4        1.0  0.8719240471527456  0.6191275400442465  0.3916761533230968  1.0000
  C   C5        1.0  0.027629202494722404  0.699828571015125  0.2698524554444078  1.0000
  C   C6        1.0  0.8719627671435293  0.6881655274520143  0.32157630261679054  1.0000
  C   C7        1.0  0.7120787667664674  0.7462531231543538  0.3040681287366169  1.0000
  C   C8        1.0  0.7096528341519955  0.8110990703934818  0.23825613955701638  1.0000
  C   C9        1.0  0.8671464556941404  0.8220690377461678  0.18575699353074523  1.0000
  C   C10       1.0  0.0257924758272168  0.7652040225214665  0.2040079766041315  1.0000
  C   C11       1.0  0.22351131205248015  0.7386284540581657  0.17707362331815807  1.0000
  C   C12       1.0  0.22414311397262313  0.6640944224309919  0.2511598385399126  1.0000
  C   C13       1.0  0.8727903013864307  0.8739366123961714  0.8635375237678033  1.0000
  C   C14       1.0  0.8712817508752198  0.8301501348653346  0.820138648131092  1.0000
  C   C15       1.0  0.8697201025816667  0.7818929480008165  0.7730279872225054  1.0000
  C   C16       1.0  0.868583229244912  0.737113179363888  0.7300066568942469  1.0000
  C   C17       1.0  0.8658560277344591  0.6886801246113806  0.6830563628447806  1.0000
  C   C18       1.0  0.8620809656702518  0.6444790921436124  0.6400150723599438  1.0000
  C   C19       1.0  0.36658857729791816  0.37157276789956467  0.3657264078541829  1.0000
  C   C20       1.0  0.36702130901711894  0.3279603169335275  0.3221944838482287  1.0000
  C   C21       1.0  0.36805964455084716  0.27985313807879203  0.2749588079522454  1.0000
  C   C22       1.0  0.3689149214724168  0.23533379401639112  0.23170027139795477  1.0000
  C   C23       1.0  0.36833162345916304  0.18701344761671382  0.1846409200196462  1.0000
  C   C24       1.0  0.36620076353749914  0.14296236542305246  0.1414390342767078  1.0000
  C   C25       1.0  0.5234851451913799  0.26904891915188506  0.7049978533828991  1.0000
  C   C26       1.0  0.3633343471399897  0.3250382004518215  0.6875956295342363  1.0000
  C   C27       1.0  0.2081921090944334  0.312492015176744  0.7407542766318046  1.0000
  C   C28       1.0  0.21471740878854462  0.24698913564067476  0.8062065566465649  1.0000
  C   C29       1.0  0.3761048302056126  0.1897196555846534  0.8225870251907565  1.0000
  C   C30       1.0  0.5291061280905396  0.20227228993593369  0.7696184418371956  1.0000
  C   C31       1.0  0.7262209795151549  0.16787998920983682  0.7493634767996298  1.0000
  C   C32       1.0  0.7301674638688879  0.2487627461082056  0.6810462559027857  1.0000
  C   C33       1.0  0.37783387284933667  0.12006527911629658  0.8923993904508264  1.0000
  C   C34       1.0  0.3612029717703322  0.09265736052488188  0.0896800880141413  1.0000
  C   C35       1.0  0.8599417525120003  0.8898800935889424  0.11500214002318641  1.0000
  C   C36       1.0  0.8749954157462412  0.9235172170052693  0.9159627803981963  1.0000
  O   O1        1.0  0.5193528478677365  0.4125757046777637  0.5817121780333777  1.0000
  O   O2        1.0  0.20207713317524426  0.429304268560621  0.44863471643627406  1.0000
  O   O3        1.0  0.03929737028153821  0.5835453329965218  0.412232610240892  1.0000
  O   O4        1.0  0.1825119162202924  0.4243305179151804  0.5958046447113362  1.0000
  O   O5        1.0  0.022386329451016703  0.5822999715171803  0.5593755966919858  1.0000
  O   O6        1.0  0.5377841604820901  0.4514447568903607  0.42946314558159315  1.0000
  O   O7        1.0  0.3602758849211725  0.5576371956700326  0.4977007905362711  1.0000
  O   O8        1.0  0.6835073273885259  0.5669827493164803  0.5760596135614549  1.0000
  O   O9        1.0  0.7058648550660179  0.601431193884437  0.4266845084572992  1.0000
  O   O10       1.0  0.8588215057528501  0.45447636489596727  0.5124773293510358  1.0000
  O   O11       1.0  0.1894123851033811  0.06537708549665672  0.0770847236015229  1.0000
  O   O12       1.0  0.5456129959813651  0.0848312421112567  0.912643079128273  1.0000
  O   O13       1.0  0.7079336392512801  0.9316390340051582  0.946240739724928  1.0000
  O   O14       1.0  0.5286556621881432  0.0811504535510537  0.060876675520702916  1.0000
  O   O15       1.0  0.6890974877585379  0.9221870054942727  0.09381217458372498  1.0000
  O   O16       1.0  0.21211577718373317  0.101728456465537  0.9273901593147472  1.0000
  O   O17       1.0  0.3652474820370841  0.9545917109436671  0.011824951498546522  1.0000
  O   O18       1.0  0.025835800262171905  0.9098992533982725  0.07996410598921237  1.0000
  O   O19       1.0  0.0437990882641657  0.9536153385922219  0.9276837625922597  1.0000
  O   O20       1.0  0.8666680466345653  0.05771467490640699  0.9988517616234702  1.0000
  F   F1        1.0  0.747983405606469  0.2338443168568176  0.6110493021870056  1.0000
