data_image0
_chemical_formula_structural       Zn6H32C66N4O32F2
_chemical_formula_sum              "Zn6 H32 C66 N4 O32 F2"
_cell_length_a       18.503265396242025
_cell_length_b       18.762471477301528
_cell_length_c       18.899018086720947
_cell_angle_alpha    110.00503146882706
_cell_angle_beta     109.23089189505164
_cell_angle_gamma    108.77324905161998

_space_group_name_H-M_alt    "P 1"
_space_group_IT_number       1

loop_
  _space_group_symop_operation_xyz
  'x, y, z'

loop_
  _atom_site_type_symbol
  _atom_site_label
  _atom_site_symmetry_multiplicity
  _atom_site_fract_x
  _atom_site_fract_y
  _atom_site_fract_z
  _atom_site_occupancy
  Zn  Zn1       1.0  0.4306530510201442  0.42362248450569956  0.5024582875590865  1.0000
  Zn  Zn2       1.0  0.5455307782579695  0.5473599191744328  0.49239573836407396  1.0000
  Zn  Zn3       1.0  0.454885697170788  0.009253487354811886  0.9381085528478721  1.0000
  Zn  Zn4       1.0  0.5803423267156163  0.01250648909490343  0.065060377484663  1.0000
  Zn  Zn5       1.0  0.008230038729813307  0.5793597801454242  0.0714995996302008  1.0000
  Zn  Zn6       1.0  0.008204511003768481  0.4586580973932116  0.9421838200791512  1.0000
  H   H1        1.0  0.16961401893093614  0.5191440501209996  0.5700928305886633  1.0000
  H   H2        1.0  0.6303798303781746  0.6648337134040362  0.7204631691315057  1.0000
  H   H3        1.0  0.7754666250584705  0.7954660354216119  0.8312807767489757  1.0000
  H   H4        1.0  0.6510547080842457  0.9377554886810417  0.9133520761951955  1.0000
  H   H5        1.0  0.32118821333758524  0.785589689878883  0.776987458601539  1.0000
  H   H6        1.0  0.17825794874998735  0.6532476345747541  0.6714437332729374  1.0000
  H   H7        1.0  0.3042707752385781  0.517125773289287  0.5780717423267347  1.0000
  H   H8        1.0  0.36559650179714964  0.5100778033992414  0.24238127177375896  1.0000
  H   H9        1.0  0.2457104026984709  0.511264483366084  0.13646008732455073  1.0000
  H   H10       1.0  0.11442859339713614  0.562259665321129  0.3533344628240727  1.0000
  H   H11       1.0  0.05233182654848891  0.4466163355599308  0.2856046636147056  1.0000
  H   H12       1.0  0.2294534680941425  0.5477680846684407  0.454012693069103  1.0000
  H   H13       1.0  0.16771002757774064  0.4320929842475324  0.38605167920091077  1.0000
  H   H14       1.0  0.46737239941446523  0.3634789820653098  0.24381507760047327  1.0000
  H   H15       1.0  0.4667264330582626  0.26398303002231677  0.11734491275487359  1.0000
  H   H16       1.0  0.5175001222495083  0.07999656813193212  0.27352814233323386  1.0000
  H   H17       1.0  0.38385875879885845  0.11014363077403294  0.32407348785517337  1.0000
  H   H18       1.0  0.5003842168854646  0.17101675943123956  0.3934020238762129  1.0000
  H   H19       1.0  0.7968913661717777  0.6782959269050509  0.7491274452714406  1.0000
  H   H20       1.0  0.7436548827486504  0.3558099968989553  0.7560484073561254  1.0000
  H   H21       1.0  0.6228663318518886  0.33539518835530674  0.6231543689640162  1.0000
  H   H22       1.0  0.4399576662825382  0.8020063500324072  0.11088706616733648  1.0000
  H   H23       1.0  0.08359151925449038  0.6650399368654976  0.8272270053463514  1.0000
  H   H24       1.0  0.08743146493410588  0.7463781645899489  0.915333765115136  1.0000
  H   H25       1.0  0.20661561435026243  0.7839236303967426  0.8360288112859635  1.0000
  H   H26       1.0  0.20794493221001895  0.8631914876946003  0.9231024097728165  1.0000
  H   H27       1.0  0.8013582532936782  0.1283694196210093  0.0017877055866933  1.0000
  H   H28       1.0  0.8908372738070015  0.2291448870379613  0.9699922133964876  1.0000
  H   H29       1.0  0.7577899738461865  0.43676586754557445  0.0640722559445379  1.0000
  H   H30       1.0  0.6855803514248963  0.37648154565386716  0.9497652839201577  1.0000
  H   H31       1.0  0.6545678987536476  0.3259509943873909  0.0800822120244433  1.0000
  H   H32       1.0  0.5849336627082522  0.2630001694473594  0.9651209376184794  1.0000
  C   C1        1.0  0.3800097391253772  0.5013275590289227  0.3859855724843512  1.0000
  C   C2        1.0  0.46699399485768117  0.5771686506964927  0.6190020486679655  1.0000
  C   C3        1.0  0.637691179889714  0.5282386542640937  0.6178343513193169  1.0000
  C   C4        1.0  0.4643900237349499  0.34771269502955  0.3784919190267289  1.0000
  C   C5        1.0  0.6338431281208726  0.724130071302355  0.7617104409300521  1.0000
  C   C6        1.0  0.7143683122002499  0.7957396815620259  0.822273686283978  1.0000
  C   C7        1.0  0.7175207543842036  0.8724790541815824  0.8753566730817538  1.0000
  C   C8        1.0  0.6435786674275691  0.8772195377126909  0.8694580048605828  1.0000
  C   C9        1.0  0.558920932015873  0.8031138459972453  0.8077667472006026  1.0000
  C   C10       1.0  0.5538074150092316  0.7248620073927657  0.7507845986606227  1.0000
  C   C11       1.0  0.4806170297737894  0.8047092313928419  0.7999509192767177  1.0000
  C   C12       1.0  0.3977254931154733  0.7295794251344179  0.7394708516831939  1.0000
  C   C13       1.0  0.39272868684075496  0.6509704935950966  0.6823198994126897  1.0000
  C   C14       1.0  0.470665047520761  0.6510706866313287  0.6873958083653448  1.0000
  C   C15       1.0  0.3178863975409173  0.7272662079897503  0.7337282416011561  1.0000
  C   C16       1.0  0.23825061272193446  0.65342259034599  0.674602817897231  1.0000
  C   C17       1.0  0.2333234268843044  0.577290268531357  0.6172973645073442  1.0000
  C   C18       1.0  0.30824778705629546  0.5760913667260327  0.6210630535711914  1.0000
  C   C19       1.0  0.2343831366719584  0.4993092523301713  0.33153727386268617  1.0000
  C   C20       1.0  0.30730878260490607  0.5022811978633115  0.32335033096461524  1.0000
  C   C21       1.0  0.30983465677941524  0.5074574212086702  0.25153696696474975  1.0000
  C   C22       1.0  0.24260159915818494  0.5088743689516166  0.19202414857606698  1.0000
  C   C23       1.0  0.17241807674854212  0.5126907080306894  0.2043063947898034  1.0000
  C   C24       1.0  0.1702948581554651  0.5075403377631247  0.27544182542796847  1.0000
  C   C25       1.0  0.11854408985583123  0.5032989861562598  0.32316316516790516  1.0000
  C   C26       1.0  0.1911883690794909  0.4941746888065951  0.3866227233325504  1.0000
  C   C27       1.0  0.45129556586548597  0.20220090009868133  0.28871394062650774  1.0000
  C   C28       1.0  0.45758168131875715  0.28200718089432547  0.30122039051730803  1.0000
  C   C29       1.0  0.46287955560812577  0.3018867106303773  0.2369008973289155  1.0000
  C   C30       1.0  0.46343597854492197  0.24611419968839246  0.16582145308065316  1.0000
  C   C31       1.0  0.46422170189822504  0.16907663316352742  0.15763300823432047  1.0000
  C   C32       1.0  0.45760233143909085  0.14956466028955628  0.2207775730607224  1.0000
  C   C33       1.0  0.45822660790978637  0.08624202362703677  0.25266530284266503  1.0000
  C   C34       1.0  0.44700289072425653  0.14339823643274494  0.32780802816797205  1.0000
  C   C35       1.0  0.6953216380201682  0.4777191835356122  0.7199431449294948  1.0000
  C   C36       1.0  0.7067094468414153  0.5433187419612225  0.6984348369107349  1.0000
  C   C37       1.0  0.7835557442457529  0.622865672692008  0.7594480962972197  1.0000
  C   C38       1.0  0.845415821602444  0.6335745203444109  0.8351870472863112  1.0000
  C   C39       1.0  0.8380083280561692  0.5659917567525172  0.8540454268984731  1.0000
  C   C40       1.0  0.7590770025927398  0.4885348272692412  0.7933110154137564  1.0000
  C   C41       1.0  0.7109081452462649  0.3943167650928461  0.7692112005549205  1.0000
  C   C42       1.0  0.6366270153962575  0.38245581155505465  0.6865394622226971  1.0000
  C   C43       1.0  0.42455919777503237  0.891679769895234  0.021715029106253798  1.0000
  C   C44       1.0  0.4877201178058215  0.8851264408226672  0.8628541719345006  1.0000
  C   C45       1.0  0.6558904739964717  0.12323089144433655  0.0202827802084258  1.0000
  C   C46       1.0  0.4784059310554127  0.11494461177090193  0.0903959264994469  1.0000
  C   C47       1.0  0.139096817117057  0.6147981924905963  0.0009346330644959005  1.0000
  C   C48       1.0  0.10802809129864241  0.5221043234765972  0.14139745456878927  1.0000
  C   C49       1.0  0.8865051536977832  0.3752881995387727  0.9704044567030508  1.0000
  C   C50       1.0  0.9056193535184462  0.5640331169504267  0.923818984401265  1.0000
  C   C51       1.0  0.266149453455924  0.7876748969305398  0.9607015827050345  1.0000
  C   C52       1.0  0.35466769065480713  0.819702911173117  0.0159534900610652  1.0000
  C   C53       1.0  0.372633951140287  0.7810242480227888  0.06623268699103589  1.0000
  C   C54       1.0  0.3044688507951676  0.7152157674566696  0.060665229085316186  1.0000
  C   C55       1.0  0.2144096351572884  0.6832706378721413  0.006275813391575001  1.0000
  C   C56       1.0  0.19871968080359897  0.7219152497900583  0.9561582325210479  1.0000
  C   C57       1.0  0.1269912404922452  0.7248105128780865  0.8907248583867542  1.0000
  C   C58       1.0  0.2035129167776618  0.7989832615988705  0.8961172079251795  1.0000
  C   C59       1.0  0.7080719294071757  0.25682505840180186  0.0094902455115289  1.0000
  C   C60       1.0  0.719645413592204  0.1876989184511474  0.011934201455183297  1.0000
  C   C61       1.0  0.7887092816064722  0.18066703850611532  0.9995616281309194  1.0000
  C   C62       1.0  0.8397705716227364  0.238159905643343  0.9819451421787305  1.0000
  C   C63       1.0  0.8285162538180018  0.3089275378272306  0.9813724230838331  1.0000
  C   C64       1.0  0.7627543654149064  0.31742186548421375  0.9979343670647294  1.0000
  C   C65       1.0  0.7168880812129644  0.3713084178840022  0.0067779580042071005  1.0000
  C   C66       1.0  0.6534191991171668  0.30129221901808745  0.017706452015382  1.0000
  N   N1        1.0  0.38248026358996867  0.9938319218044854  0.1939933839299144  1.0000
  N   N2        1.0  0.922879574986631  0.7213103271375731  0.8958575034177797  1.0000
  N   N3        1.0  0.3292293839478689  0.6785728744372579  0.1157296081194232  1.0000
  N   N4        1.0  0.8037554728232122  0.9504210190844378  0.9393598643945393  1.0000
  O   O1        1.0  0.3604822426618242  0.45258238435847187  0.41753014862256776  1.0000
  O   O2        1.0  0.45828103695857436  0.5505301885999787  0.40394535398883136  1.0000
  O   O3        1.0  0.42314367658359947  0.49813568324045604  0.6001216044677165  1.0000
  O   O4        1.0  0.5089911567164833  0.5995278187716551  0.5821734387740775  1.0000
  O   O5        1.0  0.5625767145401497  0.4641019318040663  0.5845973423441108  1.0000
  O   O6        1.0  0.6572432151616995  0.580139877822596  0.5885499153292598  1.0000
  O   O7        1.0  0.41988964077988566  0.3216563389461272  0.41309697199225326  1.0000
  O   O8        1.0  0.5150900309811207  0.4265913801036948  0.4046340401200723  1.0000
  O   O9        1.0  0.3988907854997238  0.9182169849726595  0.9697099601824348  1.0000
  O   O10       1.0  0.5050369918931921  0.922587645419732  0.07798507208153178  1.0000
  O   O11       1.0  0.43961836255038383  0.9165929654875811  0.8350882797903835  1.0000
  O   O12       1.0  0.541591920619055  0.9168134160339322  0.9419072125507169  1.0000
  O   O13       1.0  0.5758010206619915  0.10040236475300908  0.9742431845514117  1.0000
  O   O14       1.0  0.6825496259838674  0.09532370135440266  0.07166703660220008  1.0000
  O   O15       1.0  0.43266887754707284  0.09344951353407548  0.011306135863541998  1.0000
  O   O16       1.0  0.5365848053369575  0.09450261188828793  0.1186272566401811  1.0000
  O   O17       1.0  0.10891130932567708  0.6405834471605446  0.04952866404295969  1.0000
  O   O18       1.0  0.10666161723698762  0.5362836811473032  0.9409212156139757  1.0000
  O   O19       1.0  0.07939894607293502  0.5737810400320102  0.16980930643097028  1.0000
  O   O20       1.0  0.0865874654521193  0.47953178865526547  0.06248160029519309  1.0000
  O   O21       1.0  0.9045615699742839  0.45324637455748035  0.014839114598984798  1.0000
  O   O22       1.0  0.9159941317682226  0.35194074659869334  0.9182493444477444  1.0000
  O   O23       1.0  0.9260357894621194  0.606087039407598  0.002796876195667201  1.0000
  O   O24       1.0  0.9310034145159137  0.5120814622129333  0.8924378593855025  1.0000
  O   O25       1.0  0.3268500357400441  0.9748640127856024  0.1225770859241351  1.0000
  O   O26       1.0  0.3818816183125904  0.9439246524476278  0.2230695166597201  1.0000
  O   O27       1.0  0.9870921883694879  0.7275817526535068  0.9515694445453846  1.0000
  O   O28       1.0  0.9187819099354969  0.7826681543461621  0.8871301937810186  1.0000
  O   O29       1.0  0.2683055870888609  0.6253173646133164  0.11582913069248238  1.0000
  O   O30       1.0  0.4077724803561296  0.7015825043955035  0.15844686913335687  1.0000
  O   O31       1.0  0.8676541006847033  0.9509806605142405  0.9310746683400949  1.0000
  O   O32       1.0  0.8074753784894072  0.010811088492374844  0.997645537422251  1.0000
  F   F1        1.0  0.6828094070566025  0.380093772048511  0.8255220474040142  1.0000
  F   F2        1.0  0.5575408899392968  0.3625200718116945  0.6867004892659024  1.0000
