data_image0
_chemical_formula_structural       Mo4H48C36N8O16
_chemical_formula_sum              "Mo4 H48 C36 N8 O16"
_cell_length_a       8.608804032
_cell_length_b       9.900912338406934
_cell_length_c       13.8296
_cell_angle_alpha    90.0
_cell_angle_beta     90.0
_cell_angle_gamma    106.97419205924709

_space_group_name_H-M_alt    "P 1"
_space_group_IT_number       1

loop_
  _space_group_symop_operation_xyz
  'x, y, z'

loop_
  _atom_site_type_symbol
  _atom_site_label
  _atom_site_symmetry_multiplicity
  _atom_site_fract_x
  _atom_site_fract_y
  _atom_site_fract_z
  _atom_site_occupancy
  Mo  Mo1       1.0  0.534069084301862  0.4100514362070625  0.9766920229073861  1.0000
  Mo  Mo2       1.0  0.9659292343288044  0.5899451330222831  0.476691299820672  1.0000
  Mo  Mo3       1.0  0.4659238801003198  0.5899630852203543  0.0233115925261771  1.0000
  Mo  Mo4       1.0  0.034076068489625286  0.4100334840089914  0.523310146352749  1.0000
  H   H1        1.0  0.07520623251572542  0.6642788491660383  0.0084846994851588  1.0000
  H   H2        1.0  0.42479229781351086  0.3357134960167016  0.508486145658587  1.0000
  H   H3        1.0  0.924793225236172  0.3357134960167016  0.991513854341413  1.0000
  H   H4        1.0  0.5752059983368554  0.6642788491660383  0.491513854341413  1.0000
  H   H5        1.0  0.018855939490258315  0.7484936663306172  0.1108354543876899  1.0000
  H   H6        1.0  0.4811457210784127  0.2514976228404748  0.6108340082142619  1.0000
  H   H7        1.0  0.9811482625737967  0.2514955108171719  0.889163822525596  1.0000
  H   H8        1.0  0.5188525750719535  0.7484947223422722  0.389163822525596  1.0000
  H   H9        1.0  0.026114956603485964  0.8283355392473339  0.9957836813790735  1.0000
  H   H10       1.0  0.4738839282909311  0.171657861947061  0.4957872968126367  1.0000
  H   H11       1.0  0.9738875334818503  0.1716589179587089  0.0042127031873633  1.0000
  H   H12       1.0  0.5261120446563652  0.8283344832356859  0.5042148724475055  1.0000
  H   H13       1.0  0.6023362798740522  0.4347251484387229  0.3291360559958321  1.0000
  H   H14       1.0  0.8976673942931228  0.5652735328139258  0.8291353329091251  1.0000
  H   H15       1.0  0.3976679830371737  0.5652745888255808  0.6708632209174539  1.0000
  H   H16       1.0  0.10233186764677532  0.4347251484387229  0.1708646670908749  1.0000
  H   H17       1.0  0.5127638101139311  0.2549032604157802  0.2943707699427307  1.0000
  H   H18       1.0  0.987236733813809  0.7450964768485164  0.7943678775958816  1.0000
  H   H19       1.0  0.4872376771230408  0.7450985888718193  0.7056306762306903  1.0000
  H   H20       1.0  0.012761366524543388  0.25490220440413214  0.2056285069705552  1.0000
  H   H21       1.0  0.3888769777568015  0.3658129961125312  0.3263008329958907  1.0000
  H   H22       1.0  0.1111240345286788  0.6341867411517725  0.8263001099091838  1.0000
  H   H23       1.0  0.6111226387482702  0.6341867411517725  0.6736991670041093  1.0000
  H   H24       1.0  0.8888744203748543  0.3658129961125312  0.1736969977439671  1.0000
  H   H25       1.0  0.6129683172166693  0.9058816428342169  0.9878976976919063  1.0000
  H   H26       1.0  0.8870331925006029  0.09412443049998839  0.4878998669520485  1.0000
  H   H27       1.0  0.3870280711429642  0.0941223184766926  0.0121023023080937  1.0000
  H   H28       1.0  0.11297016546825488  0.9058795308109139  0.5121044715682288  1.0000
  H   H29       1.0  0.6718953557361118  0.3454668196277311  0.7488336611326432  1.0000
  H   H30       1.0  0.8281076701478723  0.6545403097181293  0.2488336611326432  1.0000
  H   H31       1.0  0.3281080022327458  0.6545371416831784  0.2511656157806428  1.0000
  H   H32       1.0  0.1718967515165204  0.3454668196277311  0.7511670619540709  1.0000
  H   H33       1.0  0.8377886483352911  0.1565062067748002  0.6917662116040972  1.0000
  H   H34       1.0  0.6622113452152618  0.8434988105477572  0.1917676577775183  1.0000
  H   H35       1.0  0.1622105156986038  0.8434956425128064  0.3082330653091887  1.0000
  H   H36       1.0  0.3377934310143047  0.156509374809751  0.8082345114826168  1.0000
  H   H37       1.0  0.8128661214693552  0.9011042461239214  0.7486326430265535  1.0000
  H   H38       1.0  0.6871308397477663  0.0988986591753331  0.24863408919997454  1.0000
  H   H39       1.0  0.1871295577599241  0.0988976031636781  0.2513673569734465  1.0000
  H   H40       1.0  0.3128725182210914  0.9011053021355764  0.7513680800601605  1.0000
  H   H41       1.0  0.7277562407100007  0.8466066528374155  0.8650286342338163  1.0000
  H   H42       1.0  0.7722387518692244  0.1533973084734939  0.3650300804072444  1.0000
  H   H43       1.0  0.27223827691774005  0.153395196450191  0.1349713657661837  1.0000
  H   H44       1.0  0.22776147586019851  0.8466077088490637  0.6349728119396048  1.0000
  H   H45       1.0  0.9240744021330229  0.9733829635943252  0.8548938508705959  1.0000
  H   H46       1.0  0.5759198813158477  0.0266188856932814  0.3548945739573099  1.0000
  H   H47       1.0  0.07591940636436331  0.0266167736699785  0.1451061491294041  1.0000
  H   H48       1.0  0.42408115344993286  0.973385075617628  0.6451068722161182  1.0000
  C   C1        1.0  0.8214156069430844  0.6470880354951944  0.0190931046451084  1.0000
  C   C2        1.0  0.6785854873618433  0.35290642171084835  0.5190931046451084  1.0000
  C   C3        1.0  0.178587335613436  0.3529043096875455  0.9809054491814635  1.0000
  C   C4        1.0  0.3214119038461547  0.6470901475184972  0.4809061722681776  1.0000
  C   C5        1.0  0.9965384277051895  0.7262160445356614  0.03336177474403  1.0000
  C   C6        1.0  0.5034634736361028  0.2737773566587265  0.533362497830737  1.0000
  C   C7        1.0  0.0034637078149727845  0.2737773566587265  0.966636055995835  1.0000
  C   C8        1.0  0.49653633868098274  0.7262160445356614  0.466637502169263  1.0000
  C   C9        1.0  0.5012784510585604  0.4079520850443572  0.18692803841036462  1.0000
  C   C10       1.0  0.998720674608471  0.5920434281733407  0.6869273153236506  1.0000
  C   C11       1.0  0.4987235865555917  0.5920444841849886  0.8130712385029214  1.0000
  C   C12       1.0  0.0012743933964572023  0.4079531410560122  0.3130690692427862  1.0000
  C   C13       1.0  0.5009215894662162  0.3618033198726991  0.2899874182912043  1.0000
  C   C14       1.0  0.9990801160630625  0.6381964173915975  0.7899859721177762  1.0000
  C   C15       1.0  0.49907954320557485  0.6381974734032525  0.7100133047955097  1.0000
  C   C16       1.0  0.0009176297101162824  0.3618012078493961  0.2100111355353746  1.0000
  C   C17       1.0  0.6259121905790294  0.0805662969094811  0.8906042112570134  1.0000
  C   C18       1.0  0.8740878029715234  0.9194387204130763  0.3906063805171485  1.0000
  C   C19       1.0  0.3740853593821427  0.9194376644014284  0.1093943425695585  1.0000
  C   C20       1.0  0.1259140388306221  0.0805641848861782  0.6093972349164147  1.0000
  C   C21       1.0  0.5610071407569777  0.9914682191337789  0.9717858795626739  1.0000
  C   C22       1.0  0.9389901750253246  0.0085357421771235  0.4717894949962371  1.0000
  C   C23       1.0  0.4389880860011175  0.0085357421771235  0.0282119511771839  1.0000
  C   C24       1.0  0.061007827407031805  0.9914661071104831  0.5282155666107471  1.0000
  C   C25       1.0  0.6765862419048219  0.2479927201699468  0.7825461329322607  1.0000
  C   C26       1.0  0.8234141062109046  0.7520133531642657  0.2825483021923958  1.0000
  C   C27       1.0  0.323416309027678  0.7520122971526106  0.2174538670677393  1.0000
  C   C28       1.0  0.17658879928676902  0.2479927201699468  0.7174553132411603  1.0000
  C   C29       1.0  0.7581241621538695  0.1545114007655712  0.7528352229999413  1.0000
  C   C30       1.0  0.7418750243603255  0.8454946725686412  0.2528373922600764  1.0000
  C   C31       1.0  0.24187651804673743  0.8454915045336832  0.2471647770000587  1.0000
  C   C32       1.0  0.2581282357025287  0.1545124567772191  0.7471662231734797  1.0000
  C   C33       1.0  0.8019191438370895  0.9357108039473231  0.822984034245387  1.0000
  C   C34       1.0  0.6980754941769547  0.0642921013519313  0.322986203505522  1.0000
  C   C35       1.0  0.19807385762393176  0.0642899893286284  0.177015242667899  1.0000
  C   C36       1.0  0.3019258951540067  0.9357129159706261  0.6770166888413272  1.0000
  N   N1        1.0  0.5955306266037894  0.2025947792823359  0.8674704980621257  1.0000
  N   N2        1.0  0.9044723992801948  0.7974123500635244  0.3674719442355538  1.0000
  N   N3        1.0  0.40447227889388415  0.7974112940518764  0.1325287788511602  1.0000
  N   N4        1.0  0.0955313132538436  0.202592667259033  0.6325309481112953  1.0000
  N   N5        1.0  0.7262762929045863  0.049175294564165  0.8214807369699741  1.0000
  N   N6        1.0  0.7737210228777159  0.9508286667467445  0.3214829062301163  1.0000
  N   N7        1.0  0.2737205479262315  0.9508265547234416  0.1785185399433118  1.0000
  N   N8        1.0  0.22628036645324556  0.0491763505758129  0.6785207092034469  1.0000
  O   O1        1.0  0.7815444996288148  0.5175101258274992  0.9906569965870277  1.0000
  O   O2        1.0  0.7184542714730355  0.48248433137855073  0.4906577196737416  1.0000
  O   O3        1.0  0.21845576515944742  0.4824811633435928  0.0093415572395443  1.0000
  O   O4        1.0  0.281544281336501  0.5175122378508021  0.5093408341528303  1.0000
  O   O5        1.0  0.5387936364954058  0.3342657040428278  0.118606467287556  1.0000
  O   O6        1.0  0.9612046821352607  0.6657308651865179  0.618606467287556  1.0000
  O   O7        1.0  0.4612057233504885  0.66572980917487  0.88139280962573  1.0000
  O   O8        1.0  0.03879109500002189  0.3342678160661308  0.3813906403655949  1.0000
  O   O9        1.0  0.7120754832788381  0.709085423528947  0.0367957135419701  1.0000
  O   O10       1.0  0.7879274817579827  0.2909111457003988  0.5367957135419701  1.0000
  O   O11       1.0  0.2879308461762875  0.2909100896887509  0.963203563371323  1.0000
  O   O12       1.0  0.2120699094500225  0.709085423528947  0.463203563371323  1.0000
  O   O13       1.0  0.4643451430270816  0.5217215002927134  0.1683974952276301  1.0000
  O   O14       1.0  0.03565516012804439  0.47827612494828026  0.668396049054202  1.0000
  O   O15       1.0  0.5356568945870777  0.47827506893663246  0.831603950945798  1.0000
  O   O16       1.0  0.9643402624420576  0.5217215002927134  0.3316025047723699  1.0000
