data_image0
_chemical_formula_structural       Ag8H56C40S12N8
_chemical_formula_sum              "Ag8 H56 C40 S12 N8"
_cell_length_a       9.486783053613369
_cell_length_b       10.419049720845367
_cell_length_c       15.708435092198512
_cell_angle_alpha    96.48703161039269
_cell_angle_beta     90.03771792678124
_cell_angle_gamma    117.04430548517763

_space_group_name_H-M_alt    "P 1"
_space_group_IT_number       1

loop_
  _space_group_symop_operation_xyz
  'x, y, z'

loop_
  _atom_site_type_symbol
  _atom_site_label
  _atom_site_symmetry_multiplicity
  _atom_site_fract_x
  _atom_site_fract_y
  _atom_site_fract_z
  _atom_site_occupancy
  Ag  Ag1       1.0  0.5058838433325478  0.14044218298753466  0.5182306253533967  1.0000
  Ag  Ag2       1.0  0.6345335805453728  0.14041950029245243  0.01834137618919841  1.0000
  Ag  Ag3       1.0  0.4941125481181389  0.8595570152791794  0.48177287033085064  1.0000
  Ag  Ag4       1.0  0.365468016867318  0.8595753500800212  0.9816618018055084  1.0000
  Ag  Ag5       1.0  0.4045385349171938  0.936867226616677  0.655520652527443  1.0000
  Ag  Ag6       1.0  0.5323216818748692  0.9367179182467993  0.15545579464993156  1.0000
  Ag  Ag7       1.0  0.5954614994660901  0.06312871401243568  0.3444832416816298  1.0000
  Ag  Ag8       1.0  0.4676751132982062  0.0632736545362178  0.844543322499135  1.0000
  H   H1        1.0  0.767690979140383  0.4274923200168388  0.625044656442505  1.0000
  H   H2        1.0  0.6597326238665104  0.42790012719533627  0.12513597342888266  1.0000
  H   H3        1.0  0.23230860017542207  0.5725090408717152  0.37495708860043214  1.0000
  H   H4        1.0  0.3402764187942537  0.5720990737532574  0.8748687981810976  1.0000
  H   H5        1.0  0.024653750307152243  0.5790119129739182  0.7109702621221603  1.0000
  H   H6        1.0  0.5547140957920861  0.5796250939605941  0.2112318445468163  1.0000
  H   H7        1.0  0.9753489628548736  0.42098728022293846  0.2890325978473102  1.0000
  H   H8        1.0  0.44530187329611687  0.4203795314830358  0.78877205288606  1.0000
  H   H9        1.0  0.057822023352329756  0.5162569369683965  0.856965095838085  1.0000
  H   H10       1.0  0.4587216836473615  0.516461171918728  0.3570837349781116  1.0000
  H   H11       1.0  0.9421790233631525  0.48373681415272063  0.14303545505111262  1.0000
  H   H12       1.0  0.5412874507494295  0.483544542129863  0.6429202408936022  1.0000
  H   H13       1.0  0.8339310187256785  0.3006191402477114  0.9086018690096582  1.0000
  H   H14       1.0  0.46623354895073993  0.3001648173795388  0.4083827659456604  1.0000
  H   H15       1.0  0.16606479015122486  0.6993767855973799  0.09139884025594823  1.0000
  H   H16       1.0  0.5337601500932507  0.6998311058816427  0.5916173061064429  1.0000
  H   H17       1.0  0.18463205834300572  0.4243623706966204  0.621951388791743  1.0000
  H   H18       1.0  0.2396674348999142  0.4245033639935372  0.12220142440024523  1.0000
  H   H19       1.0  0.815360209071585  0.5756433419130644  0.37805131040486384  1.0000
  H   H20       1.0  0.7603331509075347  0.5754957977708203  0.877795066806357  1.0000
  H   H21       1.0  0.04008236442845719  0.4245032141895139  0.5501698607343216  1.0000
  H   H22       1.0  0.3840588959528688  0.4247459897406713  0.05028506938576531  1.0000
  H   H23       1.0  0.9599156759471084  0.5755013973043576  0.44983021248083344  1.0000
  H   H24       1.0  0.6159443464909983  0.5752542674481588  0.9497134124622096  1.0000
  H   H25       1.0  0.30204226411640894  0.49441116084576464  0.48373461068865015  1.0000
  H   H26       1.0  0.19155427417105395  0.49451711830811024  0.9839716216899962  1.0000
  H   H27       1.0  0.6979616382823509  0.5055967375430087  0.5162714340759396  1.0000
  H   H28       1.0  0.8084521580847762  0.5054853047079532  0.016025746355495595  1.0000
  H   H29       1.0  0.14927130512282366  0.33164658881990766  0.4265933966818239  1.0000
  H   H30       1.0  0.18159034931468204  0.3316974886873112  0.9268720308911615  1.0000
  H   H31       1.0  0.8507394580033746  0.6683623845179696  0.5734108184405928  1.0000
  H   H32       1.0  0.818417677847137  0.6683060172423723  0.07312478025308175  1.0000
  H   H33       1.0  0.28918588474915913  0.32203839181596555  0.49764497212137143  1.0000
  H   H34       1.0  0.03235452998479366  0.32214473231339014  0.9979916147524723  1.0000
  H   H35       1.0  0.7108164585138965  0.6779706032402473  0.5023630625352313  1.0000
  H   H36       1.0  0.9676487326545384  0.6778576788133108  0.0020032053757149033  1.0000
  H   H37       1.0  0.20627293752693993  0.2019325123021503  0.613707714205795  1.0000
  H   H38       1.0  0.9956956789083052  0.2018887531131526  0.11371120308830032  1.0000
  H   H39       1.0  0.7937250970080713  0.79807208957552  0.3862904484929005  1.0000
  H   H40       1.0  0.004304899111737557  0.7981103958296104  0.8862827407630224  1.0000
  H   H41       1.0  0.026596808118249302  0.0378194673780641  0.6049409111861124  1.0000
  H   H42       1.0  0.011782568309548902  0.0379397806798707  0.10517868814918073  1.0000
  H   H43       1.0  0.9734012186293628  0.962185121678019  0.3950547041573032  1.0000
  H   H44       1.0  0.9882196046164752  0.9620604511765122  0.8948146988009001  1.0000
  H   H45       1.0  0.12441604033043062  0.13811303244194306  0.759194791427227  1.0000
  H   H46       1.0  0.01412898495021152  0.138733478554613  0.25931460056470723  1.0000
  H   H47       1.0  0.8755829505710294  0.861885046408794  0.24080225668062388  1.0000
  H   H48       1.0  0.9858620399356965  0.8612613204335134  0.7406777492966514  1.0000
  H   H49       1.0  0.9361303523653747  0.1309631878825215  0.7377259050509651  1.0000
  H   H50       1.0  0.19529310116185172  0.1315681285729795  0.238071545110735  1.0000
  H   H51       1.0  0.06386653259687604  0.8690348947951068  0.2622717795210151  1.0000
  H   H52       1.0  0.8047006219713069  0.8684299550368735  0.7619261388992202  1.0000
  H   H53       1.0  0.11226321944650411  0.2993296925236208  0.7447054515968575  1.0000
  H   H54       1.0  0.18725779174678794  0.2998861989214561  0.24473464809005926  1.0000
  H   H55       1.0  0.8877363520818946  0.7006716555433384  0.2552937460907999  1.0000
  H   H56       1.0  0.8127332467670813  0.7001086225044588  0.7552621596430314  1.0000
  C   C1        1.0  0.6630670898618547  0.28965401131047486  0.723786867437781  1.0000
  C   C2        1.0  0.6262625668695635  0.28957491350600867  0.22368479406505065  1.0000
  C   C3        1.0  0.3369276331954368  0.7103397416750923  0.27621368232736654  1.0000
  C   C4        1.0  0.3737396150637622  0.7104232124934811  0.7763218071871096  1.0000
  C   C5        1.0  0.7861634619116415  0.4047970420125679  0.6888274707810853  1.0000
  C   C6        1.0  0.6184518512141892  0.4050179891203882  0.18885370754590275  1.0000
  C   C7        1.0  0.21382972999282415  0.5951999743999182  0.3111739545115527  1.0000
  C   C8        1.0  0.3815556583468904  0.5949844720497167  0.8111513027527553  1.0000
  C   C9        1.0  0.9292463877305293  0.48725147701025406  0.7362197987348297  1.0000
  C   C10       1.0  0.5581441141886003  0.4876320086591336  0.23636360348715615  1.0000
  C   C11       1.0  0.07075309400869405  0.5127433611621015  0.26378083152991394  1.0000
  C   C12       1.0  0.44185751899437525  0.5123650212943929  0.7636410074983078  1.0000
  C   C13       1.0  0.9486559155497433  0.45248333014676223  0.8173424679500131  1.0000
  C   C14       1.0  0.5039823855776077  0.45262884896676064  0.3174009024608325  1.0000
  C   C15       1.0  0.051342987509393485  0.5475082420147787  0.18265664957373678  1.0000
  C   C16       1.0  0.49601715796791274  0.5473703323407334  0.6825994095913402  1.0000
  C   C17       1.0  0.8241606183274895  0.334099901811193  0.8463352500996708  1.0000
  C   C18       1.0  0.5096692156688222  0.3338594699491254  0.3462035480171153  1.0000
  C   C19       1.0  0.17583569379523575  0.6658949244718002  0.15366283224776825  1.0000
  C   C20       1.0  0.4903255769821798  0.666138638993168  0.6537992308907408  1.0000
  C   C21       1.0  0.8559361338866651  0.14738472168910022  0.5434656334445195  1.0000
  C   C22       1.0  0.29167450970706454  0.14767020349161433  0.043588151835052706  1.0000
  C   C23       1.0  0.14406350334173376  0.8526209759237844  0.45653451970820685  1.0000
  C   C24       1.0  0.708328726896248  0.8523300440810148  0.9564084194964626  1.0000
  C   C25       1.0  0.11289415583666348  0.37056432951570173  0.5616004782580293  1.0000
  C   C26       1.0  0.2574474206174457  0.3707405380622574  0.06180600870008852  1.0000
  C   C27       1.0  0.8871028702598522  0.6294424682807715  0.4384023014381811  1.0000
  C   C28       1.0  0.7425574128387069  0.6292607956293921  0.9381906425690051  1.0000
  C   C29       1.0  0.2195844349597281  0.3798921606714957  0.48774908593255634  1.0000
  C   C30       1.0  0.15969053170153563  0.3800181289929441  0.988028844201587  1.0000
  C   C31       1.0  0.780417361499822  0.6201157415441614  0.5122575952961699  1.0000
  C   C32       1.0  0.8403148127878384  0.6199821179582018  0.011967727504611527  1.0000
  C   C33       1.0  0.08016273849644051  0.154668156260847  0.6272412165413357  1.0000
  C   C34       1.0  0.0747822599586598  0.1548383763907211  0.12737440036295314  1.0000
  C   C35       1.0  0.9198336933451757  0.8453353498816155  0.3727549557033286  1.0000
  C   C36       1.0  0.9252177790452834  0.8451596925330803  0.8726207374157726  1.0000
  C   C37       1.0  0.06140900228497509  0.18248161177903197  0.7229010089358925  1.0000
  C   C38       1.0  0.12143074235632412  0.1829801805892757  0.22305602328416546  1.0000
  C   C39       1.0  0.9385889366203061  0.8175164705878475  0.2770966758234296  1.0000
  C   C40       1.0  0.8785624300796259  0.8170168037692207  0.7769390336202806  1.0000
  S   S1        1.0  0.4726518599474048  0.1958451005359265  0.6730744527144668  1.0000
  S   S2        1.0  0.7230786613112771  0.19582088975720066  0.17313106760592237  1.0000
  S   S3        1.0  0.5273471445820235  0.8041530007525992  0.3269270532651164  1.0000
  S   S4        1.0  0.27691974044889633  0.8041717851718387  0.8268713136748149  1.0000
  S   S5        1.0  0.7891401441897445  0.23234704938887063  0.47537113044050033  1.0000
  S   S6        1.0  0.4430716766603026  0.232615440603098  0.9754795012122277  1.0000
  S   S7        1.0  0.21085687606621675  0.7676597387914088  0.5246297387392576  1.0000
  S   S8        1.0  0.5569315378006933  0.7673826498262598  0.02452009500026261  1.0000
  S   S9        1.0  0.7413051666113902  0.9796527966926619  0.574444943594358  1.0000
  S   S10       1.0  0.23909170087981116  0.9800093667721298  0.07464106463793033  1.0000
  S   S11       1.0  0.258694947826811  0.020349637804059705  0.425554333843536  1.0000
  S   S12       1.0  0.7609046353320821  0.019987619859534806  0.9253546296673536  1.0000
  N   N1        1.0  0.6847243492288725  0.2541838602202375  0.8013088226723613  1.0000
  N   N2        1.0  0.5689706798867322  0.2538278138976012  0.30110577387905124  1.0000
  N   N3        1.0  0.3152735317638076  0.745809885422311  0.19869045397717144  1.0000
  N   N4        1.0  0.4310267336304108  0.7461692108881053  0.6988975626794132  1.0000
  N   N5        1.0  0.007854524094540214  0.2199813558098711  0.5747948321995652  1.0000
  N   N6        1.0  0.2122276441201834  0.22016563339531098  0.07493903424171582  1.0000
  N   N7        1.0  0.992144093014261  0.7800265184894286  0.42520611691776383  1.0000
  N   N8        1.0  0.7877761015695057  0.7798335242314139  0.9250568206880917  1.0000
