data_image0
_chemical_formula_structural       Zn2H16C20N2Cl2O4
_chemical_formula_sum              "Zn2 H16 C20 N2 Cl2 O4"
_cell_length_a       7.092015461771347
_cell_length_b       7.345470962188022
_cell_length_c       10.178109854246857
_cell_angle_alpha    75.45116591813077
_cell_angle_beta     75.1130501146458
_cell_angle_gamma    85.29319711543438

_space_group_name_H-M_alt    "P 1"
_space_group_IT_number       1

loop_
  _space_group_symop_operation_xyz
  'x, y, z'

loop_
  _atom_site_type_symbol
  _atom_site_label
  _atom_site_symmetry_multiplicity
  _atom_site_fract_x
  _atom_site_fract_y
  _atom_site_fract_z
  _atom_site_occupancy
  Zn  Zn1       1.0  0.09905810196215727  0.6603677426159679  0.32151241612626064  1.0000
  Zn  Zn2       1.0  0.9009456301939949  0.33963084890967116  0.6784876766827636  1.0000
  H   H1        1.0  0.3728209746353812  0.6749977212657046  0.6029196016639631  1.0000
  H   H2        1.0  0.6271784327271347  0.3249980602781121  0.3970817880697978  1.0000
  H   H3        1.0  0.8551212385965953  0.05613116302642139  0.44837568680945583  1.0000
  H   H4        1.0  0.14487819491439782  0.9438632118153695  0.5516259594438464  1.0000
  H   H5        1.0  0.9984237992739721  0.043997216790792514  0.19636382116900813  1.0000
  H   H6        1.0  0.0015769619193122043  0.9560041727376714  0.8036343195430788  1.0000
  H   H7        1.0  0.15626815682563938  0.3507981947996086  0.08799519523809349  1.0000
  H   H8        1.0  0.8437296853989408  0.6492031704862528  0.9120005255919564  1.0000
  H   H9        1.0  0.7063180739982968  0.06852356390964331  0.1280603149968442  1.0000
  H   H10       1.0  0.29368112417645875  0.9314834712504237  0.8719390225806407  1.0000
  H   H11       1.0  0.5243420920814471  0.7732372511266872  0.24051001963841406  1.0000
  H   H12       1.0  0.47566302065948207  0.2267655593642957  0.7594890423167798  1.0000
  H   H13       1.0  0.6932838071023112  0.38955820334858526  0.9622624172347257  1.0000
  H   H14       1.0  0.3067139837336513  0.6104460018654336  0.0377357330287325  1.0000
  H   H15       1.0  0.6043577837200119  0.45809103093546366  0.12012477115922587  1.0000
  H   H16       1.0  0.39564000681317407  0.5419131654371939  0.8798723982800708  1.0000
  C   C1        1.0  0.4277862162740931  0.8174002805151092  0.5582664116035545  1.0000
  C   C2        1.0  0.5722132172368931  0.18259409432667442  0.441735234649741  1.0000
  C   C3        1.0  0.6286372427077466  0.8487078207327131  0.5272310468020862  1.0000
  C   C4        1.0  0.37136216465476923  0.15128796081110352  0.4727703429316818  1.0000
  C   C5        1.0  0.6998329186507561  0.0316610075520174  0.4688766189139884  1.0000
  C   C6        1.0  0.30016508167574335  0.9683319528871196  0.5311245643299073  1.0000
  C   C7        1.0  0.7671996872813054  0.689383459027063  0.557687131776646  1.0000
  C   C8        1.0  0.23279971947567193  0.3106123048340237  0.4423122963088062  1.0000
  C   C9        1.0  0.1552383578598082  0.05646944210987931  0.1805360077999296  1.0000
  C   C10       1.0  0.8447624036362456  0.9435319562599531  0.8194631137363046  1.0000
  C   C11       1.0  0.2457896012455834  0.22797943930432757  0.11910559369272986  1.0000
  C   C12       1.0  0.7542053241297068  0.7720219636284895  0.880894573024399  1.0000
  C   C13       1.0  0.44790158165238847  0.23834230399054235  0.09912389333837977  1.0000
  C   C14       1.0  0.552094777210165  0.7616605221862898  0.9008777172123171  1.0000
  C   C15       1.0  0.5485354973251404  0.07067231157154912  0.14278431204930803  1.0000
  C   C16       1.0  0.4514637795977947  0.9293305123237943  0.8572167759109419  1.0000
  C   C17       1.0  0.44846826741056117  0.9043596677849097  0.20488008597297377  1.0000
  C   C18       1.0  0.551532416851174  0.095645986056482  0.7951221893013026  1.0000
  C   C19       1.0  0.5571105238087739  0.41865063598397256  0.0358489158961319  1.0000
  C   C20       1.0  0.4428872928728822  0.5813521536866519  0.9641485100627062  1.0000
  N   N1        1.0  0.25347408483390405  0.8970363014551878  0.22375853363929823  1.0000
  N   N2        1.0  0.7465281359951135  0.10296510461526512  0.7762413074258844  1.0000
  Cl  Cl1       1.0  0.8930846720453401  0.6211390632605784  0.20007075095681864  1.0000
  Cl  Cl2       1.0  0.1069175490864467  0.3788623516512359  0.7999300709325182  1.0000
  O   O1        1.0  0.9500925671454397  0.7141702998680798  0.5048980971832079  1.0000
  O   O2        1.0  0.0499082463447849  0.28582827625632484  0.495100556567948  1.0000
  O   O3        1.0  0.6973469743555539  0.5340337581845986  0.6387846387425995  1.0000
  O   O4        1.0  0.3026553246161043  0.4659634189383938  0.36121499105702515  1.0000
