data_image0
_chemical_formula_structural       Zn4H25C48NO15
_chemical_formula_sum              "Zn4 H25 C48 N1 O15"
_cell_length_a       15.37697868864778
_cell_length_b       15.64743863908656
_cell_length_c       19.59214928691543
_cell_angle_alpha    81.03832819169827
_cell_angle_beta     78.32536824031075
_cell_angle_gamma    67.5508941247039

_space_group_name_H-M_alt    "P 1"
_space_group_IT_number       1

loop_
  _space_group_symop_operation_xyz
  'x, y, z'

loop_
  _atom_site_type_symbol
  _atom_site_label
  _atom_site_symmetry_multiplicity
  _atom_site_fract_x
  _atom_site_fract_y
  _atom_site_fract_z
  _atom_site_occupancy
  Zn  Zn1       1.0  0.4172649228465418  0.595168036477304  0.43900440662587675  1.0000
  Zn  Zn2       1.0  0.431976414874228  0.44339250002757064  0.5757210611637973  1.0000
  Zn  Zn3       1.0  0.5611509477470806  0.5609080222848631  0.5400457237734669  1.0000
  Zn  Zn4       1.0  0.5942285213704608  0.39859655117934506  0.4407553206414789  1.0000
  H   H1        1.0  0.38468652727404873  0.6119457437259116  0.23127257269437249  1.0000
  H   H2        1.0  0.43474455486553854  0.4059062438985137  0.7925943902817777  1.0000
  H   H3        1.0  0.5155448575475462  0.6453290420997033  0.7434777263969322  1.0000
  H   H4        1.0  0.46103406388558466  0.6045773788896154  0.9928746667759896  1.0000
  H   H5        1.0  0.6076305369620698  0.3336561610296371  0.11181853056235269  1.0000
  H   H6        1.0  0.4357093132559484  0.40954273286872916  0.919061068095445  1.0000
  H   H7        1.0  0.6107882734635196  0.34531198504866006  0.23670307360713846  1.0000
  H   H8        1.0  0.522297233628649  0.3920090455132126  0.008884939609124768  1.0000
  H   H9        1.0  0.382395629411306  0.6025897940677892  0.10605324370947503  1.0000
  H   H10       1.0  0.5101529559839834  0.6538205950744639  0.8704613314849183  1.0000
  H   H11       1.0  0.5659266590320159  0.15656677225759097  0.658255475559244  1.0000
  H   H12       1.0  0.5322096766290657  0.8651110954438648  0.6654419827295682  1.0000
  H   H13       1.0  0.5609306342364418  0.9975149281756895  0.6919735904817512  1.0000
  H   H14       1.0  0.5207693820387931  0.14713797862786035  0.45127024279881306  1.0000
  H   H15       1.0  0.41990110273727044  0.8536054451399622  0.35112644134096627  1.0000
  H   H16       1.0  0.4691777599138264  0.09133485935898018  0.392876272048575  1.0000
  H   H17       1.0  0.4215330405281748  0.0136456886882499  0.3153208245454238  1.0000
  H   H18       1.0  0.49639818338997094  0.7829042703247068  0.5848493312423741  1.0000
  H   H19       1.0  0.11923932367056277  0.7173081658408974  0.5355281336596462  1.0000
  H   H20       1.0  0.8288462045208151  0.7269400179117013  0.47950622517391395  1.0000
  H   H21       1.0  0.948939584787432  0.7629768253533483  0.5212341063742869  1.0000
  H   H22       1.0  0.170323602454964  0.43395752376684255  0.5111573712481527  1.0000
  H   H23       1.0  0.8857280526147592  0.28116360252329997  0.45491453821761496  1.0000
  H   H24       1.0  0.11966279475996093  0.34333370254173445  0.49285861011276205  1.0000
  H   H25       1.0  0.05812027527979782  0.23062524680432966  0.4665072676874474  1.0000
  C   C1        1.0  0.5438551765605483  0.2553925581928311  0.533725389135725  1.0000
  C   C2        1.0  0.4667485126353769  0.7456458140727518  0.4638048014387408  1.0000
  C   C3        1.0  0.25614676950711157  0.5488848241841636  0.5258951631789799  1.0000
  C   C4        1.0  0.7513418106138162  0.44407622360577637  0.4728263445405431  1.0000
  C   C5        1.0  0.4785286498393477  0.5205143555237299  0.6847374716467626  1.0000
  C   C6        1.0  0.5000664884746585  0.4860927616134914  0.31622219708901866  1.0000
  C   C7        1.0  0.4984701773033109  0.47967403768251415  0.24136159020712  1.0000
  C   C8        1.0  0.43418466907152714  0.5520536383765133  0.20414680324123677  1.0000
  C   C9        1.0  0.43366972032546863  0.546692834017712  0.1341807755133928  1.0000
  C   C10       1.0  0.4965201554372528  0.4683794085396044  0.0994111708791152  1.0000
  C   C11       1.0  0.5589633200858657  0.39505378100827926  0.13783550058879254  1.0000
  C   C12       1.0  0.5610283179897453  0.40109581615726597  0.20747577051887586  1.0000
  C   C13       1.0  0.4539340535197455  0.4609640544020763  0.8806774274959391  1.0000
  C   C14       1.0  0.4529417377515728  0.45875447724897356  0.8102570826045862  1.0000
  C   C15       1.0  0.4974145735197198  0.5945859615103544  0.782568481392829  1.0000
  C   C16       1.0  0.49474323422754923  0.5987022979531601  0.8533061752983357  1.0000
  C   C17       1.0  0.4749336723513268  0.5309694896467717  0.9036271566964729  1.0000
  C   C18       1.0  0.49782972068111786  0.46205722087891843  0.025653133153433236  1.0000
  C   C19       1.0  0.4758504013799083  0.53556942151274  0.9772548429027168  1.0000
  C   C20       1.0  0.4758143136025125  0.5248888549488484  0.7605137970816713  1.0000
  C   C21       1.0  0.5504438506224859  0.03128500408696768  0.6395825102010234  1.0000
  C   C22       1.0  0.5439972215458369  0.15928517531736466  0.5521242954813701  1.0000
  C   C23       1.0  0.43869082707468726  0.8895265140032719  0.3858715335199108  1.0000
  C   C24       1.0  0.4405055789154561  0.9788128392065187  0.36584798652494027  1.0000
  C   C25       1.0  0.46734229776206604  0.022289475497714796  0.409781829457458  1.0000
  C   C26       1.0  0.49059117444803496  0.9796750140107803  0.4760635298031487  1.0000
  C   C27       1.0  0.4861341683462684  0.8893698348559693  0.49786475156903265  1.0000
  C   C28       1.0  0.5164290888793204  0.026573589381008785  0.522979384613123  1.0000
  C   C29       1.0  0.5305390423313201  0.9844071711075841  0.5919247753231146  1.0000
  C   C30       1.0  0.5221520274674419  0.8960671717451445  0.6123455121168533  1.0000
  C   C31       1.0  0.501707209023671  0.8502543095051464  0.5676056147187366  1.0000
  C   C32       1.0  0.5272794560377322  0.11322992724684158  0.5038884323978792  1.0000
  C   C33       1.0  0.5543602220786639  0.11847266030953557  0.6210587666577466  1.0000
  C   C34       1.0  0.46261511567637104  0.8438067781010757  0.45010073056206307  1.0000
  C   C35       1.0  0.9978475326929296  0.6910674895293242  0.5185658801581354  1.0000
  C   C36       1.0  0.15297982914955813  0.5724974447082188  0.5235219071967947  1.0000
  C   C37       1.0  0.9160202685560183  0.33150071905544815  0.46129086011325876  1.0000
  C   C38       1.0  0.011948599393136314  0.30339019917042254  0.46900710146973507  1.0000
  C   C39       1.0  0.0465389133203118  0.3672945878496279  0.4830668507106424  1.0000
  C   C40       1.0  0.9891732808825681  0.4625754225637023  0.48496297243372055  1.0000
  C   C41       1.0  0.8933921864526728  0.4923545608248928  0.4713346940078864  1.0000
  C   C42       1.0  0.02576174554645418  0.5293912750322817  0.5006196577843269  1.0000
  C   C43       1.0  0.9644489332064556  0.6244673499227245  0.5033931613927435  1.0000
  C   C44       1.0  0.8725655510180134  0.6533119374509369  0.48423275263788657  1.0000
  C   C45       1.0  0.8408365055189863  0.5909436876554607  0.46579112992288413  1.0000
  C   C46       1.0  0.12010240056599744  0.5052470274084301  0.5125329674118788  1.0000
  C   C47       1.0  0.09132534475856605  0.6661613797085691  0.5269948725482507  1.0000
  C   C48       1.0  0.8561801185098973  0.42379671521762663  0.4647961830210362  1.0000
  N   N1        1.0  0.756961343241173  0.6330083587282471  0.429566823846379  1.0000
  O   O1        1.0  0.5015846763661217  0.49743429771541514  0.49699074776241753  1.0000
  O   O2        1.0  0.5785381026383689  0.27746761983290463  0.471530113645123  1.0000
  O   O3        1.0  0.42378940328837444  0.7194004371025428  0.42625473112083506  1.0000
  O   O4        1.0  0.3020361160404477  0.47051897282390337  0.5562203621342476  1.0000
  O   O5        1.0  0.6993640989087099  0.505144745436361  0.5151494765317608  1.0000
  O   O6        1.0  0.43155938580351727  0.4766346673638964  0.6684220626093094  1.0000
  O   O7        1.0  0.5686019665346153  0.42422490814661273  0.3438712504627119  1.0000
  O   O8        1.0  0.5284013797967546  0.5608438462956541  0.6419896964942637  1.0000
  O   O9        1.0  0.43266309895896876  0.5531891346868462  0.346551644203366  1.0000
  O   O10       1.0  0.28989956264781813  0.6106345816820351  0.4962388099613618  1.0000
  O   O11       1.0  0.7240401220381615  0.3949902900679304  0.4420832997226539  1.0000
  O   O12       1.0  0.507149851923579  0.3093048302847166  0.5831120115932292  1.0000
  O   O13       1.0  0.5141686474851215  0.6935483686874447  0.5106356165033573  1.0000
  O   O14       1.0  0.6988032367502514  0.7102692468770896  0.44519173731254824  1.0000
  O   O15       1.0  0.7526441678770156  0.5905726013894322  0.38248955410740126  1.0000
