data_image0
_chemical_formula_structural       Zr6H29C52Cl5O32
_chemical_formula_sum              "Zr6 H29 C52 Cl5 O32"
_cell_length_a       14.774178765819201
_cell_length_b       14.798599598341058
_cell_length_c       14.823468881518536
_cell_angle_alpha    60.42552190138331
_cell_angle_beta     59.861906774722456
_cell_angle_gamma    60.0880802949448

_space_group_name_H-M_alt    "P 1"
_space_group_IT_number       1

loop_
  _space_group_symop_operation_xyz
  'x, y, z'

loop_
  _atom_site_type_symbol
  _atom_site_label
  _atom_site_symmetry_multiplicity
  _atom_site_fract_x
  _atom_site_fract_y
  _atom_site_fract_z
  _atom_site_occupancy
  Zr  Zr1       1.0  0.8749861183452977  0.8835972758869988  0.6178969378513768  1.0000
  Zr  Zr2       1.0  0.11650316079479944  0.11865451848589001  0.38203832818553  1.0000
  Zr  Zr3       1.0  0.1128627171318259  0.883775591444831  0.6175668444633047  1.0000
  Zr  Zr4       1.0  0.877078909119987  0.12267594816292862  0.37833181630455925  1.0000
  Zr  Zr5       1.0  0.11422603267010333  0.8832049175684347  0.3778788242619412  1.0000
  Zr  Zr6       1.0  0.8744681045197994  0.12369551980073351  0.6176422033127764  1.0000
  H   H1        1.0  0.08690753323269758  0.7216827717423654  0.5920387408407564  1.0000
  H   H2        1.0  0.09209276289103485  0.09473469427695137  0.2174440053650528  1.0000
  H   H3        1.0  0.0893438468281289  0.0943395747790063  0.5945316866202859  1.0000
  H   H4        1.0  0.7114341932386239  0.09840755910088436  0.5922595052556402  1.0000
  H   H5        1.0  0.833334183246599  0.6011723036665301  0.6253572614078848  1.0000
  H   H6        1.0  0.15629015838863594  0.5737540693046908  0.37528984013203376  1.0000
  H   H7        1.0  0.8433393069048589  0.42842090962388113  0.6214615897394752  1.0000
  H   H8        1.0  0.575924743342391  0.8585656692193027  0.9156342209109241  1.0000
  H   H9        1.0  0.6126680491122798  0.11791277077617927  0.935477761653253  1.0000
  H   H10       1.0  0.40808786387514573  0.8631497909498193  0.08792700471245483  1.0000
  H   H11       1.0  0.13287737981801223  0.8525022961686729  0.08301787120167584  1.0000
  H   H12       1.0  0.8449791317068575  0.1443740056823015  0.09428089540079296  1.0000
  H   H13       1.0  0.12461562382064512  0.8611245718659221  0.9135802246907829  1.0000
  H   H14       1.0  0.5837178038287617  0.434057683478059  0.6321101396372341  1.0000
  H   H15       1.0  0.5912198488458386  0.4157054959764037  0.34798313977911016  1.0000
  H   H16       1.0  0.41340507204797927  0.6026340498567039  0.6247711243080402  1.0000
  H   H17       1.0  0.7484215035439518  0.6309207815990162  0.9632803006091418  1.0000
  H   H18       1.0  0.8324946947561714  0.5458850524988746  0.8775729804057446  1.0000
  H   H19       1.0  0.8338811142759893  0.3762966137276678  0.04641316452333643  1.0000
  H   H20       1.0  0.7495032217664671  0.4611567587034813  0.1322956195561743  1.0000
  H   H21       1.0  0.5827868287066097  0.13818222365696897  0.3476372517890169  1.0000
  H   H22       1.0  0.5928027387518213  0.8518661635890151  0.6371467534284888  1.0000
  H   H23       1.0  0.41300507533203046  0.12857913536239338  0.35712667937857384  1.0000
  H   H24       1.0  0.1832841329733057  0.47398299302992086  0.10603892162257716  1.0000
  H   H25       1.0  0.17994586096356358  0.33869349179867914  0.16045636638910563  1.0000
  H   H26       1.0  0.26428549021824915  0.3884624749516803  0.023109338173547614  1.0000
  H   H27       1.0  0.26402336918575736  0.5257262086463685  0.8875823244353852  1.0000
  H   H28       1.0  0.1839259062058931  0.6609779213403754  0.8266672149348366  1.0000
  H   H29       1.0  0.18034589071225346  0.6185307874975333  0.962629122018228  1.0000
  C   C1        1.0  0.9900558695605782  0.7024347392752901  0.4963666249012631  1.0000
  C   C2        1.0  0.3079978345295232  0.9957215516065218  0.20333891114079705  1.0000
  C   C3        1.0  0.9985473937942755  0.3054861165267154  0.4974067349385434  1.0000
  C   C4        1.0  0.6969621677892801  0.9960838338364155  0.8072446747250693  1.0000
  C   C5        1.0  0.9948169072770201  0.7020250473845593  0.804447988116081  1.0000
  C   C6        1.0  0.6962218382284817  0.9998081382676177  0.49288780096733115  1.0000
  C   C7        1.0  0.998024146798194  0.3067462556004727  0.19908093404994523  1.0000
  C   C8        1.0  0.3037847722994016  0.9915415065500209  0.5003167644552773  1.0000
  C   C9        1.0  0.3019362291721705  0.7025186546720407  0.4900537630153892  1.0000
  C   C10       1.0  0.9858838670199646  0.0038938095325776324  0.8061332293390252  1.0000
  C   C11       1.0  0.6969762292269618  0.3121515830807055  0.4934189345236175  1.0000
  C   C12       1.0  0.9925436611873553  0.9982792238200419  0.19790752196166722  1.0000
  C   C13       1.0  0.0036475319721773853  0.40437172718733194  0.4967992810089967  1.0000
  C   C14       1.0  0.993456787258928  0.5988162303494775  0.498443328097821  1.0000
  C   C15       1.0  0.09374824203023732  0.4449920011744267  0.4284665018501456  1.0000
  C   C16       1.0  0.9053254360019878  0.5573810623659767  0.5699783752267393  1.0000
  C   C17       1.0  0.08730382502842099  0.5420844844144243  0.42888550810544496  1.0000
  C   C18       1.0  0.9111179647291153  0.46189168636520617  0.5678955962582676  1.0000
  C   C19       1.0  0.41463470436365635  0.9931618459466947  0.10762873886612544  1.0000
  C   C20       1.0  0.6021708704494486  0.9903366212702309  0.9139358162136444  1.0000
  C   C21       1.0  0.47528391606595477  0.06354742875512188  0.06535986374844778  1.0000
  C   C22       1.0  0.546780267641061  0.9158697874976343  0.9578775165849576  1.0000
  C   C23       1.0  0.5673868974268501  0.062283179083287635  0.9687985007734669  1.0000
  C   C24       1.0  0.45424809192799365  0.9184377857727952  0.05302684035694208  1.0000
  C   C25       1.0  0.9811768781723772  0.006042008962246823  0.9085762375993199  1.0000
  C   C26       1.0  0.9893061581206696  0.9984665571713549  0.09851496262613296  1.0000
  C   C27       1.0  0.901383380723061  0.0864492787474376  0.9609262150087475  1.0000
  C   C28       1.0  0.06850711573514436  0.9175823770569096  0.04828312923550015  1.0000
  C   C29       1.0  0.9063055689929482  0.0819922462889267  0.05468326905906901  1.0000
  C   C30       1.0  0.06366621126005632  0.9223764184003044  0.9548459176331007  1.0000
  C   C31       1.0  0.4056000934375276  0.6036931850291579  0.4841619286619191  1.0000
  C   C32       1.0  0.5974476714526276  0.41466160463368607  0.4903359205596516  1.0000
  C   C33       1.0  0.45741937761982143  0.5502638747876671  0.40487359788431815  1.0000
  C   C34       1.0  0.5479203115211391  0.4672080266966887  0.5688220340282013  1.0000
  C   C35       1.0  0.5522437381674337  0.4569006508490006  0.4086979241385506  1.0000
  C   C36       1.0  0.45369068051439143  0.5601658090316092  0.5647890893456163  1.0000
  C   C37       1.0  0.004064359932520746  0.6010152210380681  0.9032498057040711  1.0000
  C   C38       1.0  0.005367470814164166  0.4062802045922069  0.0982419431168608  1.0000
  C   C39       1.0  0.9240630585790583  0.5502213157477626  0.9558121352412526  1.0000
  C   C40       1.0  0.08963481308871474  0.45503195540957364  0.04603521994814492  1.0000
  C   C41       1.0  0.9247248024026505  0.4568536113497216  0.049078943979388556  1.0000
  C   C42       1.0  0.08929147289619269  0.5504657852834357  0.9499146590508188  1.0000
  C   C43       1.0  0.8205098820519294  0.5566921096185808  0.9514981326560914  1.0000
  C   C44       1.0  0.8213015359056971  0.45048137626553586  0.057346954379418766  1.0000
  C   C45       1.0  0.4070186949819003  0.9864812470861608  0.5012758329362298  1.0000
  C   C46       1.0  0.5973105121329849  0.9955600346969433  0.49263127422693737  1.0000
  C   C47       1.0  0.4592370222941325  0.9070139372633789  0.5805543671653481  1.0000
  C   C48       1.0  0.5476791615023942  0.07394228057182055  0.41243600548312304  1.0000
  C   C49       1.0  0.5532444943420741  0.9124566979592428  0.5755732834922254  1.0000
  C   C50       1.0  0.45397005329314066  0.06856344573057538  0.4177487239194804  1.0000
  C   C51       1.0  0.18361410665212208  0.4106265318842048  0.08715176743155688  1.0000
  C   C52       1.0  0.18395729024448576  0.5922562003646306  0.9027707292530707  1.0000
  Cl  Cl1       1.0  0.21766548732444588  0.380382939927891  0.3427693770488461  1.0000
  Cl  Cl2       1.0  0.4442460103538861  0.15452643591070375  0.12599630893434008  1.0000
  Cl  Cl3       1.0  0.7936181077673724  0.19509675418134972  0.9168704577110348  1.0000
  Cl  Cl4       1.0  0.41110617632288177  0.5915053388220741  0.29938648366840676  1.0000
  Cl  Cl5       1.0  0.414387128040225  0.7994308298051108  0.6882824286344087  1.0000
  O   O1        1.0  0.9126622025919741  0.741693302460902  0.5734590511171261  1.0000
  O   O2        1.0  0.26359427155783527  0.07341128373218447  0.24297098753746127  1.0000
  O   O3        1.0  0.07398011108389108  0.26335121270217593  0.4221060799909396  1.0000
  O   O4        1.0  0.7337395549627814  0.9216178478714597  0.7653442843995177  1.0000
  O   O5        1.0  0.06622690859926185  0.7502547269239342  0.7596385670867108  1.0000
  O   O6        1.0  0.7334153210165085  0.07801413954932455  0.4176992095566448  1.0000
  O   O7        1.0  0.9199435679562669  0.27017135849383317  0.23336103287504512  1.0000
  O   O8        1.0  0.25965270248833877  0.9183770284286721  0.576173291524064  1.0000
  O   O9        1.0  0.2589658644187549  0.7431444964697178  0.41631634697314707  1.0000
  O   O10       1.0  0.9117391457524137  0.07965197662360148  0.7634980482894349  1.0000
  O   O11       1.0  0.7335151880245475  0.2728024576284155  0.571890353561315  1.0000
  O   O12       1.0  0.07083652196244848  0.9221675542545424  0.23472941921256296  1.0000
  O   O13       1.0  0.06494762108605556  0.9272117254213441  0.7674826497266025  1.0000
  O   O14       1.0  0.7366460572239076  0.27058034833959965  0.41803670628215867  1.0000
  O   O15       1.0  0.9172123821039831  0.07569090337452165  0.2374732609766211  1.0000
  O   O16       1.0  0.26270599680527346  0.7383546113214123  0.5695276512622698  1.0000
  O   O17       1.0  0.9171169776527675  0.7358293082104694  0.7683268298527112  1.0000
  O   O18       1.0  0.26554913086264514  0.07011000259352332  0.424484437608605  1.0000
  O   O19       1.0  0.06987140029665545  0.26189709657951  0.24597237832753646  1.0000
  O   O20       1.0  0.734522348543024  0.9252278891572842  0.5702521567871272  1.0000
  O   O21       1.0  0.73239099396568  0.07614272273085726  0.7650764482666261  1.0000
  O   O22       1.0  0.06586396690277495  0.7427480605632653  0.41863280574199974  1.0000
  O   O23       1.0  0.2667084933330131  0.9221889989706328  0.23638891390316985  1.0000
  O   O24       1.0  0.918478537683555  0.2702946904318821  0.5731649226466616  1.0000
  O   O25       1.0  0.7919314360847665  0.0716529070931458  0.5653717858508853  1.0000
  O   O26       1.0  0.0619677495409903  0.06874802079036607  0.5672219444894325  1.0000
  O   O27       1.0  0.06402409928657704  0.0676194251702498  0.29736402616723007  1.0000
  O   O28       1.0  0.060483865568435886  0.8015601251308055  0.5646988713815658  1.0000
  O   O29       1.0  0.1441479797747648  0.951085687457926  0.4493280313987638  1.0000
  O   O30       1.0  0.9447380095046612  0.9537535656134465  0.4487621932033005  1.0000
  O   O31       1.0  0.9460120000743826  0.1502238063721462  0.45004758751495894  1.0000
  O   O32       1.0  0.9433037091893083  0.9548316715556524  0.6466342592139681  1.0000
