data_image0
_chemical_formula_structural       Zn2H34C56N2O14
_chemical_formula_sum              "Zn2 H34 C56 N2 O14"
_cell_length_a       16.906807596214197
_cell_length_b       18.331416852730868
_cell_length_c       19.459107232347684
_cell_angle_alpha    89.9739539990236
_cell_angle_beta     90.28562448603982
_cell_angle_gamma    85.04516746162355

_space_group_name_H-M_alt    "P 1"
_space_group_IT_number       1

loop_
  _space_group_symop_operation_xyz
  'x, y, z'

loop_
  _atom_site_type_symbol
  _atom_site_label
  _atom_site_symmetry_multiplicity
  _atom_site_fract_x
  _atom_site_fract_y
  _atom_site_fract_z
  _atom_site_occupancy
  Zn  Zn1       1.0  0.5052575469713076  0.420172995697186  0.5089080721085323  1.0000
  Zn  Zn2       1.0  0.5014279790346733  0.577013464711321  0.5141125254079171  1.0000
  H   H1        1.0  0.7379719577475043  0.598882527513602  0.49700203641187807  1.0000
  H   H2        1.0  0.27063171843620637  0.4030198881236231  0.4111646350172931  1.0000
  H   H3        1.0  0.6307847700489263  0.4626323766698304  0.061875206299802685  1.0000
  H   H4        1.0  0.3642025228018539  0.5302881113698845  0.9607731650982884  1.0000
  H   H5        1.0  0.6120125725135281  0.45930098997040847  0.9362284847070866  1.0000
  H   H6        1.0  0.3825979905152649  0.5325736521321147  0.08650583887438047  1.0000
  H   H7        1.0  0.4190946797333694  0.31214863823866784  0.43180275511266325  1.0000
  H   H8        1.0  0.5774620200353978  0.6886128392437953  0.5972725274551962  1.0000
  H   H9        1.0  0.4132312807967864  0.17599238366221928  0.4284555409902067  1.0000
  H   H10       1.0  0.58214522612235  0.8244513201789871  0.597504729511563  1.0000
  H   H11       1.0  0.5988693737298547  0.15945636846658573  0.5827078044781258  1.0000
  H   H12       1.0  0.4143122333960819  0.8341001907942669  0.42846407993013713  1.0000
  H   H13       1.0  0.5969198744640066  0.29613172023648104  0.5788398040150395  1.0000
  H   H14       1.0  0.41921024916125305  0.6976107241759236  0.434160204076626  1.0000
  H   H15       1.0  0.517782721288455  0.06691193439892369  0.6178376410031916  1.0000
  H   H16       1.0  0.48450934193865436  0.9308271322958817  0.4004159335077374  1.0000
  H   H17       1.0  0.5138025515829199  0.9329310717440862  0.620706359403229  1.0000
  H   H18       1.0  0.4873574703978392  0.06494339419091229  0.3977338545033788  1.0000
  H   H19       1.0  0.2557550566024318  0.631522274211669  0.46289089397099287  1.0000
  H   H20       1.0  0.7525916665089483  0.3645800861755503  0.48122639743079526  1.0000
  H   H21       1.0  0.9914922912811761  0.5890116174620985  0.4040417515339881  1.0000
  H   H22       1.0  0.0046340140878982005  0.4228398726966489  0.41760144010818573  1.0000
  H   H23       1.0  0.45272456442801  0.5992490571907892  0.3000033689467827  1.0000
  H   H24       1.0  0.5400920181589297  0.3952482204901743  0.7217128282180454  1.0000
  H   H25       1.0  0.43619561120692646  0.5962891489381474  0.17306562809725523  1.0000
  H   H26       1.0  0.5512416091079756  0.3929185886269693  0.8493030633930301  1.0000
  H   H27       1.0  0.6080139606567271  0.4077923774363157  0.16491434551625156  1.0000
  H   H28       1.0  0.3978810905958241  0.5936109101240135  0.8582855548993817  1.0000
  H   H29       1.0  0.937434452454049  0.34811668239405685  0.37876933206019453  1.0000
  H   H30       1.0  0.042694093144312696  0.67255325739594  0.41889769128619747  1.0000
  H   H31       1.0  0.16180555121003687  0.3629844176350119  0.3644610389151238  1.0000
  H   H32       1.0  0.8402487677704968  0.6531429905247137  0.45937900338446974  1.0000
  H   H33       1.0  0.6615063548105554  0.41022955793273747  0.3498474637130471  1.0000
  H   H34       1.0  0.35268003702776696  0.602733428557343  0.6719180962139787  1.0000
  C   C1        1.0  0.4708424922548175  0.4991213686794326  0.6416560428770808  1.0000
  C   C2        1.0  0.5358554043421864  0.5052097726557958  0.3804680112149583  1.0000
  C   C3        1.0  0.4861534385428072  0.557507018977816  0.269424511310433  1.0000
  C   C4        1.0  0.5094201744184375  0.4384538798122221  0.7525105064377156  1.0000
  C   C5        1.0  0.4766218312757146  0.5551080445506642  0.1985127655971368  1.0000
  C   C6        1.0  0.515946868351989  0.4377681341972419  0.8237912504823726  1.0000
  C   C7        1.0  0.519437041223128  0.500973047704363  0.1589564759448265  1.0000
  C   C8        1.0  0.4768678239334107  0.4937707552553759  0.8636645219908559  1.0000
  C   C9        1.0  0.5729715606693873  0.4505704730837151  0.19313392638314036  1.0000
  C   C10       1.0  0.42979775028170036  0.5492536180258443  0.8296066539950786  1.0000
  C   C11       1.0  0.5824751719667987  0.45175575976409027  0.26461295298598486  1.0000
  C   C12       1.0  0.42383301494918146  0.5513825026941318  0.7578384768494286  1.0000
  C   C13       1.0  0.5375724697747161  0.5053113200681308  0.3034791418104134  1.0000
  C   C14       1.0  0.46515864573829174  0.495805312932987  0.7185551672762925  1.0000
  C   C15       1.0  0.571805780739993  0.476242041687847  0.040059463792879085  1.0000
  C   C16       1.0  0.42304374767306996  0.5161248660804674  0.9827335717583949  1.0000
  C   C17       1.0  0.5611815980244546  0.474337831082323  0.9691908417581484  1.0000
  C   C18       1.0  0.43356257824967054  0.5176240596884296  0.0536679055351925  1.0000
  C   C19       1.0  0.48671914662380555  0.494473851638979  0.939063761344805  1.0000
  C   C20       1.0  0.508212339876934  0.49808048476922545  0.08378260909608308  1.0000
  C   C21       1.0  0.4578831311384306  0.27556908874785074  0.4638737960872134  1.0000
  C   C22       1.0  0.5426667510147424  0.7234274949836674  0.5607332131852586  1.0000
  C   C23       1.0  0.6554055938098101  0.4843613552473941  0.5234459675690741  1.0000
  C   C24       1.0  0.3556479825807131  0.5068240192255188  0.4682751056915463  1.0000
  C   C25       1.0  0.4553749370809895  0.20010395331771494  0.462337834670869  1.0000
  C   C26       1.0  0.5442654535177097  0.7989830128810739  0.5607690552719973  1.0000
  C   C27       1.0  0.5052978620289535  0.1558528356634241  0.5061627633319786  1.0000
  C   C28       1.0  0.4985899027406404  0.8415261805244754  0.5124897514987266  1.0000
  C   C29       1.0  0.5571864843538634  0.19104415286768975  0.5490146382043193  1.0000
  C   C30       1.0  0.45259523832444853  0.8042807790411786  0.4660374532249988  1.0000
  C   C31       1.0  0.5567383138369094  0.2667804936246441  0.5472014794128626  1.0000
  C   C32       1.0  0.45433269552525246  0.7285137605582649  0.46904909149942847  1.0000
  C   C33       1.0  0.5116862381748247  0.03706572795857709  0.5699103414921041  1.0000
  C   C34       1.0  0.4905438157535682  0.9605312599753192  0.44844724911988  1.0000
  C   C35       1.0  0.5095831827753939  0.9614815622525369  0.5714918400451905  1.0000
  C   C36       1.0  0.49217482946419727  0.036208062694072396  0.4468643890097042  1.0000
  C   C37       1.0  0.4993534689342454  0.9218293136413964  0.5107747159413093  1.0000
  C   C38       1.0  0.5031290694283826  0.07568226430917238  0.5075504607159401  1.0000
  C   C39       1.0  0.7379121125056756  0.48196163606088743  0.4951507860962039  1.0000
  C   C40       1.0  0.2719221045714447  0.5156643991100793  0.44190443584923855  1.0000
  C   C41       1.0  0.7717308890259884  0.5476630858388987  0.4827017111049088  1.0000
  C   C42       1.0  0.23553472867890685  0.45569108303265426  0.41565029131152903  1.0000
  C   C43       1.0  0.8459426894784414  0.5485005671550879  0.45241623579716617  1.0000
  C   C44       1.0  0.15560132079023253  0.46210360803088696  0.3973237090655316  1.0000
  C   C45       1.0  0.8912913514070125  0.48240932961394367  0.4342140034786651  1.0000
  C   C46       1.0  0.10709172362296467  0.5286493220505476  0.40731458399086046  1.0000
  C   C47       1.0  0.8534768667143097  0.4163184547308703  0.4439899001738183  1.0000
  C   C48       1.0  0.1474300517594429  0.59073553562191  0.4275472225858507  1.0000
  C   C49       1.0  0.7789942362549452  0.4162882170565537  0.4748367923363829  1.0000
  C   C50       1.0  0.22814046159296453  0.5834602851229179  0.44490586653742525  1.0000
  C   C51       1.0  0.9747254866516145  0.47776436848506876  0.41586770956791946  1.0000
  C   C52       1.0  0.02086171566377708  0.5341131180667917  0.4054382479296804  1.0000
  C   C53       1.0  0.8900770537226633  0.3450714585805272  0.41808189244689936  1.0000
  C   C54       1.0  0.10666721597004883  0.6655856706901984  0.43306985028237205  1.0000
  C   C55       1.0  0.6429680881137898  0.3979780537060832  0.2965186144869705  1.0000
  C   C56       1.0  0.3710230949769412  0.6114940752658666  0.7259694187571808  1.0000
  N   N1        1.0  0.5074119807298274  0.3084658702237562  0.5057830304630712  1.0000
  N   N2        1.0  0.498711633960994  0.6886706766249587  0.5154695183809037  1.0000
  O   O1        1.0  0.47446895750672974  0.438590977962484  0.6092930740097555  1.0000
  O   O2        1.0  0.5272854315262592  0.5671429321983367  0.41008630106664856  1.0000
  O   O3        1.0  0.4749594869705618  0.5623988536071209  0.6155332794010206  1.0000
  O   O4        1.0  0.539413479918018  0.4426825653656365  0.4095919490904905  1.0000
  O   O5        1.0  0.6254589802114482  0.42379349282996515  0.5328436764397679  1.0000
  O   O6        1.0  0.38614108024455607  0.5653053311800136  0.48538209542432736  1.0000
  O   O7        1.0  0.620011793074397  0.547932746071666  0.5330946394893701  1.0000
  O   O8        1.0  0.38921644404276634  0.4419719809400606  0.47255650865032073  1.0000
  O   O9        1.0  0.8692474389471342  0.285348101617906  0.43544165725336365  1.0000
  O   O10       1.0  0.1401090212203258  0.719411937796913  0.4509362624713802  1.0000
  O   O11       1.0  0.1208850086609345  0.4032336959619087  0.3704014879252852  1.0000
  O   O12       1.0  0.8773282288169212  0.6141756448460853  0.44146045381682336  1.0000
  O   O13       1.0  0.6730534821608243  0.3439816640853337  0.26611836520645227  1.0000
  O   O14       1.0  0.3467509493997697  0.6671096979162741  0.757091692689947  1.0000
