data_image0
_chemical_formula_structural       Ho2H16C24N6O18
_chemical_formula_sum              "Ho2 H16 C24 N6 O18"
_cell_length_a       8.070260960365632
_cell_length_b       7.880724211260969
_cell_length_c       12.272190655299461
_cell_angle_alpha    78.32496209483112
_cell_angle_beta     99.08295621486911
_cell_angle_gamma    78.72030659348738

_space_group_name_H-M_alt    "P 1"
_space_group_IT_number       1

loop_
  _space_group_symop_operation_xyz
  'x, y, z'

loop_
  _atom_site_type_symbol
  _atom_site_label
  _atom_site_symmetry_multiplicity
  _atom_site_fract_x
  _atom_site_fract_y
  _atom_site_fract_z
  _atom_site_occupancy
  Ho  Ho1       1.0  0.28659430344283987  0.7036818867641299  0.47533874706150675  1.0000
  Ho  Ho2       1.0  0.7134039869804809  0.29630039138558567  0.5246533483635574  1.0000
  H   H1        1.0  0.7964714235845562  0.4130297654768355  0.9128356701196697  1.0000
  H   H2        1.0  0.2035225635482263  0.5870125758161675  0.08714069278238414  1.0000
  H   H3        1.0  0.9783349199029915  0.5440315527678122  0.7900580364073663  1.0000
  H   H4        1.0  0.021662929545506394  0.45604329152818923  0.20993612333829503  1.0000
  H   H5        1.0  0.8965043646531683  0.01206916598127349  0.8986880466255872  1.0000
  H   H6        1.0  0.1035387570983843  0.9879420039847132  0.1013797530269258  1.0000
  H   H7        1.0  0.7085381826108376  0.9000588645767774  0.028561863019398052  1.0000
  H   H8        1.0  0.29149414317161165  0.09992000382482757  0.9714847098466991  1.0000
  H   H9        1.0  0.8096071850918349  0.296853281437933  0.1224185539547804  1.0000
  H   H10       1.0  0.19041154191511822  0.7031668753998588  0.8775801772092393  1.0000
  H   H11       1.0  0.5866180247078816  0.11584628302228586  0.12934476776832332  1.0000
  H   H12       1.0  0.4133667492229308  0.8841523343320997  0.8706382815910275  1.0000
  H   H13       1.0  0.534694852239717  0.9437368698731773  0.4117184068862231  1.0000
  H   H14       1.0  0.4653133126743186  0.056261609618523785  0.5882576400379804  1.0000
  H   H15       1.0  0.6252022664416613  0.7401234906306796  0.4244182267864787  1.0000
  H   H16       1.0  0.3747878441623059  0.25987405449591705  0.5755535433062066  1.0000
  C   C1        1.0  0.41219536101390725  0.5859382726310827  0.29131313345757803  1.0000
  C   C2        1.0  0.5877799376445907  0.41402181823067247  0.7086799951956877  1.0000
  C   C3        1.0  0.520982531511116  0.5366194402711384  0.21013328291354585  1.0000
  C   C4        1.0  0.4790054989973954  0.46335495034692525  0.7898621978036859  1.0000
  C   C5        1.0  0.6102002400160914  0.3657209080439684  0.20945540347690186  1.0000
  C   C6        1.0  0.3898054278603809  0.6342625626550388  0.790537470203006  1.0000
  C   C7        1.0  0.6074524647561644  0.18782483211943907  0.27066243530263284  1.0000
  C   C8        1.0  0.39256109382490223  0.8121531328322856  0.7293337910364813  1.0000
  C   C9        1.0  0.6590322179425742  0.5673258469125744  0.07289394906279509  1.0000
  C   C10       1.0  0.3409580131100896  0.43267889659458086  0.9271031494132133  1.0000
  C   C11       1.0  0.7436841848630426  0.6445463053450027  0.985358283097398  1.0000
  C   C12       1.0  0.25631425619047826  0.3554687006477835  0.014645761197563422  1.0000
  C   C13       1.0  0.8147603202236341  0.5461720017506263  0.9134254401227367  1.0000
  C   C14       1.0  0.18523827260983694  0.4538644742046002  0.08656825214909251  1.0000
  C   C15       1.0  0.9175445216234123  0.6187236854948351  0.8451030530454703  1.0000
  C   C16       1.0  0.08245947950899082  0.3813308735875296  0.1549030429884652  1.0000
  C   C17       1.0  0.8731889147165361  0.878784504858977  0.906269893614635  1.0000
  C   C18       1.0  0.12683147757257981  0.12123968836414889  0.0937710737442359  1.0000
  C   C19       1.0  0.7658791481377634  0.8187483013931001  0.9760943226195807  1.0000
  C   C20       1.0  0.23413782273035372  0.18125509755986258  0.02393546854573001  1.0000
  C   C21       1.0  0.057591914519662245  0.4331267629485609  0.5539852687827534  1.0000
  C   C22       1.0  0.9423857062814279  0.5668596213022068  0.44601250511958324  1.0000
  C   C23       1.0  0.9790099565607803  0.9380372506298827  0.5513388651475922  1.0000
  C   C24       1.0  0.020994839684568938  0.061956668392411984  0.44865913642905053  1.0000
  N   N1        1.0  0.5490737054113309  0.659277415211015  0.1230473001066414  1.0000
  N   N2        1.0  0.45090085452253703  0.34071167238229083  0.8769500522374473  1.0000
  N   N3        1.0  0.6941721396001624  0.387772219702704  0.12008077320421513  1.0000
  N   N4        1.0  0.30583213074919513  0.6122311510758321  0.8799109854906604  1.0000
  N   N5        1.0  0.9557979621106443  0.7771381057689621  0.8466088664569612  1.0000
  N   N6        1.0  0.044215487204375785  0.22290503211122834  0.15342115852509863  1.0000
  O   O1        1.0  0.2874903134632305  0.7197598134439288  0.2635088991866682  1.0000
  O   O2        1.0  0.7124839886418499  0.2801987954824128  0.7364901738296369  1.0000
  O   O3        1.0  0.4563810050580274  0.48706647122164515  0.3941446863783754  1.0000
  O   O4        1.0  0.5436067789297425  0.512900048637796  0.6058485833148596  1.0000
  O   O5        1.0  0.6011018677633614  0.14604517487391178  0.3722078308663655  1.0000
  O   O6        1.0  0.39893408524751106  0.853931170279715  0.6277873374006475  1.0000
  O   O7        1.0  0.6114190690497522  0.06148312199887579  0.2111100944878217  1.0000
  O   O8        1.0  0.38858434812314613  0.9385073141534193  0.7888719159051549  1.0000
  O   O9        1.0  0.21658143900929622  0.4384172329478559  0.5721435278527239  1.0000
  O   O10       1.0  0.7833994605668055  0.5615638358795465  0.4278533856336679  1.0000
  O   O11       1.0  0.9871129342503198  0.3311344799555087  0.613974585722616  1.0000
  O   O12       1.0  0.012857127787000936  0.6688704248157861  0.38602709715764416  1.0000
  O   O13       1.0  0.07680146711690843  0.7833772551112971  0.5873473948821656  1.0000
  O   O14       1.0  0.9231977000166796  0.2166115076096132  0.41264875724456834  1.0000
  O   O15       1.0  0.8502060237881323  0.0016985183904196966  0.5900388434843508  1.0000
  O   O16       1.0  0.14980865802395021  0.9982938018911296  0.40996365058043693  1.0000
  O   O17       1.0  0.518484963294377  0.8214406260691759  0.4310388330361762  1.0000
  O   O18       1.0  0.48150245280625376  0.17856249052279338  0.5689247254575492  1.0000
