data_image0
_chemical_formula_structural       Zn2H6C18N2O10F4
_chemical_formula_sum              "Zn2 H6 C18 N2 O10 F4"
_cell_length_a       9.034418898605788
_cell_length_b       9.680498279173246
_cell_length_c       11.020108567034685
_cell_angle_alpha    82.69493753264227
_cell_angle_beta     79.4618069689986
_cell_angle_gamma    83.12868300550191

_space_group_name_H-M_alt    "P 1"
_space_group_IT_number       1

loop_
  _space_group_symop_operation_xyz
  'x, y, z'

loop_
  _atom_site_type_symbol
  _atom_site_label
  _atom_site_symmetry_multiplicity
  _atom_site_fract_x
  _atom_site_fract_y
  _atom_site_fract_z
  _atom_site_occupancy
  Zn  Zn1       1.0  0.48916613724994584  0.6443545737779885  0.4850049297510993  1.0000
  Zn  Zn2       1.0  0.5108229568927386  0.35564012467732903  0.5149752224526125  1.0000
  H   H1        1.0  0.6256026951432078  0.3005923800585606  0.11953689351799571  1.0000
  H   H2        1.0  0.3744109974849934  0.6993333708044532  0.8804691771627661  1.0000
  H   H3        1.0  0.33261447550611944  0.854550016581555  0.6492785186737536  1.0000
  H   H4        1.0  0.6673791390864352  0.14544808968387463  0.3507165926396425  1.0000
  H   H5        1.0  0.9853330603704223  0.3261711937131935  0.3209844429294862  1.0000
  H   H6        1.0  0.014621008486663763  0.6739919223545671  0.6788880538240251  1.0000
  C   C1        1.0  0.5052563117707934  0.5033668895690295  0.26346739205372677  1.0000
  C   C2        1.0  0.4947442023999856  0.49658822413741177  0.7365698822942548  1.0000
  C   C3        1.0  0.7952710602894371  0.47864738062892087  0.4741191242111569  1.0000
  C   C4        1.0  0.2047359602816172  0.5213615469387776  0.525891646377339  1.0000
  C   C5        1.0  0.9645869740107006  0.4738126950997667  0.4600421135112499  1.0000
  C   C6        1.0  0.03540230401132763  0.5262318403548533  0.5399432771976367  1.0000
  C   C7        1.0  0.5702429387971435  0.38866754282923216  0.06750724694368423  1.0000
  C   C8        1.0  0.42976403762655474  0.6112816731006916  0.9324696659962513  1.0000
  C   C9        1.0  0.5695475625565154  0.38507134634564716  0.9423202210626445  1.0000
  C   C10       1.0  0.4304255483587697  0.6148937886452401  0.05766109250424023  1.0000
  C   C11       1.0  0.4991672089317661  0.49590205630171613  0.8715765411063785  1.0000
  C   C12       1.0  0.5008376595275835  0.5040544515317932  0.12840010136252292  1.0000
  C   C13       1.0  0.41672859133999657  0.05968135445500168  0.5948701664640766  1.0000
  C   C14       1.0  0.5832628108193421  0.9403150746460439  0.40511700386130667  1.0000
  C   C15       1.0  0.40623880969366877  0.9198578938634795  0.5826700504978177  1.0000
  C   C16       1.0  0.5937737813999463  0.08013106643149831  0.4173259666551488  1.0000
  C   C17       1.0  0.04811691354612439  0.4048923551427777  0.35052849884365145  1.0000
  C   C18       1.0  0.9518780270510374  0.5951993806367567  0.6494363196539866  1.0000
  N   N1        1.0  0.4917301959586807  0.8617091593404426  0.48588866171638057  1.0000
  N   N2        1.0  0.5082619668316539  0.13828544723623537  0.5140939965574844  1.0000
  O   O1        1.0  0.4900358929344579  0.621057336506631  0.3061969644366017  1.0000
  O   O2        1.0  0.5100097895550064  0.3789366286992432  0.6937752231008006  1.0000
  O   O3        1.0  0.5271221365140095  0.3839750704565573  0.3250805632473757  1.0000
  O   O4        1.0  0.47283445646604605  0.6159438621167084  0.6749376090553483  1.0000
  O   O5        1.0  0.7207450409053989  0.5978896781616782  0.4656015193907167  1.0000
  O   O6        1.0  0.2792660141253762  0.40211788905928353  0.5344345663976  1.0000
  O   O7        1.0  0.7457037478224321  0.3593864264012438  0.4854589201811238  1.0000
  O   O8        1.0  0.25427245996890246  0.6406441852868453  0.5144918106391145  1.0000
  O   O9        1.0  0.172389169107774  0.432439307776299  0.2940620882836528  1.0000
  O   O10       1.0  0.8276276435489295  0.567595964709831  0.7059472765533458  1.0000
  F   F1        1.0  0.6424793414773688  0.2707745357786564  0.8899305776976265  1.0000
  F   F2        1.0  0.3574916337507972  0.729201687031356  0.11007578742643184  1.0000
  F   F3        1.0  0.33321189788873806  0.11943678734365898  0.690424234918929  1.0000
  F   F4        1.0  0.6667827678417809  0.8805770409211036  0.3095516155966963  1.0000
