data_image0
_chemical_formula_structural       Zn4H34C60S4N16O18
_chemical_formula_sum              "Zn4 H34 C60 S4 N16 O18"
_cell_length_a       18.96942679168388
_cell_length_b       19.531000921952934
_cell_length_c       19.122620071502823
_cell_angle_alpha    102.75219167899704
_cell_angle_beta     109.4864927886036
_cell_angle_gamma    111.67443730087788

_space_group_name_H-M_alt    "P 1"
_space_group_IT_number       1

loop_
  _space_group_symop_operation_xyz
  'x, y, z'

loop_
  _atom_site_type_symbol
  _atom_site_label
  _atom_site_symmetry_multiplicity
  _atom_site_fract_x
  _atom_site_fract_y
  _atom_site_fract_z
  _atom_site_occupancy
  Zn  Zn1       1.0  0.8809464159278164  0.013686067159184672  0.394777290161187  1.0000
  Zn  Zn2       1.0  0.1054080859102058  0.9843398501461992  0.5958933739045094  1.0000
  Zn  Zn3       1.0  0.11639565568616209  0.1285025313186026  0.4995593855352638  1.0000
  Zn  Zn4       1.0  0.8731891561288024  0.8735245025364123  0.4998932067006265  1.0000
  H   H1        1.0  0.6510433143368956  0.4716720818508405  0.9741174030602977  1.0000
  H   H2        1.0  0.8746263804533214  0.8644539248044792  0.6714357258826524  1.0000
  H   H3        1.0  0.6216159269680119  0.48185464298028796  0.11042854290337094  1.0000
  H   H4        1.0  0.4444682583238801  0.4952807390058069  0.8641412829483883  1.0000
  H   H5        1.0  0.9050823715039442  0.8661394995652143  0.14538650632370317  1.0000
  H   H6        1.0  0.84167668905377  0.9070302495099936  0.09733418605771484  1.0000
  H   H7        1.0  0.7933294541280915  0.8209318639101965  0.11847066729178818  1.0000
  H   H8        1.0  0.16929809678683233  0.09814118115039613  0.8904727777314889  1.0000
  H   H9        1.0  0.1110282425588167  0.1501847826747706  0.8623276648111612  1.0000
  H   H10       1.0  0.21875002260804172  0.18824990794086463  0.8756095588080227  1.0000
  H   H11       1.0  0.3969974619043128  0.40353452355486047  0.08289696541851303  1.0000
  H   H12       1.0  0.4139692201107863  0.5040926218684377  0.9999109899958823  1.0000
  H   H13       1.0  0.4919040293638092  0.3954665546211373  0.12740516120812373  1.0000
  H   H14       1.0  0.3895426071227419  0.3070707354029452  0.07198650240951575  1.0000
  H   H15       1.0  0.5825974080600888  0.5762105697722789  0.8465632301963169  1.0000
  H   H16       1.0  0.6766777667184911  0.570449947140098  0.9002352936900522  1.0000
  H   H17       1.0  0.6838349332036698  0.6657000698202038  0.9047664419379726  1.0000
  H   H18       1.0  0.12486694832082178  0.7437060366954781  0.6636058247851508  1.0000
  H   H19       1.0  0.8013402463601904  0.23913243698818573  0.4177120931708415  1.0000
  H   H20       1.0  0.25796924561754514  0.04504439327787682  0.3355615414088716  1.0000
  H   H21       1.0  0.352850310564726  0.1161948499971857  0.42763006834400125  1.0000
  H   H22       1.0  0.29646978348377223  0.15064939976364408  0.36071791662872954  1.0000
  H   H23       1.0  0.1780687519235613  0.8977237992276128  0.5067954340899162  1.0000
  H   H24       1.0  0.645879636158206  0.8924801138201485  0.5884552370747826  1.0000
  H   H25       1.0  0.7439531917053301  0.9732377414626256  0.67143593065839  1.0000
  H   H26       1.0  0.7140672011016348  0.8716123416021373  0.6617181097344726  1.0000
  H   H27       1.0  0.5757710394355371  0.6402074922930793  0.30862083163471243  1.0000
  H   H28       1.0  0.34310820837212214  0.3887493936114978  0.7261994713780097  1.0000
  H   H29       1.0  0.775796614345893  0.07927122575581794  0.459642905031977  1.0000
  H   H30       1.0  0.7243496815913987  0.8657649879763484  0.20963930193567396  1.0000
  H   H31       1.0  0.2956212291010303  0.10681335207380731  0.7655883932857036  1.0000
  H   H32       1.0  0.8639054076302343  0.6999543658143067  0.3978327217782649  1.0000
  H   H33       1.0  0.13262783491815358  0.2970402669988913  0.6113288780550334  1.0000
  H   H34       1.0  0.12696461594989467  0.15187952720573614  0.3371556068824688  1.0000
  C   C1        1.0  0.94093372983086  0.9924913194773239  0.2643851249746021  1.0000
  C   C2        1.0  0.5812938759659261  0.5517227121335821  0.9768365146605547  1.0000
  C   C3        1.0  0.5816689755565818  0.48357920339903887  0.05509854801721307  1.0000
  C   C4        1.0  0.48354850632610896  0.4922582123908513  0.9191587027791995  1.0000
  C   C5        1.0  0.6380312334461492  0.6913381609268326  0.1788752660680615  1.0000
  C   C6        1.0  0.4037359337379769  0.2811956618807656  0.7977183115201995  1.0000
  C   C7        1.0  0.4661360988106508  0.49632478166726907  0.9938542093347849  1.0000
  C   C8        1.0  0.5986146455223604  0.4790477729914358  0.9799651024687676  1.0000
  C   C9        1.0  0.564034383500811  0.5565232501704857  0.05276201779584255  1.0000
  C   C10       1.0  0.5005078040304551  0.41905708015764975  0.92130627154485  1.0000
  C   C11       1.0  0.599618637733407  0.6280503431536744  0.1203432331775431  1.0000
  C   C12       1.0  0.05709541651545891  0.023179783365925702  0.7301262425059464  1.0000
  C   C13       1.0  0.45703741294579453  0.3457837586175287  0.8533845922747217  1.0000
  C   C14       1.0  0.9920049715382432  0.6567269201008868  0.4873274132567572  1.0000
  C   C15       1.0  0.008565677454640796  0.34499431369962946  0.5215354921585059  1.0000
  C   C16       1.0  0.05710782381445511  0.8066216937084363  0.5474817278437384  1.0000
  C   C17       1.0  0.9414385508123999  0.19485899577342297  0.45813982382296803  1.0000
  C   C18       1.0  0.9952284838673009  0.5963737633456389  0.49351813380258847  1.0000
  C   C19       1.0  0.0049118432606363  0.40577705939960396  0.5175678714347  1.0000
  C   C20       1.0  0.9982604570042071  0.5310491500791343  0.5015818586879774  1.0000
  C   C21       1.0  0.001730560795323302  0.4713567669588343  0.5105191728655497  1.0000
  C   C22       1.0  0.6681800417178964  0.005734897502940079  0.5281282549213985  1.0000
  C   C23       1.0  0.9920243076844673  0.7287215201671771  0.49042911366012726  1.0000
  C   C24       1.0  0.30748772193251744  0.9857458785843534  0.4638531775982102  1.0000
  C   C25       1.0  0.6004416416662508  0.004858970581906889  0.5195787117013992  1.0000
  C   C26       1.0  0.3760293900895634  0.9874102150079265  0.4748072200202741  1.0000
  C   C27       1.0  0.5242488606160265  0.9996162248753604  0.5058053190177816  1.0000
  C   C28       1.0  0.45259623422893464  0.9929350992605775  0.49009614648893757  1.0000
  C   C29       1.0  0.007401377488861299  0.027841476927434904  0.17280123655196888  1.0000
  C   C30       1.0  0.0018684267843269958  0.9911080011201038  0.8306811927264873  1.0000
  C   C31       1.0  0.008822676274156999  0.0208181358884119  0.10767382045933259  1.0000
  C   C32       1.0  0.002611800059995099  0.9977751955136609  0.8966088612253243  1.0000
  C   C33       1.0  0.007498302225115999  0.012778298560242297  0.035786224960894196  1.0000
  C   C34       1.0  0.0074162214588042955  0.27220275038084907  0.5163454131767224  1.0000
  C   C35       1.0  0.005160128212381199  0.005595620595556704  0.9689202930426218  1.0000
  C   C36       1.0  0.20893822258116757  0.04762336643619142  0.4489137446195172  1.0000
  C   C37       1.0  0.7747503570931044  0.9521403260543764  0.5464701490289486  1.0000
  C   C38       1.0  0.7357037673998335  0.7689254514787933  0.3284137221522414  1.0000
  C   C39       1.0  0.2781370706807991  0.2169343960837153  0.6614122344217604  1.0000
  C   C40       1.0  0.17947539040370938  0.9473996322490944  0.4896631007758287  1.0000
  C   C41       1.0  0.7839974068251648  0.037307555724794404  0.48594079697333814  1.0000
  C   C42       1.0  0.73544537208965  0.8418568965399726  0.2558215176717978  1.0000
  C   C43       1.0  0.2813249326106302  0.13632190757454776  0.7251230014033682  1.0000
  C   C44       1.0  0.9264929140918028  0.7435048618556833  0.4472682617106685  1.0000
  C   C45       1.0  0.23514055857140898  0.9901445890498836  0.4622387092425697  1.0000
  C   C46       1.0  0.06996774557207168  0.25522724831113663  0.5611300149773868  1.0000
  C   C47       1.0  0.0658939312170119  0.1028889202385912  0.3220882534299108  1.0000
  C   C48       1.0  0.9336101608969826  0.9127891196052786  0.681414101582149  1.0000
  C   C49       1.0  0.005541409852987999  0.038475386448396896  0.24665975727553047  1.0000
  C   C50       1.0  0.9982686876078332  0.9786926691234896  0.7544943329158683  1.0000
  C   C51       1.0  0.851288158805545  0.8775378821574195  0.13965798591348028  1.0000
  C   C52       1.0  0.1587358540649362  0.13408090002960188  0.855344389095805  1.0000
  C   C53       1.0  0.4281880399842848  0.36662641509720123  0.07539091362090737  1.0000
  C   C54       1.0  0.6440162680685546  0.6067487494396603  0.9017635394943115  1.0000
  C   C55       1.0  0.28987310943811917  0.10404562726955652  0.3849192260290124  1.0000
  C   C56       1.0  0.7395911422498572  0.0020492337169388504  0.5259027005881763  1.0000
  C   C57       1.0  0.7122269904290803  0.9107128414102162  0.6287654171139465  1.0000
  C   C58       1.0  0.6947868900517521  0.762133573006935  0.24841110108873476  1.0000
  C   C59       1.0  0.3306238868549158  0.21438914444075152  0.732416413685378  1.0000
  C   C60       1.0  0.4840846323000392  0.4241719000584041  0.9976125579181099  1.0000
  S   S1        1.0  0.1575943565410469  0.8405369560251755  0.6256520283506788  1.0000
  S   S2        1.0  0.8478107979352885  0.1641739422162587  0.37276879901563825  1.0000
  S   S3        1.0  0.711493302920168  0.7014595185666437  0.37336391362521226  1.0000
  S   S4        1.0  0.2985874041029319  0.28831396987973795  0.6204363934929732  1.0000
  N   N1        1.0  0.9613551719140077  0.02745738965114008  0.3425872039551763  1.0000
  N   N2        1.0  0.8377895049719513  0.009434234087450524  0.4813734941626109  1.0000
  N   N3        1.0  0.7964228413324078  0.8895601631607376  0.33249712318512786  1.0000
  N   N4        1.0  0.2066233017847878  0.09861336357318612  0.6567699338558056  1.0000
  N   N5        1.0  0.9510301279856889  0.8225079449429488  0.47767305688757467  1.0000
  N   N6        1.0  0.0428094854114889  0.1754264473449538  0.530608515454233  1.0000
  N   N7        1.0  0.0393068581552356  0.09658201182840287  0.37778548516585175  1.0000
  N   N8        1.0  0.9527755977251146  0.9170708714139839  0.6211154614731811  1.0000
  N   N9        1.0  0.0295462768862151  0.9857540984332472  0.650363155832018  1.0000
  N   N10       1.0  0.03126938100676569  0.860508697560178  0.5388580321680152  1.0000
  N   N11       1.0  0.9634736278920002  0.13901815039797338  0.4683822850159274  1.0000
  N   N12       1.0  0.14518145458121273  0.039278433946570615  0.46812762896097126  1.0000
  N   N13       1.0  0.8328314847002076  0.9572646190366497  0.5196602163080185  1.0000
  N   N14       1.0  0.7965322664569356  0.8448610199004987  0.377064767402345  1.0000
  N   N15       1.0  0.2038548449260631  0.14845005285859972  0.6182820715656517  1.0000
  N   N16       1.0  0.12757892557539208  0.9781045920855503  0.494713427592906  1.0000
  O   O1        1.0  0.8656666177900333  0.9254258780734191  0.21710267521567778  1.0000
  O   O2        1.0  0.7875667522257288  0.1831552446737419  0.4076002034088829  1.0000
  O   O3        1.0  0.2382684363544314  0.10754194035489921  0.4249818019242468  1.0000
  O   O4        1.0  0.7575665465165144  0.9012094474457726  0.5833295171594487  1.0000
  O   O5        1.0  0.7077465332947953  0.627869586352027  0.3329294366546378  1.0000
  O   O6        1.0  0.7657118559785233  0.7466361553432249  0.4596917833507775  1.0000
  O   O7        1.0  0.617574883824055  0.6824391312002192  0.3622778617689804  1.0000
  O   O8        1.0  0.38349271875672025  0.3202386090426899  0.6288766890429115  1.0000
  O   O9        1.0  0.2253460732978994  0.25496125651597623  0.541965939216773  1.0000
  O   O10       1.0  0.2910223637896792  0.35935585437042766  0.6743155491425555  1.0000
  O   O11       1.0  0.13195329963586744  0.09142881139848671  0.7716389416781766  1.0000
  O   O12       1.0  0.4338140363818326  0.354553354084466  0.0011922516033636339  1.0000
  O   O13       1.0  0.6319198523295738  0.6208052796304813  0.9727087205718801  1.0000
  O   O14       1.0  0.2059957269311425  0.8115065286301686  0.5965731159458088  1.0000
  O   O15       1.0  0.19058006826367088  0.9250918302348267  0.6690279643054068  1.0000
  O   O16       1.0  0.13604034214714028  0.7992156483520461  0.6851362572900115  1.0000
  O   O17       1.0  0.8636163778021171  0.21055871479234878  0.32588838005870713  1.0000
  O   O18       1.0  0.8065381672937803  0.07730064073895451  0.33726165892657883  1.0000
