data_image0
_chemical_formula_structural       Zn8H90C84N6O32
_chemical_formula_sum              "Zn8 H90 C84 N6 O32"
_cell_length_a       19.32459960968704
_cell_length_b       19.48719691784213
_cell_length_c       19.622947293110975
_cell_angle_alpha    58.297633222795646
_cell_angle_beta     57.91264702664723
_cell_angle_gamma    57.93965901677329

_space_group_name_H-M_alt    "P 1"
_space_group_IT_number       1

loop_
  _space_group_symop_operation_xyz
  'x, y, z'

loop_
  _atom_site_type_symbol
  _atom_site_label
  _atom_site_symmetry_multiplicity
  _atom_site_fract_x
  _atom_site_fract_y
  _atom_site_fract_z
  _atom_site_occupancy
  Zn  Zn1       1.0  0.12416097379675499  0.9493756738358456  0.9619587364110984  1.0000
  Zn  Zn2       1.0  0.9602415883806398  0.12646662812994686  0.9471443681962699  1.0000
  Zn  Zn3       1.0  0.9449913223146923  0.966001416058198  0.12237826094140297  1.0000
  Zn  Zn4       1.0  0.9556477917940568  0.9607793617028262  0.9574391928533716  1.0000
  Zn  Zn5       1.0  0.3729057029921917  0.5385177260858994  0.5391352131992165  1.0000
  Zn  Zn6       1.0  0.5452772355581103  0.37191381772107224  0.5348391393565282  1.0000
  Zn  Zn7       1.0  0.5405372369038162  0.5400051690228552  0.5346234642125439  1.0000
  Zn  Zn8       1.0  0.5392408391517944  0.5411500671469726  0.37067621673649154  1.0000
  H   H1        1.0  0.2533368357367037  0.12000516677512957  0.8618469142087692  1.0000
  H   H2        1.0  0.2391187204870846  0.16622383836450896  0.7639672947439067  1.0000
  H   H3        1.0  0.10362256649855783  0.261337632160334  0.8894744858264971  1.0000
  H   H4        1.0  0.1505349350642006  0.30394938377003194  0.7783602712720141  1.0000
  H   H5        1.0  0.3636537590664373  0.26569074275001736  0.7850095375655287  1.0000
  H   H6        1.0  0.348907172113165  0.18379473734490398  0.7872485076071316  1.0000
  H   H7        1.0  0.33612733271943535  0.26456776166684637  0.6530931306973998  1.0000
  H   H8        1.0  0.24788955763700216  0.35010033086657444  0.6890020647280509  1.0000
  H   H9        1.0  0.15522829035167254  0.1844099679979578  0.06239400545260314  1.0000
  H   H10       1.0  0.1112684200740474  0.28594411914611584  0.9967435312106476  1.0000
  H   H11       1.0  0.07814939944915972  0.4132751094089571  0.8204374038814848  1.0000
  H   H12       1.0  0.03269500256887868  0.5591852918724741  0.8169868096949032  1.0000
  H   H13       1.0  0.12253938286332293  0.5952661947347551  0.8402011248497063  1.0000
  H   H14       1.0  0.26004251242362375  0.4820545099740982  0.867018639517845  1.0000
  H   H15       1.0  0.3058110816739655  0.3357219388299342  0.8705627292502672  1.0000
  H   H16       1.0  0.11370613372694281  0.8634935551141965  0.2511597239534566  1.0000
  H   H17       1.0  0.16179377928706629  0.7647249344970036  0.2366548921624768  1.0000
  H   H18       1.0  0.25840562623300634  0.8901390556163308  0.10777056186794455  1.0000
  H   H19       1.0  0.30142021369389455  0.7779813799775894  0.15183384345892398  1.0000
  H   H20       1.0  0.2563712098391092  0.7815700608770797  0.3659308370711544  1.0000
  H   H21       1.0  0.177675493789664  0.7826366850588827  0.3468653268004049  1.0000
  H   H22       1.0  0.26338456836616314  0.6460058350199632  0.338460297201074  1.0000
  H   H23       1.0  0.3468672650749979  0.6840306902249579  0.24894326558144553  1.0000
  H   H24       1.0  0.1682014652434987  0.06180761920131768  0.17694896120026735  1.0000
  H   H25       1.0  0.26948123520382683  0.0008089950956033989  0.1215098270446759  1.0000
  H   H26       1.0  0.4124848523896459  0.8152265237317237  0.08700489333192979  1.0000
  H   H27       1.0  0.5591370137871436  0.8102140845519016  0.04648886380942929  1.0000
  H   H28       1.0  0.5909463626402953  0.8359960059643042  0.13676647598743574  1.0000
  H   H29       1.0  0.4726614913620889  0.8671082233162934  0.2695485776238656  1.0000
  H   H30       1.0  0.32551095541721486  0.8717724113338718  0.31063281206059684  1.0000
  H   H31       1.0  0.2436866828429131  0.7328678585714457  0.6468178422764126  1.0000
  H   H32       1.0  0.2689424956689165  0.658301515476225  0.7389451729076273  1.0000
  H   H33       1.0  0.3920381130811136  0.7570343760356907  0.6080044074257388  1.0000
  H   H34       1.0  0.3519924500257543  0.726750684966227  0.7196725599716772  1.0000
  H   H35       1.0  0.13005909317688225  0.9073476273458994  0.7300104373762154  1.0000
  H   H36       1.0  0.15110913511183804  0.8078574814489768  0.7323033061599918  1.0000
  H   H37       1.0  0.17459625276511997  0.7411896664563216  0.8606654827979201  1.0000
  H   H38       1.0  0.2588615002907486  0.7812706949232152  0.8147548591328901  1.0000
  H   H39       1.0  0.3032382783406361  0.9286996440400087  0.4459022697782586  1.0000
  H   H40       1.0  0.3626182003998009  0.9066702436916573  0.5021566859237866  1.0000
  H   H41       1.0  0.41267315432417456  0.8107924191612526  0.6839900915630751  1.0000
  H   H42       1.0  0.45145937540135606  0.9123685515696849  0.6844218885928443  1.0000
  H   H43       1.0  0.3581017287614826  0.0671361272881938  0.6558008553356843  1.0000
  H   H44       1.0  0.2241373249977698  0.11939221497858202  0.6262505946476652  1.0000
  H   H45       1.0  0.18439144140565125  0.017540896476596388  0.6270414868050268  1.0000
  H   H46       1.0  0.8786783408015422  0.25169113568620827  0.10958811039654395  1.0000
  H   H47       1.0  0.7749265792292234  0.24473274665139397  0.1610457731649363  1.0000
  H   H48       1.0  0.9111907471721563  0.11215930822117308  0.24683976755603967  1.0000
  H   H49       1.0  0.7974292892520936  0.1480192206225723  0.2947714487183219  1.0000
  H   H50       1.0  0.7844609984731716  0.3713864348352942  0.25351564117570297  1.0000
  H   H51       1.0  0.7877161690526434  0.3484446171466188  0.17724291571362027  1.0000
  H   H52       1.0  0.6514450407523994  0.33575823643901964  0.2646388759632787  1.0000
  H   H53       1.0  0.6943712178304793  0.2466832548728134  0.34395363250374805  1.0000
  H   H54       1.0  0.06748342370042337  0.2080617756520411  0.19233727998648936  1.0000
  H   H55       1.0  0.004886425388811175  0.15057246225478593  0.2855811920747797  1.0000
  H   H56       1.0  0.8370376951152991  0.08393122462199898  0.40121248995006936  1.0000
  H   H57       1.0  0.8284487151168065  0.04340171956638269  0.5466239723390133  1.0000
  H   H58       1.0  0.83705196416539  0.14083103256546536  0.5852499535503314  1.0000
  H   H59       1.0  0.8536173049209307  0.28141620076915064  0.47521300923194354  1.0000
  H   H60       1.0  0.8616618373410742  0.32262883858785335  0.32955907442897114  1.0000
  H   H61       1.0  0.6393760669580643  0.25165322799323064  0.7328131106189774  1.0000
  H   H62       1.0  0.7386522203571739  0.2675303023471899  0.6630977015622154  1.0000
  H   H63       1.0  0.6038768387078477  0.39603082080674307  0.7562670884523471  1.0000
  H   H64       1.0  0.7176290322596727  0.3559202577204347  0.7266446327334819  1.0000
  H   H65       1.0  0.7226265235792511  0.1376454465819066  0.907496052780502  1.0000
  H   H66       1.0  0.7232182004950188  0.15722443085063276  0.8100590088912444  1.0000
  H   H67       1.0  0.8577606035829817  0.17354559668371655  0.7416736286401504  1.0000
  H   H68       1.0  0.8150196458692489  0.2595497831576736  0.7774343159309963  1.0000
  H   H69       1.0  0.43531018321989  0.3143791401204226  0.9335648914819786  1.0000
  H   H70       1.0  0.4968657508565427  0.3662971655259284  0.9165047727192146  1.0000
  H   H71       1.0  0.6815075154124697  0.41739477556963317  0.8082831361783321  1.0000
  H   H72       1.0  0.6846384670825855  0.456725065059139  0.90695481175856  1.0000
  H   H73       1.0  0.6574927699580967  0.3651729117310651  0.060354636764095984  1.0000
  H   H74       1.0  0.626598147717672  0.2325898058422027  0.11404797496075504  1.0000
  H   H75       1.0  0.6242154758475846  0.19258091015574053  0.01521095251688119  1.0000
  H   H76       1.0  0.7398544242601586  0.6391448601871943  0.24411514260368958  1.0000
  H   H77       1.0  0.667750605382764  0.7362458735668087  0.262749963623051  1.0000
  H   H78       1.0  0.764496013632254  0.6036541161459822  0.387048573253992  1.0000
  H   H79       1.0  0.7331555778111821  0.7160120412742471  0.34889925030136487  1.0000
  H   H80       1.0  0.9172082470642733  0.7256559369444987  0.13170865089324485  1.0000
  H   H81       1.0  0.8199847504794348  0.7239943838354889  0.14885210313948252  1.0000
  H   H82       1.0  0.7414226363699044  0.8523018759742553  0.17752740578735166  1.0000
  H   H83       1.0  0.785228212693134  0.8119234730403235  0.25624315702823697  1.0000
  H   H84       1.0  0.9416706308272248  0.43892454665125774  0.3012363240172322  1.0000
  H   H85       1.0  0.9210460492882573  0.49775793656127126  0.3570103714737274  1.0000
  H   H86       1.0  0.8162139440068042  0.6867552244804003  0.4051680594796567  1.0000
  H   H87       1.0  0.9179897008080927  0.6882458162827092  0.44329430114828483  1.0000
  H   H88       1.0  0.07573320618674012  0.6531571402572495  0.35487490547002665  1.0000
  H   H89       1.0  0.1306066107640831  0.6169949891390659  0.22594093337725946  1.0000
  H   H90       1.0  0.028472943001304395  0.6171632094672218  0.1866101809643084  1.0000
  C   C1        1.0  0.13975267839766298  0.1209095063462797  0.8710354329402108  1.0000
  C   C2        1.0  0.20432979397783407  0.1648338715690939  0.830692607028354  1.0000
  C   C3        1.0  0.16602393199347884  0.25453005384216  0.8360262064191631  1.0000
  C   C4        1.0  0.2286772325370379  0.27160934690191846  0.8474201700233338  1.0000
  C   C5        1.0  0.3198273315630899  0.25271199174233777  0.7775055293918742  1.0000
  C   C6        1.0  0.31459944582908855  0.30696266971372677  0.6868865994800687  1.0000
  C   C7        1.0  0.370513520313871  0.36271268291345377  0.6304375450186016  1.0000
  C   C8        1.0  0.23326837716304974  0.2068440481852321  0.9371610118777272  1.0000
  C   C9        1.0  0.19592926809067984  0.3633514243244704  0.8450831898544423  1.0000
  C   C10       1.0  0.11891704790842535  0.4273780761260255  0.8305104836759584  1.0000
  C   C11       1.0  0.09283116113952142  0.5103178016694373  0.8286778503374637  1.0000
  C   C12       1.0  0.1430892596026964  0.5305982978652041  0.8416547989710566  1.0000
  C   C13       1.0  0.21999403530367795  0.4671731694297137  0.8566497537683163  1.0000
  C   C14       1.0  0.2458345269599604  0.38479321749786527  0.8583558627139354  1.0000
  C   C15       1.0  0.1179566731346354  0.8721206479664971  0.1381101424492996  1.0000
  C   C16       1.0  0.16055942927921038  0.8315890108254608  0.2029927695326846  1.0000
  C   C17       1.0  0.250838907613719  0.83589365356584  0.1680833621999015  1.0000
  C   C18       1.0  0.2658839219148419  0.8451420344869617  0.2326469100926829  1.0000
  C   C19       1.0  0.24691860327324372  0.7735626950082873  0.3205031655391723  1.0000
  C   C20       1.0  0.30459663400500847  0.6823994125913515  0.31476676206637694  1.0000
  C   C21       1.0  0.3627619483586386  0.6292689673589038  0.36761552697341654  1.0000
  C   C22       1.0  0.19831741041170384  0.9336805653803211  0.242944753867846  1.0000
  C   C23       1.0  0.3578142856534468  0.8432123713293366  0.20240615908986107  1.0000
  C   C24       1.0  0.4246678587720111  0.8264146602711551  0.12792989058343088  1.0000
  C   C25       1.0  0.5080428082646192  0.8237113980463207  0.1046328088670593  1.0000
  C   C26       1.0  0.5259130484697961  0.8381539953726432  0.1551354014692236  1.0000
  C   C27       1.0  0.4596427664808472  0.855526044849519  0.229423136874388  1.0000
  C   C28       1.0  0.37684645423941976  0.8579787742356686  0.25254505311179554  1.0000
  C   C29       1.0  0.36221636946579855  0.6314905954039388  0.6254277970419935  1.0000
  C   C30       1.0  0.2973248365062274  0.6956619583074612  0.6718561194582481  1.0000
  C   C31       1.0  0.3324668443873407  0.7544734578969068  0.6645527177893485  1.0000
  C   C32       1.0  0.26435881099529  0.8464211008241236  0.6591039115867121  1.0000
  C   C33       1.0  0.17851663958583672  0.842181090947122  0.7359411784347929  1.0000
  C   C34       1.0  0.19138622556669563  0.7999890774419994  0.8223790228651496  1.0000
  C   C35       1.0  0.13414358327784726  0.8576303128685082  0.8760762092919024  1.0000
  C   C36       1.0  0.24593967380972967  0.883376884066365  0.5759446332000523  1.0000
  C   C37       1.0  0.2951029821713858  0.9062824191681073  0.6560366020799933  1.0000
  C   C38       1.0  0.3705966737878865  0.8782518173746184  0.6712822457874239  1.0000
  C   C39       1.0  0.3929642804812231  0.9358379212040759  0.6713044288288756  1.0000
  C   C40       1.0  0.34065105052476946  0.022543336869027496  0.6553991002522963  1.0000
  C   C41       1.0  0.2655963359090876  0.05164233259004899  0.6391298860006601  1.0000
  C   C42       1.0  0.2432571206186435  0.9941331978833361  0.6396585285078873  1.0000
  C   C43       1.0  0.8751750145313437  0.14184363255781562  0.11734222841683789  1.0000
  C   C44       1.0  0.8432785240889941  0.20657999483997  0.1572794128149226  1.0000
  C   C45       1.0  0.8522459155933787  0.16985422170117204  0.24397456575334792  1.0000
  C   C46       1.0  0.8550046076756671  0.23665824842259306  0.262442768930107  1.0000
  C   C47       1.0  0.7796366697898448  0.3231583036985128  0.24474764382566158  1.0000
  C   C48       1.0  0.689345169170579  0.31362847558621343  0.30341865463984874  1.0000
  C   C49       1.0  0.6345205478594805  0.3668233588482224  0.36153728635331117  1.0000
  C   C50       1.0  0.9432967229877817  0.25065436738317715  0.19888890181233188  1.0000
  C   C51       1.0  0.8495111681025377  0.2067436949002186  0.35409964855409015  1.0000
  C   C52       1.0  0.840330326244519  0.12820922659785342  0.41643311218012996  1.0000
  C   C53       1.0  0.8357131100835459  0.10485042580899062  0.49911776540613334  1.0000
  C   C54       1.0  0.8405806945328607  0.15933279669297207  0.5208077662671683  1.0000
  C   C55       1.0  0.8500121275699895  0.23787118636199975  0.4591571256896006  1.0000
  C   C56       1.0  0.8542912610230928  0.2610803047415827  0.377100249086851  1.0000
  C   C57       1.0  0.6297708095932463  0.36504060140612893  0.6274183003810664  1.0000
  C   C58       1.0  0.6700016302271476  0.300872779836709  0.69585119647563  1.0000
  C   C59       1.0  0.6613103790001629  0.33690185103618125  0.7540816632210936  1.0000
  C   C60       1.0  0.6539624742326638  0.2709305123055046  0.8458818715155658  1.0000
  C   C61       1.0  0.7296215262364497  0.18422204620109278  0.842409969073515  1.0000
  C   C62       1.0  0.8198430309904549  0.1932372525314392  0.7985529242814169  1.0000
  C   C63       1.0  0.873447303251872  0.13704405646956994  0.8559704327189763  1.0000
  C   C64       1.0  0.567001243207656  0.25659435417043847  0.8827174247156935  1.0000
  C   C65       1.0  0.653293301161952  0.30145539176165664  0.9039603003069417  1.0000
  C   C66       1.0  0.6694628972740375  0.3760910853904208  0.8751191902867463  1.0000
  C   C67       1.0  0.671038309251159  0.3987650796722236  0.9310724365766561  1.0000
  C   C68       1.0  0.6558844133415603  0.34754145487588783  0.016988865427698736  1.0000
  C   C69       1.0  0.6387959920558755  0.27327958350038273  0.04693008112176505  1.0000
  C   C70       1.0  0.6376363743426977  0.2507373337675105  0.9910464423849065  1.0000
  C   C71       1.0  0.633723763596336  0.6273573027499426  0.35875614689388136  1.0000
  C   C72       1.0  0.7022974220658397  0.668544010264739  0.29412977832920023  1.0000
  C   C73       1.0  0.7616286157073447  0.6605662541839692  0.32900388458696045  1.0000
  C   C74       1.0  0.8547675385606937  0.6543109648055889  0.2622770907545232  1.0000
  C   C75       1.0  0.8507203169239119  0.7305267547301282  0.17762382460094975  1.0000
  C   C76       1.0  0.8025194900916829  0.8184309173788051  0.1906654848970677  1.0000
  C   C77       1.0  0.8548558446973901  0.8775494451851884  0.13227893664900126  1.0000
  C   C78       1.0  0.892628420505737  0.5694303905001449  0.24523195238304407  1.0000
  C   C79       1.0  0.9144749537039446  0.6522633421762761  0.2925516744929054  1.0000
  C   C80       1.0  0.8849350711777644  0.6714481136280951  0.36510243980839613  1.0000
  C   C81       1.0  0.9426267422336775  0.6720362888838666  0.3871442397485295  1.0000
  C   C82       1.0  0.030987421612188388  0.6525934143475992  0.33753784308878926  1.0000
  C   C83       1.0  0.06158829063484451  0.6325561779110983  0.2653415526911758  1.0000
  C   C84       1.0  0.00391883329443481  0.6326955094722565  0.24325740320524153  1.0000
  N   N1        1.0  0.163118753747014  0.2306107862396942  0.004034757173783989  1.0000
  N   N2        1.0  0.21524718205346724  0.0038149123200951983  0.1747489401243882  1.0000
  N   N3        1.0  0.31257196797577785  0.9027344846223074  0.5019146588760394  1.0000
  N   N4        1.0  0.013866667591187801  0.19128651710607159  0.22413122438509703  1.0000
  N   N5        1.0  0.49351532989155783  0.3213442847437022  0.9079666307970131  1.0000
  N   N6        1.0  0.9146193338760111  0.49589065355078066  0.3100983978503255  1.0000
  O   O1        1.0  0.9967756626079017  0.0008975147472511956  0.997472755584461  1.0000
  O   O2        1.0  0.058650385496889584  0.16513969098858183  0.894606304471232  1.0000
  O   O3        1.0  0.17296983061854118  0.041754525330077306  0.8783045617270633  1.0000
  O   O4        1.0  0.45067569256810475  0.3262204466177252  0.6231759098916427  1.0000
  O   O5        1.0  0.33275408558373704  0.44195496288610764  0.5936256129187215  1.0000
  O   O6        1.0  0.2927331705548752  0.13636780634112708  0.9482919277506171  1.0000
  O   O7        1.0  0.16297348959005106  0.8969997964981999  0.05886879704594616  1.0000
  O   O8        1.0  0.038539752220486834  0.878312805478231  0.1693930925942553  1.0000
  O   O9        1.0  0.3265125824841986  0.6236886618518015  0.4459876329683752  1.0000
  O   O10       1.0  0.4434241505581226  0.5933460523755444  0.3296976105677201  1.0000
  O   O11       1.0  0.13132239769120677  0.9410378546711018  0.3065186203923742  1.0000
  O   O12       1.0  0.4426547883441573  0.6222022861156802  0.5935598193445485  1.0000
  O   O13       1.0  0.32927763577386304  0.5918423778677351  0.6221297063069715  1.0000
  O   O14       1.0  0.05433234794092793  0.8954686241477463  0.8822868424069129  1.0000
  O   O15       1.0  0.17008056622100284  0.8633122235532511  0.9109517189892814  1.0000
  O   O16       1.0  0.17866332455194797  0.8903281143800684  0.5760436893287776  1.0000
  O   O17       1.0  0.8973345643878828  0.061968854012448595  0.16177060839765295  1.0000
  O   O18       1.0  0.8771681262534085  0.1737528095059702  0.04079328257792969  1.0000
  O   O19       1.0  0.6271559712142718  0.44596563730137  0.3260841056801169  1.0000
  O   O20       1.0  0.5994544719478795  0.32871370547871237  0.44076792285464733  1.0000
  O   O21       1.0  0.9515282654177922  0.3081698755641185  0.12826120596465526  1.0000
  O   O22       1.0  0.598780729934809  0.4448605541680593  0.6171163067809787  1.0000
  O   O23       1.0  0.6300562465297402  0.3323264329067043  0.5854915928244112  1.0000
  O   O24       1.0  0.8801644362115794  0.05810442839003119  0.8925942011804722  1.0000
  O   O25       1.0  0.9075221815329754  0.1729929010186666  0.8629425024357718  1.0000
  O   O26       1.0  0.5638184012923091  0.1944214520851872  0.8838639072975246  1.0000
  O   O27       1.0  0.6232873745906459  0.5980872694862781  0.4377262963964482  1.0000
  O   O28       1.0  0.5920069570144618  0.6251798959390199  0.32732582454709547  1.0000
  O   O29       1.0  0.8909650346299143  0.8846700983426814  0.05356257094592827  1.0000
  O   O30       1.0  0.8583234172045591  0.9155436892816837  0.16657495343734036  1.0000
  O   O31       1.0  0.8974849871532625  0.5676432910250425  0.18092193273029977  1.0000
  O   O32       1.0  0.5005183219057016  0.4980278428507603  0.49564775415661466  1.0000
