data_image0
_chemical_formula_structural       Zn2H14C52N12O28F10
_chemical_formula_sum              "Zn2 H14 C52 N12 O28 F10"
_cell_length_a       17.238381316589827
_cell_length_b       18.369746612697963
_cell_length_c       19.500283795979318
_cell_angle_alpha    88.41023047087486
_cell_angle_beta     87.58874055059454
_cell_angle_gamma    84.275336829091

_space_group_name_H-M_alt    "P 1"
_space_group_IT_number       1

loop_
  _space_group_symop_operation_xyz
  'x, y, z'

loop_
  _atom_site_type_symbol
  _atom_site_label
  _atom_site_symmetry_multiplicity
  _atom_site_fract_x
  _atom_site_fract_y
  _atom_site_fract_z
  _atom_site_occupancy
  Zn  Zn1       1.0  0.4937392771520875  0.4216144730507523  0.5151405046705904  1.0000
  Zn  Zn2       1.0  0.49329058709354007  0.5768087266374806  0.4988651585536417  1.0000
  H   H1        1.0  0.27103693703323717  0.6002479302371242  0.4075011184338422  1.0000
  H   H2        1.0  0.7571183104667654  0.37237513225170454  0.509672546925465  1.0000
  H   H3        1.0  0.9897177322038573  0.5920352289993575  0.42880635040401677  1.0000
  H   H4        1.0  0.0046494631599287815  0.4230705277372806  0.4325553335107699  1.0000
  H   H5        1.0  0.8986175723205034  0.37060354503124426  0.47767479195002244  1.0000
  H   H6        1.0  0.13142734669987985  0.6124302279873747  0.3776229757964131  1.0000
  H   H7        1.0  0.45648633896411167  0.3783269649123469  0.29777863856408976  1.0000
  H   H8        1.0  0.5924552387165462  0.5460068118802467  0.7215681663490727  1.0000
  H   H9        1.0  0.6069350900539162  0.3109145124179449  0.4654644639596199  1.0000
  H   H10       1.0  0.6192344369086696  0.6675482763254122  0.5040880092316371  1.0000
  H   H11       1.0  0.6284485710489703  0.17562880788558027  0.4458475576035141  1.0000
  H   H12       1.0  0.6434876245216186  0.7998420189238827  0.5088260289642079  1.0000
  H   H13       1.0  0.5361261938126275  0.05904040055768429  0.6012825375238151  1.0000
  H   H14       1.0  0.5308823165738159  0.9320161479984533  0.3805437128666327  1.0000
  C   C1        1.0  0.4794776847465981  0.524752765594819  0.6356064843802544  1.0000
  C   C2        1.0  0.506161548060895  0.4829611266950096  0.3743674117444939  1.0000
  C   C3        1.0  0.6446133757367676  0.48467133011853736  0.49798431454185993  1.0000
  C   C4        1.0  0.3447145610813393  0.505008952625097  0.49584792024314334  1.0000
  C   C5        1.0  0.7280137299892218  0.4822539972613953  0.47313336342135404  1.0000
  C   C6        1.0  0.25957806155408036  0.5135115363182335  0.4819886145746466  1.0000
  C   C7        1.0  0.7578862160235926  0.5420334623913092  0.43865935128843603  1.0000
  C   C8        1.0  0.20686291692053518  0.47029489214565945  0.5157566643495529  1.0000
  C   C9        1.0  0.8362111019110327  0.5400088711970452  0.417567354224893  1.0000
  C   C10       1.0  0.12844640880660307  0.4778813481318381  0.49981862298381685  1.0000
  C   C11       1.0  0.8895908387750352  0.47949740606524216  0.43340617402526493  1.0000
  C   C12       1.0  0.09928896437934746  0.5280669571733724  0.449094143124114  1.0000
  C   C13       1.0  0.8584704003318251  0.41828029606884337  0.4650167307757301  1.0000
  C   C14       1.0  0.15238264045107996  0.5725026773380792  0.41666893498580043  1.0000
  C   C15       1.0  0.779857364879831  0.4195840607332357  0.48384400652994947  1.0000
  C   C16       1.0  0.23052760163349004  0.5654093335482743  0.4329266421450769  1.0000
  C   C17       1.0  0.9742866306269632  0.47809325200466196  0.4293250111855613  1.0000
  C   C18       1.0  0.016560107796536282  0.5357672587426875  0.43326927565743034  1.0000
  C   C19       1.0  0.5249868795731203  0.541689549596576  0.2564435666834939  1.0000
  C   C20       1.0  0.4034089751789479  0.5081780760243575  0.7490704730335552  1.0000
  C   C21       1.0  0.5159036425950417  0.5420341619348575  0.18598091753278823  1.0000
  C   C22       1.0  0.402584438598083  0.5014733550698338  0.8209060131776127  1.0000
  C   C23       1.0  0.48598451327911346  0.4845481646196248  0.1534187051339799  1.0000
  C   C24       1.0  0.46907919145472476  0.5092389669907503  0.857729357213316  1.0000
  C   C25       1.0  0.4661848441759703  0.425860745176351  0.1957256967424854  1.0000
  C   C26       1.0  0.5360219415824118  0.5254431870286211  0.8195572771928356  1.0000
  C   C27       1.0  0.4741529682734651  0.4240648766394983  0.26620546193831973  1.0000
  C   C28       1.0  0.5385916426450521  0.5337728161757056  0.748645201577574  1.0000
  C   C29       1.0  0.5034688695574088  0.4826159641478611  0.297470500544101  1.0000
  C   C30       1.0  0.47195199004845273  0.5245729651807238  0.7130731271564912  1.0000
  C   C31       1.0  0.5208728207875736  0.4374279238390172  0.03552385897047829  1.0000
  C   C32       1.0  0.42447308172950216  0.5494315598968383  0.9762327880604289  1.0000
  C   C33       1.0  0.5171112499347926  0.44408072843951624  0.9644056475403319  1.0000
  C   C34       1.0  0.4287128237089559  0.543162693503824  0.0473375842876322  1.0000
  C   C35       1.0  0.4693672568897824  0.5005594367400474  0.9332464812951856  1.0000
  C   C36       1.0  0.47750381112513907  0.48745174817786124  0.0784203459387172  1.0000
  C   C37       1.0  0.564581329678873  0.27380159030331447  0.48367049951110636  1.0000
  C   C38       1.0  0.5732604335668083  0.7115089424596092  0.4949495575610286  1.0000
  C   C39       1.0  0.5754674851544975  0.1990640015141736  0.472584807243237  1.0000
  C   C40       1.0  0.5857689549626668  0.7848548820943151  0.4980230573438789  1.0000
  C   C41       1.0  0.5181467979966216  0.15447354844913969  0.49575824591790507  1.0000
  C   C42       1.0  0.5235426623371991  0.8386778559048408  0.4889538615459728  1.0000
  C   C43       1.0  0.4521297886738082  0.1885026414194328  0.5304539399338069  1.0000
  C   C44       1.0  0.45203280377595684  0.8151811802842488  0.4721643993486778  1.0000
  C   C45       1.0  0.4470274206758233  0.26330803310877826  0.5416041003125613  1.0000
  C   C46       1.0  0.44528784739839716  0.7406960402991415  0.46754024755230017  1.0000
  C   C47       1.0  0.5342697644605108  0.03240242868758261  0.5522297863954293  1.0000
  C   C48       1.0  0.5314622843788468  0.958951141265061  0.429597724037535  1.0000
  C   C49       1.0  0.5352393018709236  0.956691551129154  0.5521088729929104  1.0000
  C   C50       1.0  0.5282262608338684  0.03488740397437339  0.42994077435539424  1.0000
  C   C51       1.0  0.5315551374009216  0.9183581221375194  0.4913665429784047  1.0000
  C   C52       1.0  0.5274840134906215  0.07354579524575659  0.4909654579635969  1.0000
  N   N1        1.0  0.5014083338997963  0.3054508751039435  0.5186712143554288  1.0000
  N   N2        1.0  0.5033152328922983  0.6896382198769117  0.4805914988252482  1.0000
  N   N3        1.0  0.38983960333664663  0.14351595166583306  0.5560767080009797  1.0000
  N   N4        1.0  0.3841911983031279  0.8691126937101501  0.46013648365762805  1.0000
  N   N5        1.0  0.37860124053747773  0.29807332748682563  0.5822649398158292  1.0000
  N   N6        1.0  0.36981863947566745  0.7155913073593894  0.44798581353273903  1.0000
  N   N7        1.0  0.5358926440589256  0.9182889563077482  0.6201208326220495  1.0000
  N   N8        1.0  0.5211859479322525  0.07410753756212068  0.3625872305924176  1.0000
  N   N9        1.0  0.07556129744104817  0.4348883525084517  0.542429554140675  1.0000
  N   N10       1.0  0.8610147830149018  0.6034220194439965  0.3772997042764104  1.0000
  N   N11       1.0  0.5612352513254918  0.6043300429589279  0.283488913011368  1.0000
  N   N12       1.0  0.3336262502699511  0.4979380321949236  0.7109562497694739  1.0000
  O   O1        1.0  0.49006594000388753  0.46094129827312713  0.6112876952354541  1.0000
  O   O2        1.0  0.5158769601929549  0.5441283059837332  0.3998298806114775  1.0000
  O   O3        1.0  0.48013394659987096  0.585486581968105  0.6036935929827436  1.0000
  O   O4        1.0  0.49684598808298114  0.4235799465159502  0.4070554985997035  1.0000
  O   O5        1.0  0.6143741859346007  0.4240184740003272  0.5027508675358945  1.0000
  O   O6        1.0  0.37953814968433613  0.5629266399503124  0.4898169695153883  1.0000
  O   O7        1.0  0.6101225965981385  0.5469087194851809  0.5129813738530729  1.0000
  O   O8        1.0  0.37602831821212124  0.44099396347094455  0.5096130334110995  1.0000
  O   O9        1.0  0.38048515954687895  0.13800265737989997  0.6190920542618203  1.0000
  O   O10       1.0  0.35568535591207245  0.11340846113062497  0.5122735942603854  1.0000
  O   O11       1.0  0.34990083889005763  0.8633640915606903  0.4065020022912336  1.0000
  O   O12       1.0  0.36877650272676005  0.9159917578974375  0.5041403035829718  1.0000
  O   O13       1.0  0.31440653669130103  0.28258956649005995  0.5650000167320925  1.0000
  O   O14       1.0  0.393631955194202  0.33643825408270095  0.6295819833302403  1.0000
  O   O15       1.0  0.31398455524437446  0.7290736875619784  0.48870510513722826  1.0000
  O   O16       1.0  0.3711826644612086  0.6846466108351025  0.3928286674965946  1.0000
  O   O17       1.0  0.5105485280007968  0.8575539851220383  0.6236570999635092  1.0000
  O   O18       1.0  0.5614064801502605  0.950101388842917  0.6680869349579339  1.0000
  O   O19       1.0  0.48769703679996457  0.13692723130807138  0.362691014053695  1.0000
  O   O20       1.0  0.5490218717318528  0.0408595496756448  0.3116394206353448  1.0000
  O   O21       1.0  0.07977590840712878  0.36828652715456656  0.5325722934139421  1.0000
  O   O22       1.0  0.03119795160790059  0.46869626039563866  0.5844867052863094  1.0000
  O   O23       1.0  0.8855971969381072  0.5920073474504405  0.3177935168876971  1.0000
  O   O24       1.0  0.8552251537748459  0.6631545259310201  0.4060888357050345  1.0000
  O   O25       1.0  0.6312811785513474  0.5933815819785833  0.2953211150202222  1.0000
  O   O26       1.0  0.5198507171943945  0.6628219274340169  0.2885189103855836  1.0000
  O   O27       1.0  0.3267033850214247  0.5320751493735898  0.6552910468235638  1.0000
  O   O28       1.0  0.28737501028356854  0.4565332418846993  0.7361834459858159  1.0000
  F   F1        1.0  0.7110123836856631  0.602854865674658  0.4225432582725475  1.0000
  F   F2        1.0  0.22910684276602916  0.4233757654344573  0.5669581829159256  1.0000
  F   F3        1.0  0.5692475239671424  0.38306368182966816  0.0631291283908411  1.0000
  F   F4        1.0  0.3777063785408643  0.6049731438211268  0.9486570746593159  1.0000
  F   F5        1.0  0.5609548825187289  0.3950634762052232  0.9250476103431707  1.0000
  F   F6        1.0  0.38514676836715006  0.5922733692334319  0.08676135611362669  1.0000
  F   F7        1.0  0.5386469342843653  0.5988811302561531  0.14730609899658018  1.0000
  F   F8        1.0  0.33731378687922126  0.4879851783293603  0.8571477103750667  1.0000
  F   F9        1.0  0.43645244445566067  0.3693384932574801  0.1662585365253335  1.0000
  F   F10       1.0  0.6010299837734648  0.5340688443281322  0.8538527083188185  1.0000
