data_image0
_chemical_formula_structural       Zn4H24C72N16Cl2F14
_chemical_formula_sum              "Zn4 H24 C72 N16 Cl2 F14"
_cell_length_a       19.569241504036547
_cell_length_b       19.94137369854596
_cell_length_c       19.83243830752727
_cell_angle_alpha    68.2919297592048
_cell_angle_beta     69.0902568845355
_cell_angle_gamma    105.80821269334763

_space_group_name_H-M_alt    "P 1"
_space_group_IT_number       1

loop_
  _space_group_symop_operation_xyz
  'x, y, z'

loop_
  _atom_site_type_symbol
  _atom_site_label
  _atom_site_symmetry_multiplicity
  _atom_site_fract_x
  _atom_site_fract_y
  _atom_site_fract_z
  _atom_site_occupancy
  Zn  Zn1       1.0  0.8872619852051784  0.0006365519668990259  0.6048608743867449  1.0000
  Zn  Zn2       1.0  0.10764821455985901  0.005284691790521387  0.39536875055526377  1.0000
  Zn  Zn3       1.0  0.9980799162566286  0.8973079191604327  0.6024679862512631  1.0000
  Zn  Zn4       1.0  0.9982693796550351  0.1075786446713567  0.39608507324938125  1.0000
  H   H1        1.0  0.01929726055665527  0.6095239323365291  0.4080462735781296  1.0000
  H   H2        1.0  0.5861256243397363  0.9865278062269878  0.4302751169613048  1.0000
  H   H3        1.0  0.26688312547412363  0.20113131380713878  0.7633871358360979  1.0000
  H   H4        1.0  0.9764065224247604  0.048180440193263604  0.9940417750691709  1.0000
  H   H5        1.0  0.1812824375265408  0.2640334639959931  0.8507569891457721  1.0000
  H   H6        1.0  0.061852200617195895  0.9851424043041207  0.9064052998240937  1.0000
  H   H7        1.0  0.12355251865332675  0.819127821376462  0.6412067778757448  1.0000
  H   H8        1.0  0.8775605799885114  0.0020759266982537067  0.3569637460721467  1.0000
  H   H9        1.0  0.9742048508515354  0.27278804218322966  0.3643864831322646  1.0000
  H   H10       1.0  0.864491408701433  0.7364295523090548  0.6298804999040616  1.0000
  H   H11       1.0  0.8197654842401646  0.12852365165787225  0.6370240618357387  1.0000
  H   H12       1.0  0.7326135602204076  0.3903394925532524  0.5778039560216613  1.0000
  H   H13       1.0  0.009506149582037457  0.8821098987553171  0.35616198632516216  1.0000
  H   H14       1.0  0.14012043987168715  0.004018694034229567  0.6159167136807467  1.0000
  H   H15       1.0  0.021594973027205838  0.16501004532748453  0.20260643145635973  1.0000
  H   H16       1.0  0.9549886071359169  0.4592601117693463  0.558064669891266  1.0000
  H   H17       1.0  0.7969762665081177  0.5402719024928047  0.4275679412661476  1.0000
  H   H18       1.0  0.6282351330462035  0.5367171138270379  0.16827684803818252  1.0000
  H   H19       1.0  0.40463858035742817  0.5064750434208705  0.10426606588981721  1.0000
  H   H20       1.0  0.4925067241243324  0.6409144329768706  0.11119185220792371  1.0000
  H   H21       1.0  0.5408522208170652  0.40231090105099543  0.16120187795787916  1.0000
  H   H22       1.0  0.5433843365234309  0.7874793273459486  0.4110802306770369  1.0000
  H   H23       1.0  0.428459628801754  0.8990104674544029  0.5807761994511154  1.0000
  H   H24       1.0  0.386803123617071  0.7002819060338298  0.5614348465374945  1.0000
  C   C1        1.0  0.02419612210529474  0.09473891509848201  0.6200068638902607  1.0000
  C   C2        1.0  0.7961596579338347  0.43933765706995587  0.5397119154938964  1.0000
  C   C3        1.0  0.9203567635683004  0.4778552174243205  0.52879134687295  1.0000
  C   C4        1.0  0.831684362340063  0.5221815588120435  0.45697635857758456  1.0000
  C   C5        1.0  0.8812505342472646  0.29737331206253964  0.500105977607973  1.0000
  C   C6        1.0  0.8958306410539196  0.7068787477407527  0.4884752482219314  1.0000
  C   C7        1.0  0.9102308084842292  0.5135023753351717  0.41490765224671133  1.0000
  C   C8        1.0  0.8417575971617242  0.4862396097798937  0.5708902302582646  1.0000
  C   C9        1.0  0.8750146740304316  0.4286479803293871  0.49694132094957433  1.0000
  C   C10       1.0  0.8770167180715944  0.5712002048796377  0.4888295984161817  1.0000
  C   C11       1.0  0.8763325443960499  0.3573295469401146  0.49924382233349707  1.0000
  C   C12       1.0  0.1252959830953628  0.0628051514635786  0.2175794343300552  1.0000
  C   C13       1.0  0.8820839920754082  0.6439774280410048  0.48724691200664694  1.0000
  C   C14       1.0  0.5787713313946768  0.529721247192576  0.15379173611291472  1.0000
  C   C15       1.0  0.454684674717747  0.5139302123742056  0.117859123174057  1.0000
  C   C16       1.0  0.22769411711915677  0.16068915193761066  0.3697712654306358  1.0000
  C   C17       1.0  0.780495786120234  0.8550005195424148  0.790194940924984  1.0000
  C   C18       1.0  0.49526647893481635  0.5271812717791989  0.20469060514599857  1.0000
  C   C19       1.0  0.5373961801551913  0.5154075700817912  0.06776597413472989  1.0000
  C   C20       1.0  0.30732993846302054  0.3127871620051721  0.3092764491847149  1.0000
  C   C21       1.0  0.7155638628914007  0.7191154086134761  0.9257150498806014  1.0000
  C   C22       1.0  0.530696746744745  0.45565472132236806  0.14983577451803146  1.0000
  C   C23       1.0  0.23559645223024733  0.23932682491967952  0.3499541394629516  1.0000
  C   C24       1.0  0.5026568318682864  0.5875947314401984  0.12218611641372241  1.0000
  C   C25       1.0  0.44474237814643663  0.4509395920507231  0.20308350255928084  1.0000
  C   C26       1.0  0.5881822835909675  0.5919291313530124  0.0687441896835638  1.0000
  C   C27       1.0  0.37098621862647013  0.37727759845500236  0.2661030259622379  1.0000
  C   C28       1.0  0.6590595575627489  0.6623520266985351  0.9955709072370669  1.0000
  C   C29       1.0  0.43113484285109394  0.7639078792330167  0.5319776584015943  1.0000
  C   C30       1.0  0.541149566925782  0.9231617098834947  0.45978451906169243  1.0000
  C   C31       1.0  0.5180832531004071  0.8120433155430151  0.4491134884354438  1.0000
  C   C32       1.0  0.45503149440320106  0.8749461639771566  0.5427737165262984  1.0000
  C   C33       1.0  0.7003901139941107  0.8803643417396144  0.4894208929984389  1.0000
  C   C34       1.0  0.7778234803605741  0.7823320488224893  0.84342576995806  1.0000
  C   C35       1.0  0.2827431108224658  0.8547401646718241  0.5040291297778126  1.0000
  C   C36       1.0  0.4711378606069231  0.8002151024789511  0.5738385486504501  1.0000
  C   C37       1.0  0.5015693946551282  0.8866892729624283  0.4179978701445609  1.0000
  C   C38       1.0  0.5601614635531148  0.8483577736488069  0.4915100025037378  1.0000
  C   C39       1.0  0.41274419433538173  0.8390367307230449  0.5002923939210292  1.0000
  C   C40       1.0  0.1466200225548988  0.8566572804920014  0.5742867632508393  1.0000
  C   C41       1.0  0.8529271710342385  0.9744931809682668  0.4244939126913609  1.0000
  C   C42       1.0  0.635685181358447  0.8590831823423173  0.4893891491013919  1.0000
  C   C43       1.0  0.34033740498400555  0.8415249482797196  0.5029118905064608  1.0000
  C   C44       1.0  0.15521044790798302  0.20220142103789832  0.8626566546664874  1.0000
  C   C45       1.0  0.21921810771075212  0.8749749267978048  0.5049701511661268  1.0000
  C   C46       1.0  0.0878970685221035  0.04684313903322851  0.8948371683145171  1.0000
  C   C47       1.0  0.20234321813353526  0.16745563058997698  0.8143570673955338  1.0000
  C   C48       1.0  0.040763829352123346  0.08165502526939165  0.9426688219456735  1.0000
  C   C49       1.0  0.11182579315393347  0.11084049695452354  0.6856470204526061  1.0000
  C   C50       1.0  0.10567150561404051  0.1108906676612804  0.09148049335562554  1.0000
  C   C51       1.0  0.07908444410452402  0.16140115391804258  0.8569927595478787  1.0000
  C   C52       1.0  0.16407276722453218  0.0877357504195901  0.9002189042787732  1.0000
  C   C53       1.0  0.12591767912247323  0.12690876421856254  0.8062863048657078  1.0000
  C   C54       1.0  0.11718793236560315  0.1220678287153378  0.9509917532518343  1.0000
  C   C55       1.0  0.12430362658484749  0.12431506642011678  0.7364890423516782  1.0000
  C   C56       1.0  0.7724574222929165  0.9131164274086315  0.49153440545827465  1.0000
  C   C57       1.0  0.1121746251885298  0.1174690124559632  0.025574372961514838  1.0000
  C   C58       1.0  0.9378414892300454  0.22563121286088264  0.43087800629030004  1.0000
  C   C59       1.0  0.905798567816113  0.7839842719445469  0.5637425266858642  1.0000
  C   C60       1.0  0.21515179916558225  0.9246448362993647  0.4359973470968656  1.0000
  C   C61       1.0  0.7785059811711007  0.9030423726430213  0.562908082518824  1.0000
  C   C62       1.0  0.8587727923097647  0.15197242880822165  0.5703427903510063  1.0000
  C   C63       1.0  0.9800329753705768  0.8585797550875397  0.42357681081510623  1.0000
  C   C64       1.0  0.1549689789827512  0.22642899044074483  0.3693205064450424  1.0000
  C   C65       1.0  0.8514573060079015  0.7877002925629312  0.7887982479141945  1.0000
  C   C66       1.0  0.09807185692807968  0.029623769107225077  0.6134530314521952  1.0000
  C   C67       1.0  0.8906042146975324  0.22978981578182106  0.5004643120059457  1.0000
  C   C68       1.0  0.05410457017645603  0.13044084154167024  0.2165429905264418  1.0000
  C   C69       1.0  0.08507845082363036  0.08486544372497223  0.6385114339698389  1.0000
  C   C70       1.0  0.09631924828955364  0.10252649418111301  0.1681468678897602  1.0000
  C   C71       1.0  0.9215719831806697  0.7784154860698395  0.49137916504884793  1.0000
  C   C72       1.0  0.9558783730401288  0.5603061895379254  0.4460221439460813  1.0000
  N   N1        1.0  0.0014212601808978047  0.049323939203844716  0.5889818011161977  1.0000
  N   N2        1.0  0.8535037583606241  0.9535018990384856  0.5415339309584443  1.0000
  N   N3        1.0  0.8850935742019531  0.10584923181806981  0.5441756090886403  1.0000
  N   N4        1.0  0.9982350021212552  0.9067683764293902  0.45401748495680777  1.0000
  N   N5        1.0  0.10470590686648515  0.14986542150334972  0.39682450116927726  1.0000
  N   N6        1.0  0.8934075445358045  0.8547019545711831  0.7124477642091311  1.0000
  N   N7        1.0  0.04768291891075204  0.008694949216838825  0.5849502428068191  1.0000
  N   N8        1.0  0.0586140254369739  0.1088871739219713  0.2869139706352541  1.0000
  N   N9        1.0  0.10362516196749282  0.066140414277406  0.2875465393296608  1.0000
  N   N10       1.0  0.15050828037682618  0.10833651926132158  0.3968906419256442  1.0000
  N   N11       1.0  0.8483603126684047  0.897530873242104  0.7132500592471093  1.0000
  N   N12       1.0  0.10516708501881326  0.8928236976916608  0.5474870368684109  1.0000
  N   N13       1.0  0.8998676432123035  0.998015440294303  0.4551593388129266  1.0000
  N   N14       1.0  0.9344206087349536  0.15167063388369698  0.4573632268938754  1.0000
  N   N15       1.0  0.9527582223183727  0.8609692970810696  0.5399716513543003  1.0000
  N   N16       1.0  0.1486219283216883  0.9360215375633559  0.4601408937612207  1.0000
  Cl  Cl1       1.0  0.3036192258718203  0.13270100805225127  0.3598051813958208  1.0000
  Cl  Cl2       1.0  0.7102014178864098  0.8896744172236738  0.8132901325126484  1.0000
  F   F1        1.0  0.9880266511861322  0.14045007056346762  0.63282996043926  1.0000
  F   F2        1.0  0.035493027388099854  0.19944973897133192  0.8347091063852972  1.0000
  F   F3        1.0  0.2691057911059005  0.960049365278806  0.3536353165362771  1.0000
  F   F4        1.0  0.719279743509084  0.8521536071785434  0.6443594573944723  1.0000
  F   F5        1.0  0.12751622837963342  0.2819278122414702  0.3605654234025977  1.0000
  F   F6        1.0  0.8812702772990589  0.7343758898254862  0.8055906221262109  1.0000
  F   F7        1.0  0.16932004427100375  0.02368088382946353  0.20223634973776677  1.0000
  F   F8        1.0  0.8064626352798713  0.4725099348664513  0.6511228221859899  1.0000
  F   F9        1.0  0.9455383426682148  0.5272215304371458  0.33461050983998336  1.0000
  F   F10       1.0  0.47395193846549694  0.5336627826585882  0.2748482445425467  1.0000
  F   F11       1.0  0.5598546545456813  0.5100625391507164  0.9970512724353637  1.0000
  F   F12       1.0  0.5168529077915451  0.9309904615696141  0.33789278134556633  1.0000
  F   F13       1.0  0.45537143699394994  0.7555957189766502  0.6540832035526876  1.0000
  F   F14       1.0  0.20761282627525227  0.04973174597631699  0.9226957922331633  1.0000
