data_image0
_chemical_formula_structural       Ca4H24C40O28
_chemical_formula_sum              "Ca4 H24 C40 O28"
_cell_length_a       4.292093061338888
_cell_length_b       10.753068438515598
_cell_length_c       21.632932987001396
_cell_angle_alpha    89.99999497367438
_cell_angle_beta     89.9999591564004
_cell_angle_gamma    91.85203964956814

_space_group_name_H-M_alt    "P 1"
_space_group_IT_number       1

loop_
  _space_group_symop_operation_xyz
  'x, y, z'

loop_
  _atom_site_type_symbol
  _atom_site_label
  _atom_site_symmetry_multiplicity
  _atom_site_fract_x
  _atom_site_fract_y
  _atom_site_fract_z
  _atom_site_occupancy
  Ca  Ca1       1.0  0.5881031875323329  0.1786836908912903  0.5068891498915562  1.0000
  Ca  Ca2       1.0  0.41189742728614925  0.3213156488302004  0.006888997166846899  1.0000
  Ca  Ca3       1.0  0.4118982866945727  0.8213163139160358  0.49311061897925873  1.0000
  Ca  Ca4       1.0  0.5881016505470669  0.6786834219030026  0.9931107717041526  1.0000
  H   H1        1.0  0.17231133056703377  0.5262971623303515  0.4385780462588045  1.0000
  H   H2        1.0  0.827686472648942  0.9737025819059043  0.9385776896927923  1.0000
  H   H3        1.0  0.8276901436598649  0.4737028424769748  0.5614217226120103  1.0000
  H   H4        1.0  0.17230801115217528  0.0262974120172643  0.0614225414366842  1.0000
  H   H5        1.0  0.7590510120391017  0.7048913494915752  0.281331176938501  1.0000
  H   H6        1.0  0.24095201696407995  0.7951084367334501  0.7813318360847461  1.0000
  H   H7        1.0  0.24095046218863564  0.2951086553158079  0.7186681296741355  1.0000
  H   H8        1.0  0.7590447307258188  0.204890630371608  0.21866885730275953  1.0000
  H   H9        1.0  0.32842390462988647  0.3851820834472405  0.2552801931724957  1.0000
  H   H10       1.0  0.6715782132957601  0.11481813548358838  0.7552798746016691  1.0000
  H   H11       1.0  0.6715775695970195  0.6148179213600854  0.7447195756983119  1.0000
  H   H12       1.0  0.3284233271823566  0.8851827997697793  0.2447203565272886  1.0000
  H   H13       1.0  0.11479982702212509  0.3999777874758833  0.15531687889465218  1.0000
  H   H14       1.0  0.8852025841488356  0.10002152308883441  0.6553165306404694  1.0000
  H   H15       1.0  0.8852039110935549  0.6000212905133394  0.8446833522341849  1.0000
  H   H16       1.0  0.1147988238260211  0.8999775512724  0.3446832382303668  1.0000
  H   H17       1.0  0.41612855638372537  0.5147014413179392  0.16689272404641287  1.0000
  H   H18       1.0  0.5838726202832589  0.9852992970023565  0.6668937883667212  1.0000
  H   H19       1.0  0.5838729178440121  0.4852985634894438  0.8331065825662306  1.0000
  H   H20       1.0  0.4161265900532101  0.0147016346229734  0.3331064427624  1.0000
  H   H21       1.0  0.7143984782654869  0.20965702332685504  0.36080770034132564  1.0000
  H   H22       1.0  0.2856033264043417  0.2903441027410593  0.8608074288405376  1.0000
  H   H23       1.0  0.28560306221346105  0.7903439119265625  0.6391920685294536  1.0000
  H   H24       1.0  0.7143958176817408  0.7096558984382851  0.13919187777226938  1.0000
  C   C1        1.0  0.2661107199270205  0.4464644266833631  0.349464373732097  1.0000
  C   C2        1.0  0.7338887291423006  0.0535357678159016  0.849464511273318  1.0000
  C   C3        1.0  0.7338907542998853  0.553535578123963  0.6505353951387106  1.0000
  C   C4        1.0  0.26610808480047143  0.9464642297353049  0.1505357198559949  1.0000
  C   C5        1.0  0.1348809823487471  0.5330583022465945  0.38894122880194704  1.0000
  C   C6        1.0  0.865116999374095  0.9669414529533709  0.8889417917351067  1.0000
  C   C7        1.0  0.865118161736511  0.4669416989326933  0.611058540069024  1.0000
  C   C8        1.0  0.1348774181749874  0.033057610523705705  0.11105843939439812  1.0000
  C   C9        1.0  0.9539837365149706  0.6268311355048867  0.3642778462087506  1.0000
  C   C10       1.0  0.04601666404686711  0.873168628770827  0.8642780673361585  1.0000
  C   C11       1.0  0.046017737712759306  0.3731688693024963  0.6357214604038929  1.0000
  C   C12       1.0  0.9539778197542575  0.12683136515234136  0.1357221637933179  1.0000
  C   C13       1.0  0.9036175738035438  0.633260470938154  0.3007566433034299  1.0000
  C   C14       1.0  0.09638551784485831  0.8667411718883925  0.8007568575618578  1.0000
  C   C15       1.0  0.09638163653375642  0.3667404606872253  0.69924312556752  1.0000
  C   C16       1.0  0.9036112960970825  0.1332588256627645  0.1992438358256265  1.0000
  C   C17       1.0  0.0406731075798774  0.5474984809840391  0.26126737783386733  1.0000
  C   C18       1.0  0.9593276634371293  0.952501306044667  0.7612679280255746  1.0000
  C   C19       1.0  0.9593260365062052  0.45250152019530526  0.7387319287789396  1.0000
  C   C20       1.0  0.040669150504811596  0.04749869150648319  0.2387327653619096  1.0000
  C   C21       1.0  0.22261957677179814  0.4533780111753598  0.2851744349923493  1.0000
  C   C22       1.0  0.7773846975342094  0.046621274334299315  0.7851745666621356  1.0000
  C   C23       1.0  0.7773818312030655  0.5466210631858744  0.7148253338784869  1.0000
  C   C24       1.0  0.22261677669186505  0.953378730472977  0.2148256644668436  1.0000
  C   C25       1.0  0.4534017813772593  0.3477935975934443  0.3774735096061406  1.0000
  C   C26       1.0  0.5465975669638112  0.15220659071918868  0.8774732071342654  1.0000
  C   C27       1.0  0.5465996928496467  0.6522064072138819  0.6225262592646743  1.0000
  C   C28       1.0  0.4533992469797923  0.8477934068320676  0.12252656173687627  1.0000
  C   C29       1.0  0.812164632369381  0.7206884566552246  0.40572392167170074  1.0000
  C   C30       1.0  0.18783568539232223  0.7793122289119339  0.9057241267990291  1.0000
  C   C31       1.0  0.187836908109567  0.2793124785981931  0.5942758471990857  1.0000
  C   C32       1.0  0.8121611285504499  0.22068776863926598  0.0942761043302838  1.0000
  C   C33       1.0  0.1667129997554468  0.5009366311351755  0.1561147305828356  1.0000
  C   C34       1.0  0.8332905458148973  0.9990641131938534  0.6561152966193546  1.0000
  C   C35       1.0  0.8332955311484511  0.49906431500234294  0.8438850382874533  1.0000
  C   C36       1.0  0.16671106091443016  0.0009377525055497999  0.34388539676774593  1.0000
  C   C37       1.0  0.1034280893320911  0.5541960615896784  0.0925029249610034  1.0000
  C   C38       1.0  0.8965708922183637  0.9458028286417813  0.5925030221016101  1.0000
  C   C39       1.0  0.8965732523915619  0.44580208232551394  0.9074963816516827  1.0000
  C   C40       1.0  0.10343058200853511  0.05419717616554459  0.4074967467691977  1.0000
  O   O1        1.0  0.486129527869778  0.3382387578425963  0.43436962974978854  1.0000
  O   O2        1.0  0.5138695496033276  0.16176048745663957  0.9343697937622862  1.0000
  O   O3        1.0  0.5138719463571277  0.6617612469647299  0.5656301391210263  1.0000
  O   O4        1.0  0.4861272643394443  0.838239510094567  0.0656304373670196  1.0000
  O   O5        1.0  0.5806231649189473  0.27070809828382636  0.33732961607287837  1.0000
  O   O6        1.0  0.41937859168172054  0.22929117207781505  0.8373288660094218  1.0000
  O   O7        1.0  0.4193782430550854  0.7292909760773584  0.6626706150561219  1.0000
  O   O8        1.0  0.580620618656404  0.7707097595476142  0.1626704406033568  1.0000
  O   O9        1.0  0.9309576075090291  0.7391006905580751  0.4599005702775827  1.0000
  O   O10       1.0  0.06904244916552932  0.7608990525964076  0.9599007930861987  1.0000
  O   O11       1.0  0.06904153657622909  0.2608993106212125  0.5400991985933885  1.0000
  O   O12       1.0  0.9309566949188904  0.23910094858283065  0.0400994380429438  1.0000
  O   O13       1.0  0.5750901844408319  0.7779894309599837  0.38789140384260884  1.0000
  O   O14       1.0  0.4249101974518723  0.72201125854604  0.8878915778309491  1.0000
  O   O15       1.0  0.424911356038109  0.22201150429343383  0.6121083650281776  1.0000
  O   O16       1.0  0.5750842200980414  0.2779878049310867  0.1121081910403845  1.0000
  O   O17       1.0  0.9778294346328947  0.5629137166203435  0.19981147411410657  1.0000
  O   O18       1.0  0.022173887539757714  0.9370860876108723  0.6998116958088119  1.0000
  O   O19       1.0  0.022174369735658693  0.43708629181502073  0.8001882947565377  1.0000
  O   O20       1.0  0.977827586686317  0.0629139171964042  0.3001885353201672  1.0000
  O   O21       1.0  0.2757555382527955  0.5182340356707585  0.0483133438202756  1.0000
  O   O22       1.0  0.7242436022154451  0.9817648643212704  0.5483139261046119  1.0000
  O   O23       1.0  0.724248133611681  0.48176411187242263  0.9516864250504256  1.0000
  O   O24       1.0  0.27575554186814333  0.0182351368579177  0.4516867672827019  1.0000
  O   O25       1.0  0.8906448258058505  0.6318159404324105  0.0858948868241782  1.0000
  O   O26       1.0  0.10935184936801791  0.8681829476306362  0.5858946369190432  1.0000
  O   O27       1.0  0.10935425202902851  0.36818313030089195  0.9141039575304859  1.0000
  O   O28       1.0  0.8906472947180646  0.13181705354870127  0.41410466969376364  1.0000
