data_image0
_chemical_formula_structural       Zn16H40C72O56F8
_chemical_formula_sum              "Zn16 H40 C72 O56 F8"
_cell_length_a       18.708267211008312
_cell_length_b       18.793909539039362
_cell_length_c       26.458592349868045
_cell_angle_alpha    89.90215282870156
_cell_angle_beta     90.15271480609088
_cell_angle_gamma    89.93600248947008

_space_group_name_H-M_alt    "P 1"
_space_group_IT_number       1

loop_
  _space_group_symop_operation_xyz
  'x, y, z'

loop_
  _atom_site_type_symbol
  _atom_site_label
  _atom_site_symmetry_multiplicity
  _atom_site_fract_x
  _atom_site_fract_y
  _atom_site_fract_z
  _atom_site_occupancy
  Zn  Zn1       1.0  0.8344224493446859  0.2497569668652772  0.7936428000299781  1.0000
  Zn  Zn2       1.0  0.7485755168895167  0.3361913505052598  0.29428239314092497  1.0000
  Zn  Zn3       1.0  0.24810709486801835  0.8365074524014344  0.2063570509228611  1.0000
  Zn  Zn4       1.0  0.2475710181877204  0.8364937363793031  0.7938315055276775  1.0000
  Zn  Zn5       1.0  0.7464064708304221  0.16577669947611884  0.7072908178522322  1.0000
  Zn  Zn6       1.0  0.746984559972077  0.16613077494030648  0.29288949617635035  1.0000
  Zn  Zn7       1.0  0.24620640080816264  0.6665512604333655  0.20796245584684667  1.0000
  Zn  Zn8       1.0  0.24677981621770326  0.666004104913327  0.7930692722658957  1.0000
  Zn  Zn9       1.0  0.8343115318435679  0.2498331974153203  0.20636991197435606  1.0000
  Zn  Zn10      1.0  0.3344076423056848  0.749797789841196  0.29431203017970375  1.0000
  Zn  Zn11      1.0  0.33482814448902326  0.7489968169069738  0.7073800065534142  1.0000
  Zn  Zn12      1.0  0.6642893461566644  0.2504870657854  0.79261566713388  1.0000
  Zn  Zn13      1.0  0.6642937456656453  0.25196180999688517  0.20695663928522376  1.0000
  Zn  Zn14      1.0  0.1643412762375078  0.7515323174512643  0.2938554325125863  1.0000
  Zn  Zn15      1.0  0.16442345121745208  0.7516755515976853  0.7066761009597967  1.0000
  Zn  Zn16      1.0  0.7479952087010061  0.33628551792716616  0.7058503315399702  1.0000
  H   H1        1.0  0.0995710259792872  0.008192002866579196  0.8030179101526684  1.0000
  H   H2        1.0  0.858499797959297  0.24871183568423308  0.9538702054721352  1.0000
  H   H3        1.0  0.3608747117943949  0.7602031733792314  0.5463961044560219  1.0000
  H   H4        1.0  0.3594724798153877  0.7417686044404518  0.4540264099153858  1.0000
  H   H5        1.0  0.6948802064388601  0.26196812511741996  0.04143924611754809  1.0000
  H   H6        1.0  0.6939572938430416  0.24157000119179628  0.9580887471872044  1.0000
  H   H7        1.0  0.1978590636129596  0.7368261149140947  0.5419810508643791  1.0000
  H   H8        1.0  0.1972137588481786  0.7698557495409586  0.45923032004630915  1.0000
  H   H9        1.0  0.016703369632466495  0.9330781727467893  0.7175235274206953  1.0000
  H   H10       1.0  0.014024118830654703  0.9295078892338464  0.27847396715549877  1.0000
  H   H11       1.0  0.516745652257427  0.43253098636857595  0.21973680765907488  1.0000
  H   H12       1.0  0.1012174200366616  0.011133722504545997  0.19844276052923243  1.0000
  H   H13       1.0  0.5143962268399064  0.4287400177984819  0.7788796404752671  1.0000
  H   H14       1.0  0.010710935089377902  0.10351542299639499  0.7998426570123555  1.0000
  H   H15       1.0  0.0081724924034461  0.10229080585765617  0.19827539294823987  1.0000
  H   H16       1.0  0.5111320598605643  0.6049832148548048  0.2998957240302573  1.0000
  H   H17       1.0  0.5030253346543532  0.5972908203317858  0.694855445438314  1.0000
  H   H18       1.0  0.0651875631162895  0.5197450752389444  0.7791591513469951  1.0000
  H   H19       1.0  0.0629960517008357  0.5223003339917581  0.22001664509767235  1.0000
  H   H20       1.0  0.566712562247524  0.018976968055497395  0.2784255527982252  1.0000
  H   H21       1.0  0.5704228665924517  0.013469152868083296  0.7255764879268581  1.0000
  H   H22       1.0  0.9060325417487717  0.4994347273786275  0.6910061554339464  1.0000
  H   H23       1.0  0.6016213950035693  0.5114079654488392  0.3024723758393363  1.0000
  H   H24       1.0  0.9055689149197194  0.4988476729715642  0.3086587185606219  1.0000
  H   H25       1.0  0.4058123633123357  0.9990017308642365  0.1918844886132262  1.0000
  H   H26       1.0  0.39457007910660735  0.010203546052359498  0.7968992536423583  1.0000
  H   H27       1.0  0.75710131569938  0.3557008599788602  0.4538646371243756  1.0000
  H   H28       1.0  0.7412492104285561  0.3554683683607108  0.5463354984980666  1.0000
  H   H29       1.0  0.24920019305783103  0.8572887112203914  0.9540910569213988  1.0000
  H   H30       1.0  0.25607213657575306  0.8567336305240897  0.046581183255405285  1.0000
  H   H31       1.0  0.9677998219642348  0.39180772236770867  0.8115069216527571  1.0000
  H   H32       1.0  0.9676940716221694  0.3924354811697268  0.18826575820840927  1.0000
  H   H33       1.0  0.4682984449714027  0.8919483466709365  0.31238670633361915  1.0000
  H   H34       1.0  0.598810642375021  0.5088854695303127  0.6966341249846407  1.0000
  H   H35       1.0  0.4917512434086716  0.867008440678454  0.7128232536393995  1.0000
  H   H36       1.0  0.7332859862690313  0.19349661197475138  0.4586701155962202  1.0000
  H   H37       1.0  0.7692536744784845  0.19386543552029414  0.5419726347406807  1.0000
  H   H38       1.0  0.2582505927533774  0.6935510952849737  0.9582505857162926  1.0000
  H   H39       1.0  0.2422863629298107  0.6933580884895674  0.042190555421655083  1.0000
  H   H40       1.0  0.8580193752167489  0.2390220608453504  0.046373801349702086  1.0000
  C   C1        1.0  0.6114322040510487  0.11549703077813686  0.7504338166113909  1.0000
  C   C2        1.0  0.9996697156559688  0.5524901786028592  0.2811815604838799  1.0000
  C   C3        1.0  0.5001818370412962  0.052231987313788884  0.2194608327678224  1.0000
  C   C4        1.0  0.4963633065703661  0.05557037873112589  0.7764141964242481  1.0000
  C   C5        1.0  0.05731733909814811  0.5604930198929806  0.7505315307751274  1.0000
  C   C6        1.0  0.056818961624372784  0.5609496852050881  0.25015470088219866  1.0000
  C   C7        1.0  0.5587246740902998  0.05936126973427489  0.2495406599448485  1.0000
  C   C8        1.0  0.5586609869591682  0.058172132691034106  0.7501611908513651  1.0000
  C   C9        1.0  0.946240747166378  0.49825180590563883  0.7207928587985817  1.0000
  C   C10       1.0  0.9459707446782204  0.4980709646545731  0.2791496072322984  1.0000
  C   C11       1.0  0.446473257227538  0.9977841063954002  0.22134394956682965  1.0000
  C   C12       1.0  0.6132464408471917  0.11498437468080167  0.24737702750557836  1.0000
  C   C13       1.0  0.4436255688401687  0.0001727561933862001  0.776098482095655  1.0000
  C   C14       1.0  0.9405909406996501  0.4444689354931055  0.7549649197078023  1.0000
  C   C15       1.0  0.9403083146542031  0.4448125352121863  0.24466793830612932  1.0000
  C   C16       1.0  0.44078081978661726  0.944415875905278  0.2558365990926105  1.0000
  C   C17       1.0  0.4480798733934676  0.9362813667638363  0.752341317004827  1.0000
  C   C18       1.0  0.750467342393314  0.3043520648722619  0.4727485221261815  1.0000
  C   C19       1.0  0.7493731695791297  0.3043039569937206  0.5275914191056044  1.0000
  C   C20       1.0  0.25183299628159966  0.8054626886746872  0.9728288452193394  1.0000
  C   C21       1.0  0.2521438987534026  0.8051777369622072  0.027723387997767194  1.0000
  C   C22       1.0  0.7424008446750676  0.24648833349261412  0.4430987469021728  1.0000
  C   C23       1.0  0.11183714971017622  0.6160309127861794  0.25259641516510095  1.0000
  C   C24       1.0  0.7586006899607937  0.24660499564146218  0.5573957793004067  1.0000
  C   C25       1.0  0.2547229714387527  0.7473735909947548  0.9429429202805151  1.0000
  C   C26       1.0  0.24728623049673354  0.7469732091256558  0.057519558166305294  1.0000
  C   C27       1.0  0.8064518187706468  0.2458650247080527  0.02745281618711459  1.0000
  C   C28       1.0  0.8065144403672803  0.24675334140421498  0.9725907572595174  1.0000
  C   C29       1.0  0.3090824140625088  0.7532034255650685  0.5278374331325252  1.0000
  C   C30       1.0  0.3083609024077418  0.750420218545841  0.4729904134647  1.0000
  C   C31       1.0  0.7482536357487602  0.2535744843064264  0.05704104261942428  1.0000
  C   C32       1.0  0.7479002620687325  0.2448020497949343  0.9427469703836946  1.0000
  C   C33       1.0  0.25098548157887984  0.7463877267489849  0.5576159653548414  1.0000
  C   C34       1.0  0.1115234720220997  0.6164489801237706  0.7489895096843282  1.0000
  C   C35       1.0  0.2498967595324544  0.7588154772049974  0.44350824450889786  1.0000
  C   C36       1.0  0.8833776757769555  0.3888060804126423  0.7511650658654357  1.0000
  C   C37       1.0  0.8829426049513315  0.3893260413937796  0.24816264074008382  1.0000
  C   C38       1.0  0.38312482617567406  0.8891478066489069  0.2524809431706528  1.0000
  C   C39       1.0  0.3880124374176787  0.8835240248266559  0.7534700603605625  1.0000
  C   C40       1.0  0.7514166364139285  0.24730051710259457  0.8870321450062162  1.0000
  C   C41       1.0  0.7515532035788794  0.2513939320368762  0.11279221752923967  1.0000
  C   C42       1.0  0.25212722045851166  0.7543126817837515  0.3877885323814993  1.0000
  C   C43       1.0  0.2536280238809994  0.7502027374413841  0.6133451378871013  1.0000
  C   C44       1.0  0.7546279456679272  0.24994883988023275  0.6131043766856903  1.0000
  C   C45       1.0  0.9394390989835841  0.057914239382533574  0.7503541474674761  1.0000
  C   C46       1.0  0.7451783623346059  0.24995787860162014  0.3873422092570919  1.0000
  C   C47       1.0  0.24847349492990392  0.750653491592743  0.11328639467173927  1.0000
  C   C48       1.0  0.252233439196992  0.7511908775381925  0.8871949051652306  1.0000
  C   C49       1.0  0.6146120864245788  0.3886566762449915  0.7495657032947702  1.0000
  C   C50       1.0  0.6156570571892459  0.3903752117250433  0.2503286770462124  1.0000
  C   C51       1.0  0.113936497982877  0.8886680437027079  0.24904531066800925  1.0000
  C   C52       1.0  0.1149138859704735  0.8898610958612633  0.7487953222912861  1.0000
  C   C53       1.0  0.8850615183263313  0.11603859140714685  0.7517645620336921  1.0000
  C   C54       1.0  0.8895832250089127  0.12041007680639379  0.25312970766973547  1.0000
  C   C55       1.0  0.3868790041366665  0.6181119840381367  0.25030035339000983  1.0000
  C   C56       1.0  0.9448730932256099  0.0630983183064373  0.2552028280335533  1.0000
  C   C57       1.0  0.38595458792990905  0.615766850589729  0.7506981757343637  1.0000
  C   C58       1.0  0.0556494817265261  0.0017400922198901993  0.7761029215903006  1.0000
  C   C59       1.0  0.056505355240979306  0.0030819450728785  0.22433436363495923  1.0000
  C   C60       1.0  0.5572371859556781  0.5037911912053161  0.2760837704168039  1.0000
  C   C61       1.0  0.5545825908186899  0.5008241697213193  0.7229389025656159  1.0000
  C   C62       1.0  0.05739349989643471  0.9435682640684244  0.7459463907602242  1.0000
  C   C63       1.0  0.056564748494032806  0.9424723563199393  0.2521253522994726  1.0000
  C   C64       1.0  0.5583496811644082  0.44432906737996786  0.24721333877194235  1.0000
  C   C65       1.0  0.5563963103682709  0.44151134850109486  0.7520604732381101  1.0000
  C   C66       1.0  0.0019003301939334999  0.05689650411378009  0.7761751279138662  1.0000
  C   C67       1.0  0.4416467030551061  0.5603081196220359  0.24876273667956633  1.0000
  C   C68       1.0  0.002847446016602399  0.0583478521840632  0.22494630001298074  1.0000
  C   C69       1.0  0.5032083346535358  0.5587576691611529  0.27568679760302217  1.0000
  C   C70       1.0  0.4994211236008397  0.5545480519033532  0.7226417909938189  1.0000
  C   C71       1.0  0.4419522939682422  0.559309480490519  0.753358389216366  1.0000
  C   C72       1.0  0.9994756959385358  0.5532173945339875  0.7197857154844411  1.0000
  O   O1        1.0  0.7507156263622362  0.2520149975219254  0.7496621242327774  1.0000
  O   O2        1.0  0.7416279964896475  0.18980139846321714  0.36490209705242893  1.0000
  O   O3        1.0  0.248546040034455  0.6903460708065835  0.1358325244426482  1.0000
  O   O4        1.0  0.2491213408437857  0.6908958660006802  0.8649272493802653  1.0000
  O   O5        1.0  0.6059080433077921  0.16609594092525268  0.7824179485744478  1.0000
  O   O6        1.0  0.6049529455122098  0.16831943564419297  0.21781277062960666  1.0000
  O   O7        1.0  0.10776461951471818  0.6654047179545727  0.28571421301914046  1.0000
  O   O8        1.0  0.10291083792858298  0.6702797826817457  0.7199908257389961  1.0000
  O   O9        1.0  0.8366640514891514  0.39342213435197226  0.7166432496908184  1.0000
  O   O10       1.0  0.8362443182743391  0.39413841427411694  0.2824762921043272  1.0000
  O   O11       1.0  0.3362621040077372  0.893958965485119  0.21809568863125145  1.0000
  O   O12       1.0  0.7508372577358315  0.2522895943883227  0.2502686470408193  1.0000
  O   O13       1.0  0.3325056225745228  0.8971634290951586  0.7788902920021454  1.0000
  O   O14       1.0  0.6610661766264769  0.1090277433838622  0.7171046638164639  1.0000
  O   O15       1.0  0.6667819146013513  0.10467512657233158  0.277176674726661  1.0000
  O   O16       1.0  0.1615710871341491  0.6093252147887397  0.21940658345769035  1.0000
  O   O17       1.0  0.165124383155792  0.6058663007694703  0.7787402495954365  1.0000
  O   O18       1.0  0.8889513815873471  0.3403605853951034  0.7853068614643348  1.0000
  O   O19       1.0  0.8884486112962264  0.3408754829689257  0.21415364910316725  1.0000
  O   O20       1.0  0.3885526669632995  0.8408357236116543  0.2867351519858658  1.0000
  O   O21       1.0  0.40078044524499745  0.8277230120320097  0.7269465690495804  1.0000
  O   O22       1.0  0.691054487913604  0.251065561832938  0.864526460801677  1.0000
  O   O23       1.0  0.25057122295240225  0.752529709005344  0.2504938437495312  1.0000
  O   O24       1.0  0.6913283535151038  0.2562067935891007  0.1351747150234601  1.0000
  O   O25       1.0  0.1918567358515091  0.7608470668099654  0.3654328136579678  1.0000
  O   O26       1.0  0.1930769836190578  0.7457189377608556  0.6352934082648289  1.0000
  O   O27       1.0  0.7471306876217553  0.3108558681546896  0.6340034954264478  1.0000
  O   O28       1.0  0.7507891322631578  0.31099971780601976  0.36621480215800517  1.0000
  O   O29       1.0  0.24926976653750899  0.8119198695000163  0.13433281028063954  1.0000
  O   O30       1.0  0.2530517071021521  0.8124157214597004  0.8659189544508192  1.0000
  O   O31       1.0  0.6066847897319007  0.3351694512628497  0.7789634871094079  1.0000
  O   O32       1.0  0.6080003462616191  0.33780903249347455  0.22018171479447793  1.0000
  O   O33       1.0  0.1049944223586934  0.8344182826791806  0.27756842010567334  1.0000
  O   O34       1.0  0.250475835174754  0.7520885196002777  0.7503700876751294  1.0000
  O   O35       1.0  0.1101481412136422  0.839677862664402  0.7163361625104155  1.0000
  O   O36       1.0  0.8289848245088008  0.10510938745808569  0.7259798009401306  1.0000
  O   O37       1.0  0.8369248288983117  0.1124812557842461  0.28266260926807957  1.0000
  O   O38       1.0  0.3318525849633573  0.6081975690070532  0.2231500398126443  1.0000
  O   O39       1.0  0.3355316147652232  0.6104140345443766  0.7823798507311536  1.0000
  O   O40       1.0  0.6669874059826028  0.3993973253339859  0.719352417542545  1.0000
  O   O41       1.0  0.6670810202373262  0.3993956788847368  0.2817912489343541  1.0000
  O   O42       1.0  0.16678231546682548  0.8995640916460417  0.21926625218594603  1.0000
  O   O43       1.0  0.16381824734013148  0.8968356149295432  0.7824292560313136  1.0000
  O   O44       1.0  0.9003206975050304  0.17054376889773687  0.778603900190539  1.0000
  O   O45       1.0  0.8130262512998953  0.24570740152089596  0.8659555504069727  1.0000
  O   O46       1.0  0.9006028047824869  0.171029757854825  0.22174170370777796  1.0000
  O   O47       1.0  0.40081438569084327  0.6713525625001253  0.27871150270122047  1.0000
  O   O48       1.0  0.39439038092395856  0.6634454793943545  0.7167364818526278  1.0000
  O   O49       1.0  0.9853893733265551  0.4353101396332946  0.7945242706074109  1.0000
  O   O50       1.0  0.9852454273686886  0.4358345467110426  0.20535415182727945  1.0000
  O   O51       1.0  0.485979201851876  0.9352126918733317  0.2951559709967241  1.0000
  O   O52       1.0  0.5052774079114427  0.9146699765460152  0.7254228602628173  1.0000
  O   O53       1.0  0.8128808823002415  0.24499870511242247  0.13406978414946016  1.0000
  O   O54       1.0  0.3128272053430834  0.7444894407887402  0.366505184455164  1.0000
  O   O55       1.0  0.3145980394700842  0.7573752228958668  0.6350465313645441  1.0000
  O   O56       1.0  0.7589242402856795  0.1898309253728598  0.6357370704473339  1.0000
  F   F1        1.0  0.9203255183972914  0.003172030908387999  0.7200527705064557  1.0000
  F   F2        1.0  0.9312164640773731  0.013077450561205194  0.2907273329558179  1.0000
  F   F3        1.0  0.4238468565582494  0.5064623772657342  0.21727073533099878  1.0000
  F   F4        1.0  0.4302646669554875  0.5109321518003042  0.790345251420973  1.0000
  F   F5        1.0  0.9870972878875433  0.6007651905712592  0.6819199002290615  1.0000
  F   F6        1.0  0.9884524722660897  0.598121249567036  0.3202360034964612  1.0000
  F   F7        1.0  0.48747264005611146  0.09945059699497698  0.1814369279113136  1.0000
  F   F8        1.0  0.476679878612323  0.11055771487160371  0.8067483168400428  1.0000
