data_image0
_chemical_formula_structural       Rb4Li4H24C16O28
_chemical_formula_sum              "Rb4 Li4 H24 C16 O28"
_cell_length_a       9.649402093114523
_cell_length_b       9.788852330447764
_cell_length_c       10.408983741688193
_cell_angle_alpha    118.04882614004642
_cell_angle_beta     112.66605878043498
_cell_angle_gamma    89.99963316439593

_space_group_name_H-M_alt    "P 1"
_space_group_IT_number       1

loop_
  _space_group_symop_operation_xyz
  'x, y, z'

loop_
  _atom_site_type_symbol
  _atom_site_label
  _atom_site_symmetry_multiplicity
  _atom_site_fract_x
  _atom_site_fract_y
  _atom_site_fract_z
  _atom_site_occupancy
  Rb  Rb1       1.0  0.7500020589689386  0.9683400360687673  0.999995017534346  1.0000
  Rb  Rb2       1.0  0.2499986004537647  0.03166007700455961  4.647531234465198e-06  1.0000
  Rb  Rb3       1.0  0.7500044908500882  0.48589462700096675  0.9999940393355904  1.0000
  Rb  Rb4       1.0  0.2499961683467475  0.5141054861048674  6.586372237010875e-06  1.0000
  Li  Li1       1.0  0.9297232202795698  0.423257543546086  0.33186230640467346  1.0000
  Li  Li2       1.0  0.5702607549272828  0.09140837074900791  0.6681297663797354  1.0000
  Li  Li3       1.0  0.07027631559431312  0.576742569477844  0.6681388784822034  1.0000
  Li  Li4       1.0  0.4297387813983278  0.9085917422098931  0.3318694972226482  1.0000
  H   H1        1.0  0.9091686581995262  0.7465404766975896  0.7492145262299705  1.0000
  H   H2        1.0  0.5908230257754425  0.9973165772566971  0.2507739326072667  1.0000
  H   H3        1.0  0.09083087790022402  0.2534596362938189  0.25078569801466  1.0000
  H   H4        1.0  0.40917875651848584  0.0026835359635626  0.7492270945637645  1.0000
  H   H5        1.0  0.1084008091473621  0.12046165161550698  0.6735874480775979  1.0000
  H   H6        1.0  0.3916037975635617  0.4468850355694514  0.32643208378667776  1.0000
  H   H7        1.0  0.8915998500494808  0.8795384614903272  0.3264131776302294  1.0000
  H   H8        1.0  0.6083954823386081  0.5531138901357766  0.6735675239314323  1.0000
  H   H9        1.0  0.03786784892031389  0.3590529186526084  0.10928524421390058  1.0000
  H   H10       1.0  0.46212635975599176  0.24976295343185487  0.8907137157307974  1.0000
  H   H11       1.0  0.9621305640823437  0.6409471942243883  0.890714578567533  1.0000
  H   H12       1.0  0.5378742996667114  0.750237159641472  0.10928594933478337  1.0000
  H   H13       1.0  0.15268750083406957  0.502167517802583  0.2857613667905384  1.0000
  H   H14       1.0  0.3473144124270818  0.2164207788977137  0.7142449649937179  1.0000
  H   H15       1.0  0.847310912168588  0.4978325950744066  0.7142384559908879  1.0000
  H   H16       1.0  0.6526862469956143  0.7835793341756129  0.2857547000718555  1.0000
  H   H17       1.0  0.7295264130479283  0.8520446046157277  0.5896720208694293  1.0000
  H   H18       1.0  0.7704681517567309  0.2623650722905069  0.41031269730819997  1.0000
  H   H19       1.0  0.27047424637477496  0.1479555084575992  0.41032764419614426  1.0000
  H   H20       1.0  0.22953138434301218  0.7376350407009086  0.5896875269364233  1.0000
  H   H21       1.0  0.8510940488445584  0.0449306091924271  0.5664991172670073  1.0000
  H   H22       1.0  0.6489093063421196  0.47841879663862125  0.4334801133525517  1.0000
  H   H23       1.0  0.14890661057813764  0.9550695038808998  0.4335005477985735  1.0000
  H   H24       1.0  0.3510902299834911  0.5215813163202797  0.5665191502498319  1.0000
  C   C1        1.0  0.879589417006933  0.7357309990715706  0.4877631196977888  1.0000
  C   C2        1.0  0.6204067100000118  0.24795380196758998  0.5122185059675675  1.0000
  C   C3        1.0  0.12041011909281711  0.26426911391984487  0.5122371045468415  1.0000
  C   C4        1.0  0.379594461591978  0.7520486857106123  0.48778335279329377  1.0000
  C   C5        1.0  0.8552786272597999  0.8652558368821274  0.6301306006571752  1.0000
  C   C6        1.0  0.6447160232726643  0.2351087634149351  0.36985030837596616  1.0000
  C   C7        1.0  0.14472228836048376  0.13474546347737973  0.3698696809349189  1.0000
  C   C8        1.0  0.355283256403645  0.764890162322807  0.6301502599843902  1.0000
  C   C9        1.0  0.9228142748005936  0.0289614045077471  0.6684051129225852  1.0000
  C   C10       1.0  0.5771765413655318  0.3605442390521674  0.3315828821069859  1.0000
  C   C11       1.0  0.0771863843962493  0.9710387085980869  0.33159551278524196  1.0000
  C   C12       1.0  0.42282161566541293  0.6394546865061272  0.6684153635056805  1.0000
  C   C13       1.0  0.9099205693913816  0.15875708631286053  0.8200753166397877  1.0000
  C   C14       1.0  0.5900631560181752  0.3386629459137396  0.1799079141959795  1.0000
  C   C15       1.0  0.09008008980545418  0.8412430267929739  0.17992530906803963  1.0000
  C   C16       1.0  0.40993387768982353  0.6613359795626507  0.8200908905957365  1.0000
  O   O1        1.0  0.8187863990820432  0.7325724272340609  0.35349598893845535  1.0000
  O   O2        1.0  0.6812126628157316  0.3790697881288737  0.6464848845716491  1.0000
  O   O3        1.0  0.1812142601147926  0.26742768587177324  0.646504636769372  1.0000
  O   O4        1.0  0.31878488351328127  0.6209315118873776  0.3535141926308541  1.0000
  O   O5        1.0  0.9548221174798144  0.6361383330804244  0.5087750941203739  1.0000
  O   O6        1.0  0.5451715453318045  0.12735932245878703  0.4912112042908064  1.0000
  O   O7        1.0  0.045177418619935815  0.3638617799109909  0.49122513012424934  1.0000
  O   O8        1.0  0.45482799076794583  0.8726407905326284  0.5087890199538239  1.0000
  O   O9        1.0  0.9251624300857982  0.8582551324020146  0.7740871787080369  1.0000
  O   O10       1.0  0.574839832573403  0.0841540031833574  0.22589530334532545  1.0000
  O   O11       1.0  0.07483710601395188  0.14174498058940097  0.2259130455365864  1.0000
  O   O12       1.0  0.42515970352634713  0.9158461098080577  0.7741049208993049  1.0000
  O   O13       1.0  0.0765857053089931  0.0330651251226826  0.6860843633191325  1.0000
  O   O14       1.0  0.4234112103859786  0.34698340177706655  0.3139193073122828  1.0000
  O   O15       1.0  0.9234149541137099  0.9669349879506374  0.31391530174644106  1.0000
  O   O16       1.0  0.576588325939639  0.6530167111818344  0.686079956290094  1.0000
  O   O17       1.0  0.03151941216978572  0.262955220064356  0.9345309662318404  1.0000
  O   O18       1.0  0.4684445246936946  0.3283820672350687  0.06544352441363811  1.0000
  O   O19       1.0  0.9684803801275379  0.7370460802132401  0.06546987453931057  1.0000
  O   O20       1.0  0.5315583806973194  0.6716180460996101  0.9345579042205902  1.0000
  O   O21       1.0  0.7789619634423275  0.1536580175438189  0.820708671457837  1.0000
  O   O22       1.0  0.7210124165064471  0.3329557342098895  0.17926987563001276  1.0000
  O   O23       1.0  0.22103731668570967  0.8463409081289016  0.1792899756180264  1.0000
  O   O24       1.0  0.278988242916256  0.6670443788634373  0.820729789435568  1.0000
  O   O25       1.0  0.05531161993576461  0.4197562206636931  0.22661493575181885  1.0000
  O   O26       1.0  0.44469752067974616  0.19316038794378443  0.7733915621681507  1.0000
  O   O27       1.0  0.9446879161639856  0.5802438923277221  0.7733852884928112  1.0000
  O   O28       1.0  0.5553031385170969  0.8068397251620494  0.22660906353967664  1.0000
