data_image0
_chemical_formula_structural       Hg4H36C48I8N20
_chemical_formula_sum              "Hg4 H36 C48 I8 N20"
_cell_length_a       7.717891119389348
_cell_length_b       16.046188652406276
_cell_length_c       18.458
_cell_angle_alpha    68.66445633529142
_cell_angle_beta     88.42801440278132
_cell_angle_gamma    83.58086738548775

_space_group_name_H-M_alt    "P 1"
_space_group_IT_number       1

loop_
  _space_group_symop_operation_xyz
  'x, y, z'

loop_
  _atom_site_type_symbol
  _atom_site_label
  _atom_site_symmetry_multiplicity
  _atom_site_fract_x
  _atom_site_fract_y
  _atom_site_fract_z
  _atom_site_occupancy
  Hg  Hg1       1.0  0.2084256790463782  0.4630028781711317  0.3266338501225547  1.0000
  Hg  Hg2       1.0  0.7915852235552236  0.5370051524729647  0.673370798711943  1.0000
  Hg  Hg3       1.0  0.4165601232406572  0.7800574995598167  0.007302695739205937  1.0000
  Hg  Hg4       1.0  0.5834707155172082  0.21991149182875344  0.9926896924485646  1.0000
  H   H1        1.0  0.5445925467604056  0.5721519249864144  0.19479321306600642  1.0000
  H   H2        1.0  0.4554331457356183  0.4278352398486972  0.8052276176245315  1.0000
  H   H3        1.0  0.841541184602569  0.4849752481259202  0.2260486294522437  1.0000
  H   H4        1.0  0.1584868150592058  0.5150132628904132  0.7739815008599251  1.0000
  H   H5        1.0  0.9547472825784453  0.6083917966545798  0.37787423240092727  1.0000
  H   H6        1.0  0.04525529820404021  0.3916310419829898  0.6221323295233674  1.0000
  H   H7        1.0  0.6659421210981475  0.7009545445963852  0.354178766454993  1.0000
  H   H8        1.0  0.33404718707254216  0.2990575245913902  0.6458237691903506  1.0000
  H   H9        1.0  0.08589627888893862  0.6532229969008297  0.11544378922465633  1.0000
  H   H10       1.0  0.9141512932293452  0.3467587832093812  0.8845649493630034  1.0000
  H   H11       1.0  0.8074632924867657  0.6741722691246039  0.040166598140700706  1.0000
  H   H12       1.0  0.192579899221542  0.32578124117988233  0.9598397549539969  1.0000
  H   H13       1.0  0.5978747024297136  0.8805633898198548  0.11110109365769467  1.0000
  H   H14       1.0  0.4020927789922056  0.1194109862936159  0.888900070012923  1.0000
  H   H15       1.0  0.8670566513515964  0.8686234354445401  0.18956214157330467  1.0000
  H   H16       1.0  0.1329220935251811  0.1313650755718001  0.8104425487356153  1.0000
  H   H17       1.0  0.8940732114338272  0.1456265194696655  0.3932043170026844  1.0000
  H   H18       1.0  0.10591178041417489  0.8543875689899423  0.6067867940688533  1.0000
  H   H19       1.0  0.0400148570725705  0.2835448052448655  0.31577544640266814  1.0000
  H   H20       1.0  0.9599722993455088  0.7164713024865819  0.6842247530346842  1.0000
  H   H21       1.0  0.06951240895072888  0.3580027618913633  0.5066614482939329  1.0000
  H   H22       1.0  0.9304324269970579  0.6420234421992745  0.49333008373619697  1.0000
  H   H23       1.0  0.9308246575137815  0.2217402790229386  0.5936686849992867  1.0000
  H   H24       1.0  0.0691293942795497  0.7782852519770811  0.4063142858831129  1.0000
  H   H25       1.0  0.6284787643228212  0.8205916893357994  0.7091577320267747  1.0000
  H   H26       1.0  0.3715141600096317  0.1794277838487091  0.2908326684637927  1.0000
  H   H27       1.0  0.5411566476570896  0.7441487884730051  0.8454805877268399  1.0000
  H   H28       1.0  0.4588437429204149  0.255859915261702  0.154505006827506  1.0000
  H   H29       1.0  0.6554282025106131  0.9546901858850063  0.9091018003603751  1.0000
  H   H30       1.0  0.3445671074959904  0.0452996713125557  0.0908973982193686  1.0000
  H   H31       1.0  0.754601028813731  0.0411843953076669  0.7747965883561179  1.0000
  H   H32       1.0  0.2453934256188077  0.9588095004335668  0.22520296800024664  1.0000
  H   H33       1.0  0.3848581898163417  0.7794456601930477  0.3224177689766208  1.0000
  H   H34       1.0  0.6151475152535895  0.2205563126355372  0.6775812707127501  1.0000
  H   H35       1.0  0.6985198613933009  0.9075475924753957  0.5859388503692672  1.0000
  H   H36       1.0  0.3014635490847937  0.09246784216544059  0.4140561872226129  1.0000
  C   C1        1.0  0.4096627488370713  0.6954614521076863  0.2528199820672583  1.0000
  C   C2        1.0  0.5903464041640306  0.3045364821772196  0.7471873384377475  1.0000
  C   C3        1.0  0.15421320360886173  0.7459802680296475  0.20563352445135058  1.0000
  C   C4        1.0  0.8457936294090374  0.2540102622585252  0.7943653290612787  1.0000
  C   C5        1.0  0.5811617380426669  0.6444209909610306  0.27149521145594246  1.0000
  C   C6        1.0  0.4188415172658394  0.3555803087769362  0.7285181552582429  1.0000
  C   C7        1.0  0.6318519516252581  0.5817912556481772  0.23587079422152607  1.0000
  C   C8        1.0  0.3681579271716869  0.4182093709991861  0.7641443347203848  1.0000
  C   C9        1.0  0.7957856432454092  0.5332997886510924  0.25336986943544565  1.0000
  C   C10       1.0  0.20420751500857648  0.4666941070901416  0.746643246051498  1.0000
  C   C11       1.0  0.8589767719013679  0.6029209161561012  0.33777597172183255  1.0000
  C   C12       1.0  0.14104219296289952  0.3970857683067734  0.6622344281218205  1.0000
  C   C13       1.0  0.6978499108125787  0.6543524429486212  0.3238857083392332  1.0000
  C   C14       1.0  0.30216300094595977  0.3456522222424141  0.6761243160704709  1.0000
  C   C15       1.0  0.9957440290503997  0.75830321096349  0.15986505071299462  1.0000
  C   C16       1.0  0.0042801990364793995  0.2416725113312097  0.8401312438638656  1.0000
  C   C17       1.0  0.9800291967064464  0.7040029719804437  0.1160789339973789  1.0000
  C   C18       1.0  0.0199821993731248  0.2959660194081266  0.8839218037668176  1.0000
  C   C19       1.0  0.8266533752714977  0.7159045601908502  0.07407443868003585  1.0000
  C   C20       1.0  0.1733679496320093  0.2840603926540481  0.9259263790025969  1.0000
  C   C21       1.0  0.708735454801065  0.8304854482490924  0.1146267571363495  1.0000
  C   C22       1.0  0.29127438554350954  0.1694970049517295  0.8853751583486656  1.0000
  C   C23       1.0  0.8573728751282417  0.8234826135165321  0.15816847006237109  1.0000
  C   C24       1.0  0.14264068552140688  0.1764883971438778  0.841841897838151  1.0000
  C   C25       1.0  0.8256610095221361  0.09237832111397637  0.548777578876134  1.0000
  C   C26       1.0  0.17431477929778083  0.9076424982517608  0.45122126071387914  1.0000
  C   C27       1.0  0.739340393088838  0.9921456591993658  0.6503471174485824  1.0000
  C   C28       1.0  0.26065826070562537  0.0078590059916692  0.34964085791752103  1.0000
  C   C29       1.0  0.9015503505986756  0.1732225614919756  0.49970281399814814  1.0000
  C   C30       1.0  0.09844069435505533  0.8267935462394718  0.5002935484418956  1.0000
  C   C31       1.0  0.9316119096080084  0.191060808904723  0.42035967235599264  1.0000
  C   C32       1.0  0.06835061941757202  0.8089552988267243  0.5796375589488463  1.0000
  C   C33       1.0  0.011589275641291903  0.2670944706751115  0.3775733984557021  1.0000
  C   C34       1.0  0.9883847763955774  0.7329223101469466  0.6224251130935344  1.0000
  C   C35       1.0  0.02909242931229979  0.3084747353510195  0.4844833149751225  1.0000
  C   C36       1.0  0.9708660813993999  0.6915481032865571  0.5155107499663885  1.0000
  C   C37       1.0  0.9512039134673599  0.233796004983617  0.5321361808437717  1.0000
  C   C38       1.0  0.04875878378880573  0.7662315452882495  0.46784984458926  1.0000
  C   C39       1.0  0.6926563414535422  0.9400645999657655  0.7297418002803866  1.0000
  C   C40       1.0  0.3073535501608617  0.0599420844971021  0.2702443239659544  1.0000
  C   C41       1.0  0.6355759195541779  0.8545578609149088  0.7504152052432005  1.0000
  C   C42       1.0  0.3644118072466114  0.1454555544540881  0.2495733784957821  1.0000
  C   C43       1.0  0.5867179263624109  0.8107988940143898  0.8269008681212142  1.0000
  C   C44       1.0  0.4132769943095269  0.1892111559015461  0.1730870722457212  1.0000
  C   C45       1.0  0.6514094439493688  0.9278581017078906  0.8626308110951015  1.0000
  C   C46       1.0  0.34859062298441046  0.0721337747615038  0.1373633600814586  1.0000
  C   C47       1.0  0.7045030921954945  0.9763966850478454  0.7879372963394715  1.0000
  C   C48       1.0  0.2954884975060423  0.0236046146901217  0.21205344982475793  1.0000
  I   I1        1.0  0.2948983538888044  0.5145952736200456  0.4429125147504037  1.0000
  I   I2        1.0  0.7051434887674688  0.4854013144836387  0.5570986489617198  1.0000
  I   I3        1.0  0.27620440272829677  0.4149300735350323  0.20373982390854914  1.0000
  I   I4        1.0  0.7237751320316048  0.5850914189213157  0.7962598433628969  1.0000
  I   I5        1.0  0.43066374312794403  0.6144718241573841  0.0035582410185100175  1.0000
  I   I6        1.0  0.569451087679397  0.3855106290434378  0.996412672786974  1.0000
  I   I7        1.0  0.23145764018473614  0.9326747381310199  0.00572562149064036  1.0000
  I   I8        1.0  0.7685572038260062  0.0672902147138785  0.9942877312532374  1.0000
  N   N1        1.0  0.17485514890905315  0.7904345375328885  0.25357221895563964  1.0000
  N   N2        1.0  0.8251348466051169  0.2095620505707956  0.7464287040632485  1.0000
  N   N3        1.0  0.3376555731680781  0.7579505114825338  0.28219857573438395  1.0000
  N   N4        1.0  0.6623406308649534  0.2420534806178907  0.7177999342629988  1.0000
  N   N5        1.0  0.294922612228163  0.6873109978808003  0.203799295705906  1.0000
  N   N6        1.0  0.7050966121925483  0.3126822247698229  0.7962115665963765  1.0000
  N   N7        1.0  0.9075509907406242  0.5439406781442739  0.3030363731304605  1.0000
  N   N8        1.0  0.0924470798536703  0.4560606215936999  0.6969727188913666  1.0000
  N   N9        1.0  0.6929088674902389  0.7772083069970677  0.07398186612313398  1.0000
  N   N10       1.0  0.3071090094820973  0.2227606843915098  0.926027465629545  1.0000
  N   N11       1.0  0.7326968200732364  0.9659011831269735  0.5880588802897151  1.0000
  N   N12       1.0  0.2672914899277146  0.0341155976950844  0.41192754876125554  1.0000
  N   N13       1.0  0.7871443218027634  0.0283169220683064  0.5228836522957181  1.0000
  N   N14       1.0  0.21283824591872502  0.9717086089317133  0.47710657627947495  1.0000
  N   N15       1.0  0.7961560863292263  0.0732463935439824  0.6261662695185989  1.0000
  N   N16       1.0  0.2038255745483751  0.9267589447376636  0.3738330650553011  1.0000
  N   N17       1.0  0.060455889968920914  0.3243892897932099  0.4090791164643974  1.0000
  N   N18       1.0  0.9395134051407723  0.6756254717570085  0.5909195465534723  1.0000
  N   N19       1.0  0.591550261865727  0.8472326157789638  0.8815164399135044  1.0000
  N   N20       1.0  0.4084381522785349  0.15276531850594915  0.11847811598610751  1.0000
