data_image0
_chemical_formula_structural       Zn12H108C120O66
_chemical_formula_sum              "Zn12 H108 C120 O66"
_cell_length_a       17.1069720883726
_cell_length_b       17.107016036635095
_cell_length_c       17.106972613864972
_cell_angle_alpha    108.46628569348839
_cell_angle_beta     108.46624083225774
_cell_angle_gamma    108.46632013611695

_space_group_name_H-M_alt    "P 1"
_space_group_IT_number       1

loop_
  _space_group_symop_operation_xyz
  'x, y, z'

loop_
  _atom_site_type_symbol
  _atom_site_label
  _atom_site_symmetry_multiplicity
  _atom_site_fract_x
  _atom_site_fract_y
  _atom_site_fract_z
  _atom_site_occupancy
  Zn  Zn1       1.0  0.6617172494506035  0.22683187348419395  0.8638111663922318  1.0000
  Zn  Zn2       1.0  0.22683569287679003  0.863812284525366  0.6617158485930476  1.0000
  Zn  Zn3       1.0  0.8638142554201237  0.6617205252377046  0.2268402698633736  1.0000
  Zn  Zn4       1.0  0.3382817885950686  0.7731632262348425  0.13618807738505007  1.0000
  Zn  Zn5       1.0  0.7731661420491918  0.13618965136325303  0.3382858516557904  1.0000
  Zn  Zn6       1.0  0.1361882798857863  0.3382829670205324  0.7731627273705542  1.0000
  Zn  Zn7       1.0  0.7705230753413872  0.4248131549008249  0.1154651312917707  1.0000
  Zn  Zn8       1.0  0.42481204102895015  0.11546297979295159  0.7705202705674739  1.0000
  Zn  Zn9       1.0  0.11546496823906692  0.770522961321646  0.42481228631827167  1.0000
  Zn  Zn10      1.0  0.22948083683066758  0.5751860422148382  0.8845369446781179  1.0000
  Zn  Zn11      1.0  0.5751863118426571  0.884536732084477  0.22947845923466298  1.0000
  Zn  Zn12      1.0  0.8845375614395791  0.22947990997600695  0.5751887594348163  1.0000
  H   H1        1.0  0.980818425708776  0.4467019640357392  0.17159175568411217  1.0000
  H   H2        1.0  0.4467000428563495  0.17159190909122657  0.9808177968078199  1.0000
  H   H3        1.0  0.1715913798259763  0.9808185977290335  0.4467026030493457  1.0000
  H   H4        1.0  0.019181305510727505  0.5532953001766783  0.8284048828720856  1.0000
  H   H5        1.0  0.5532955276484941  0.828404673124872  0.019181404877258494  1.0000
  H   H6        1.0  0.8284027967325044  0.019178570554018413  0.5532934208078615  1.0000
  H   H7        1.0  0.21283809386677177  0.5390402274806192  0.11371896759912657  1.0000
  H   H8        1.0  0.5390366483454443  0.11371834626135784  0.21283702021829515  1.0000
  H   H9        1.0  0.1137168338718624  0.21283678759246527  0.5390365774281776  1.0000
  H   H10       1.0  0.7871623527401184  0.4609629154355233  0.8862815063026803  1.0000
  H   H11       1.0  0.4609610237931178  0.8862835208894423  0.7871656824280608  1.0000
  H   H12       1.0  0.8862808157576296  0.7871625957160118  0.4609583192948393  1.0000
  H   H13       1.0  0.939808277574606  0.33284672375331326  0.8903423973267766  1.0000
  H   H14       1.0  0.3328417219541393  0.8903420849709606  0.9398084067618913  1.0000
  H   H15       1.0  0.8903410142303586  0.9398078589928786  0.3328417679478123  1.0000
  H   H16       1.0  0.0601921656761846  0.6671570311376485  0.10965593047496475  1.0000
  H   H17       1.0  0.667154558112415  0.10965790879440364  0.060194434138566184  1.0000
  H   H18       1.0  0.10965593600703018  0.06019119959769629  0.6671510518021863  1.0000
  H   H19       1.0  0.2741888038303557  0.6564123090759679  0.27114294045937737  1.0000
  H   H20       1.0  0.6564101766577793  0.27114234692336237  0.27418680634208686  1.0000
  H   H21       1.0  0.271140627657303  0.27418853407393584  0.6564119502532153  1.0000
  H   H22       1.0  0.7258123289384315  0.3435874533335052  0.7288572674296462  1.0000
  H   H23       1.0  0.34358678819024385  0.7288573416135619  0.7258120624696504  1.0000
  H   H24       1.0  0.7288577260037314  0.7258105632613122  0.3435877549115888  1.0000
  H   H25       1.0  0.2817282157111692  0.5509434517886193  0.25492773515834  1.0000
  H   H26       1.0  0.5509425779558441  0.2549297553596972  0.28172845863890944  1.0000
  H   H27       1.0  0.2549285981589549  0.2817296830788791  0.5509432262128586  1.0000
  H   H28       1.0  0.7182715229128505  0.44905505049391076  0.7450710502534222  1.0000
  H   H29       1.0  0.4490564778623777  0.7450715154547037  0.718272738885709  1.0000
  H   H30       1.0  0.7450725430021875  0.7182725490524149  0.449058348543801  1.0000
  H   H31       1.0  0.27180682506383386  0.6748519926900868  0.4238745125142317  1.0000
  H   H32       1.0  0.674851191331264  0.42387221365874683  0.27180228999652206  1.0000
  H   H33       1.0  0.423870902651359  0.27180312868479456  0.6748504855508629  1.0000
  H   H34       1.0  0.7281929166207773  0.32514712798566586  0.576125053640965  1.0000
  H   H35       1.0  0.3251471518646483  0.576125027213166  0.7281944875692761  1.0000
  H   H36       1.0  0.5761246556111104  0.728190979958434  0.32514559316047104  1.0000
  H   H37       1.0  0.375083996751286  0.6733958457291109  0.4236539709650345  1.0000
  H   H38       1.0  0.6733961334416066  0.4236547389072598  0.3750801611678798  1.0000
  H   H39       1.0  0.42365424232228593  0.3750812974558571  0.6733965569682285  1.0000
  H   H40       1.0  0.6249171373008408  0.326603917964043  0.576346822292692  1.0000
  H   H41       1.0  0.3266043044774208  0.5763471646550895  0.6249175805096601  1.0000
  H   H42       1.0  0.5763475778917383  0.6249150857306135  0.3266039702767147  1.0000
  H   H43       1.0  0.2844289857196074  0.5723131502398929  0.4073905507332257  1.0000
  H   H44       1.0  0.5723129741678576  0.40739148089128446  0.284425615161247  1.0000
  H   H45       1.0  0.4073890286788142  0.2844266460466329  0.5723127230150099  1.0000
  H   H46       1.0  0.7155714532843475  0.42768690841224816  0.5926095316636195  1.0000
  H   H47       1.0  0.4276881587993414  0.5926101277120706  0.7155728373771737  1.0000
  H   H48       1.0  0.5926086236144457  0.7155696632672885  0.42768646515263964  1.0000
  H   H49       1.0  0.3848870644075717  0.32680039968118274  0.8462640387153259  1.0000
  H   H50       1.0  0.3268008126186714  0.8462571080014241  0.38488649379285533  1.0000
  H   H51       1.0  0.8462592580422524  0.38488424625689543  0.32680308168183114  1.0000
  H   H52       1.0  0.6151182521759537  0.6732000678308693  0.15374414268142536  1.0000
  H   H53       1.0  0.6731961510431075  0.1537395026898948  0.6151149103574128  1.0000
  H   H54       1.0  0.1537453527324786  0.6151158901188437  0.6732000958984018  1.0000
  H   H55       1.0  0.48963093333243535  0.6165382544880202  0.9162821096288597  1.0000
  H   H56       1.0  0.6165416088959004  0.916280801695471  0.48962903207961267  1.0000
  H   H57       1.0  0.9162805975113103  0.48963272203876324  0.6165437058839133  1.0000
  H   H58       1.0  0.5103695123837113  0.3834605802144964  0.08372226496811666  1.0000
  H   H59       1.0  0.3834567324256711  0.08371889862882405  0.5103644294042199  1.0000
  H   H60       1.0  0.08372124146309548  0.5103710638947802  0.38345799512042333  1.0000
  H   H61       1.0  0.6759693779021276  0.49364865433917515  0.9391137514139204  1.0000
  H   H62       1.0  0.4936528910917631  0.9391142988687305  0.6759698102540171  1.0000
  H   H63       1.0  0.9391107308555605  0.6759688943411605  0.49364968726630587  1.0000
  H   H64       1.0  0.324033156711458  0.5063523758993184  0.060891391164567224  1.0000
  H   H65       1.0  0.5063517094162718  0.060885827237555534  0.32402868437662147  1.0000
  H   H66       1.0  0.060889007966871106  0.3240314541352588  0.5063473427948537  1.0000
  H   H67       1.0  0.6187048584589971  0.7248119398183019  0.038036442912101495  1.0000
  H   H68       1.0  0.7248162303084201  0.038036394813474414  0.6187019129716805  1.0000
  H   H69       1.0  0.038034554551941796  0.6187042828564627  0.7248131437023915  1.0000
  H   H70       1.0  0.3812976758590807  0.2751903207882194  0.9619673343097548  1.0000
  H   H71       1.0  0.2751862692582279  0.961960908377854  0.3812909353531141  1.0000
  H   H72       1.0  0.9619658724080579  0.38129514841669726  0.27518206037012055  1.0000
  H   H73       1.0  0.6343452506747128  0.7468833311454119  0.9473069870939103  1.0000
  H   H74       1.0  0.7468867896162904  0.947307881583306  0.6343440372655352  1.0000
  H   H75       1.0  0.947307060573344  0.6343476195684445  0.7468891457409302  1.0000
  H   H76       1.0  0.36565379526939507  0.25311362246959845  0.05269401354497204  1.0000
  H   H77       1.0  0.2531143288373698  0.052690020511782606  0.3656514869183952  1.0000
  H   H78       1.0  0.0526933728033399  0.36565181812311925  0.2531089851750821  1.0000
  H   H79       1.0  0.758911580020012  0.8753963704296479  0.10568556624279077  1.0000
  H   H80       1.0  0.8754005496513955  0.10568817877174304  0.758911121445671  1.0000
  H   H81       1.0  0.1056897115430075  0.7589131953752924  0.8753969487712752  1.0000
  H   H82       1.0  0.24108955551385952  0.12460524074106871  0.8943140570330359  1.0000
  H   H83       1.0  0.1246012688866998  0.8943125100609917  0.24108433436670396  1.0000
  H   H84       1.0  0.8943121027482448  0.24108379721862855  0.12460026163620341  1.0000
  H   H85       1.0  0.7903728039392276  0.7946094331379925  0.1338378315023051  1.0000
  H   H86       1.0  0.7946103810380548  0.1338374637589936  0.7903707066468187  1.0000
  H   H87       1.0  0.1338387715666229  0.7903714159738013  0.794606622238753  1.0000
  H   H88       1.0  0.20962903019733398  0.2053931172928073  0.8661628933838729  1.0000
  H   H89       1.0  0.2053907361322729  0.8661604370524144  0.2096242321684088  1.0000
  H   H90       1.0  0.8661630501291526  0.20962681469023176  0.2053927350242831  1.0000
  H   H91       1.0  0.8089505407792786  0.8187508336713804  0.04520136917262374  1.0000
  H   H92       1.0  0.8187526727054005  0.04520101616439823  0.8089481284779653  1.0000
  H   H93       1.0  0.04520608999026621  0.8089528380215752  0.8187525861416989  1.0000
  H   H94       1.0  0.19104919883257307  0.18124890026286514  0.9547966362512029  1.0000
  H   H95       1.0  0.18124913566308717  0.9547965858369662  0.19104576509204912  1.0000
  H   H96       1.0  0.9547992124765442  0.19104761536997467  0.18124915619934978  1.0000
  H   H97       1.0  0.6683878150216814  0.24353136755339483  0.044902155547610935  1.0000
  H   H98       1.0  0.24352864128668017  0.044901630564112324  0.668387370625304  1.0000
  H   H99       1.0  0.04490152999044739  0.6683870524350156  0.24352894498138516  1.0000
  H   H100      1.0  0.33161192715684956  0.7564683689482049  0.9550970206136146  1.0000
  H   H101      1.0  0.756468324350763  0.9550974434306383  0.3316124735491002  1.0000
  H   H102      1.0  0.9550982134714232  0.33161268535027233  0.756470816548543  1.0000
  H   H103      1.0  0.6302254447113143  0.287883859395791  0.11254840824568661  1.0000
  H   H104      1.0  0.2878833189775846  0.11254756947651857  0.6302263678798781  1.0000
  H   H105      1.0  0.11254845539666287  0.6302275651948221  0.2878837293109342  1.0000
  H   H106      1.0  0.3697749952804799  0.7121174309080659  0.8874508941632231  1.0000
  H   H107      1.0  0.7121157266710227  0.8874506145065124  0.36977326740237254  1.0000
  H   H108      1.0  0.8874519853845514  0.36977311056686096  0.7121165484606424  1.0000
  C   C1        1.0  0.8483410175249234  0.3329974324133715  0.9936532278303006  1.0000
  C   C2        1.0  0.3329939376259858  0.9936517192049193  0.8483384594810985  1.0000
  C   C3        1.0  0.9936532746220124  0.8483429290308775  0.3329983978822995  1.0000
  C   C4        1.0  0.1516587085612287  0.6669998266643161  0.006341069251092785  1.0000
  C   C5        1.0  0.6670044140593772  0.0063449148269042336  0.15166280565956913  1.0000
  C   C6        1.0  0.0063430033717751  0.15165767799298638  0.6670028822867878  1.0000
  C   C7        1.0  0.9504932504165496  0.38497779486957023  0.027531051929948216  1.0000
  C   C8        1.0  0.3849741103685388  0.027529277476403977  0.9504927541653317  1.0000
  C   C9        1.0  0.027529856117588694  0.9504965189769621  0.3849751909720851  1.0000
  C   C10       1.0  0.04950580076223329  0.6150240866359552  0.9724674141259015  1.0000
  C   C11       1.0  0.6150249404134199  0.972468911641357  0.049509222591716175  1.0000
  C   C12       1.0  0.9724691937778545  0.049505361244882834  0.6150226897150619  1.0000
  C   C13       1.0  0.0093768669683811  0.44241561504625787  0.12263736395488678  1.0000
  C   C14       1.0  0.4424111367101061  0.12263619043118716  0.00937571221643908  1.0000
  C   C15       1.0  0.12263675480600261  0.009378214284055303  0.4424140606834045  1.0000
  C   C16       1.0  0.9906214810653822  0.557582861328406  0.8773603897290773  1.0000
  C   C17       1.0  0.5575858284334245  0.877362267737702  0.9906245219519364  1.0000
  C   C18       1.0  0.8773615950050128  0.9906208792001507  0.557583888375298  1.0000
  C   C19       1.0  0.10469895399027251  0.49515185432206726  0.15473599935020133  1.0000
  C   C20       1.0  0.4951493769901987  0.15473527610522098  0.1046983753010124  1.0000
  C   C21       1.0  0.1547341123738448  0.10470051333444269  0.49515011216733756  1.0000
  C   C22       1.0  0.8953000962006712  0.504848795531757  0.845263246693577  1.0000
  C   C23       1.0  0.5048496744840847  0.8452653750322766  0.8953014561114687  1.0000
  C   C24       1.0  0.8452628481302468  0.8952985555255779  0.5048473905322696  1.0000
  C   C25       1.0  0.14039383598086627  0.49423539894569735  0.09165037230161488  1.0000
  C   C26       1.0  0.49423151216534217  0.09164894633386916  0.14039320461273525  1.0000
  C   C27       1.0  0.09164845583400451  0.1403944906214818  0.49423315348719404  1.0000
  C   C28       1.0  0.8596059123188483  0.5057655743423409  0.908350365346479  1.0000
  C   C29       1.0  0.5057654565326929  0.9083507460540969  0.8596074203050962  1.0000
  C   C30       1.0  0.9083484995367358  0.859604573103816  0.5057620077376088  1.0000
  C   C31       1.0  0.08054158451277968  0.4348922273398442  0.9962264846531854  1.0000
  C   C32       1.0  0.43488886977389274  0.9962255329575738  0.08054074554502925  1.0000
  C   C33       1.0  0.9962247708638684  0.08054110534900624  0.43489028520976114  1.0000
  C   C34       1.0  0.9194588529123278  0.5651090603966507  0.0037716470183254895  1.0000
  C   C35       1.0  0.5651081045514134  0.003774780390969737  0.9194618308536422  1.0000
  C   C36       1.0  0.003772187073551  0.919457960943653  0.5651060467524404  1.0000
  C   C37       1.0  0.9863423121907928  0.3789286271857931  0.9640690223916125  1.0000
  C   C38       1.0  0.37892415852407885  0.9640678273571409  0.9863413864919794  1.0000
  C   C39       1.0  0.9640667406062916  0.986341696558959  0.378924480677014  1.0000
  C   C40       1.0  0.013657430186150099  0.6210729555096958  0.035928398419017  1.0000
  C   C41       1.0  0.621073506011548  0.03593095552965046  0.013660924649400417  1.0000
  C   C42       1.0  0.03592882012576129  0.013655491213548  0.6210696480644914  1.0000
  C   C43       1.0  0.11804547656598169  0.4356289329613786  0.9286711628062891  1.0000
  C   C44       1.0  0.43562487091117674  0.9286699745217887  0.11804453584215223  1.0000
  C   C45       1.0  0.9286674038728223  0.11804174764048993  0.43562456553988255  1.0000
  C   C46       1.0  0.8819577557637714  0.5643767276412817  0.07133098531264889  1.0000
  C   C47       1.0  0.5643755846790767  0.07133317738013291  0.8819600356405602  1.0000
  C   C48       1.0  0.07132955179341852  0.8819560857167799  0.5643719610415515  1.0000
  C   C49       1.0  0.2575193539564964  0.5980780846406404  0.28803358953133806  1.0000
  C   C50       1.0  0.5980759703263702  0.288033288676381  0.2575180561021214  1.0000
  C   C51       1.0  0.28803361803982597  0.25752035934651457  0.5980773481007731  1.0000
  C   C52       1.0  0.742479690902691  0.4019207138845644  0.7119650703882457  1.0000
  C   C53       1.0  0.40192238688916854  0.7119670428779372  0.7424820398121454  1.0000
  C   C54       1.0  0.711966820174709  0.7424803138478069  0.4019217589334049  1.0000
  C   C55       1.0  0.2993767355972423  0.6313810556977086  0.39187912513207823  1.0000
  C   C56       1.0  0.6313808269310782  0.391878304664864  0.29937299013183605  1.0000
  C   C57       1.0  0.3918786899336623  0.299375119179217  0.6313821011181204  1.0000
  C   C58       1.0  0.7006237024188805  0.3686177713027233  0.6081217372527022  1.0000
  C   C59       1.0  0.368618218915941  0.6081217255120563  0.7006248897998122  1.0000
  C   C60       1.0  0.6081217445279492  0.7006224736021452  0.36861837051718993  1.0000
  C   C61       1.0  0.5474923181537719  0.3190951426700366  0.8802523849478521  1.0000
  C   C62       1.0  0.319096957854704  0.8802483078254112  0.5474903588474903  1.0000
  C   C63       1.0  0.8802492131481969  0.5474891812771004  0.3190973711433358  1.0000
  C   C64       1.0  0.4525129937903216  0.6809059355331396  0.11975306498013073  1.0000
  C   C65       1.0  0.6809034788780862  0.1197505178913474  0.4525099181685874  1.0000
  C   C66       1.0  0.1197505320909258  0.45251117361772225  0.6809025857613309  1.0000
  C   C67       1.0  0.5317375773580508  0.40159920930397414  0.8895109761164479  1.0000
  C   C68       1.0  0.4016005187890244  0.8895065649931053  0.5317355369136295  1.0000
  C   C69       1.0  0.8895085763925793  0.5317345767612168  0.4016015065523748  1.0000
  C   C70       1.0  0.4682677376466343  0.5984024872924179  0.11049525455496928  1.0000
  C   C71       1.0  0.5984006117085982  0.11049196448097115  0.4682648655946339  1.0000
  C   C72       1.0  0.11049395180432238  0.46826644705887316  0.5984007091826129  1.0000
  C   C73       1.0  0.4426657316065245  0.3931854411576125  0.8690406635224407  1.0000
  C   C74       1.0  0.393188803269986  0.8690358701099256  0.44266476667462484  1.0000
  C   C75       1.0  0.8690369206181928  0.44266490474809217  0.39319080194624706  1.0000
  C   C76       1.0  0.5573381964594972  0.6068143871880736  0.1309680468778752  1.0000
  C   C77       1.0  0.6068109432524764  0.13096448606858496  0.5573357755987376  1.0000
  C   C78       1.0  0.13096699816896523  0.5573361449798638  0.606812445516539  1.0000
  C   C79       1.0  0.4289232931998157  0.4711179258352515  0.8784260296969465  1.0000
  C   C80       1.0  0.4711205927499336  0.8784219404724566  0.4289226211423768  1.0000
  C   C81       1.0  0.8784218747339452  0.4289230617252571  0.4711218234150395  1.0000
  C   C82       1.0  0.5710799411013737  0.5288821987531165  0.12158255521119804  1.0000
  C   C83       1.0  0.5288791544648533  0.1215808777257905  0.5710757757864188  1.0000
  C   C84       1.0  0.12158204632438441  0.5710792209380885  0.5288812294285139  1.0000
  C   C85       1.0  0.5033182246957466  0.5574111084475887  0.9092109707091185  1.0000
  C   C86       1.0  0.557413414006909  0.9092079069292396  0.5033167933363458  1.0000
  C   C87       1.0  0.909207881877414  0.503320666101942  0.5574171074758497  1.0000
  C   C88       1.0  0.49668292169584305  0.44258805225651787  0.0907960662295793  1.0000
  C   C89       1.0  0.44258493422525896  0.09079241563931356  0.4966792049970224  1.0000
  C   C90       1.0  0.09079674133810299  0.49668379004055646  0.44258743772751796  1.0000
  C   C91       1.0  0.5928747156008071  0.5658811655240112  0.9322259403387038  1.0000
  C   C92       1.0  0.5658845108164599  0.9322237552929591  0.592871907512297  1.0000
  C   C93       1.0  0.9322247343183037  0.5928737927150393  0.5658836972011373  1.0000
  C   C94       1.0  0.4071285140609504  0.4341195697554808  0.06777991310066511  1.0000
  C   C95       1.0  0.43411730623988376  0.06777508606220549  0.4071247182819776  1.0000
  C   C96       1.0  0.06777779842093419  0.40712969697582935  0.43411812929538485  1.0000
  C   C97       1.0  0.606324501863085  0.48705586208107804  0.9200509412125514  1.0000
  C   C98       1.0  0.487059573959705  0.9200496617199504  0.6063241157483221  1.0000
  C   C99       1.0  0.9200481386679727  0.6063238162878903  0.4870587681798429  1.0000
  C   C100      1.0  0.3936787295759245  0.5129454903079562  0.07995510760155608  1.0000
  C   C101      1.0  0.5129443384107618  0.07995138158959497  0.3936762048709711  1.0000
  C   C102      1.0  0.07995299943257808  0.393677797450188  0.5129420258333824  1.0000
  C   C103      1.0  0.3346213358062968  0.4635256606167885  0.8591389585463818  1.0000
  C   C104      1.0  0.4635253574870219  0.8591363181643671  0.3346211797454118  1.0000
  C   C105      1.0  0.8591330995699946  0.3346226086993126  0.4635306421909037  1.0000
  C   C106      1.0  0.6653819028388241  0.5364750836484758  0.14087099247389295  1.0000
  C   C107      1.0  0.5364695364345167  0.1408691921258338  0.6653771194815478  1.0000
  C   C108      1.0  0.14087013463410608  0.6653805924509725  0.5364748220099999  1.0000
  C   C109      1.0  0.6649121862835798  0.732955967478908  0.005427485250066951  1.0000
  C   C110      1.0  0.7329604615035522  0.005427797716258522  0.6649095822429348  1.0000
  C   C111      1.0  0.0054276079762801  0.6649134991078968  0.7329594728477178  1.0000
  C   C112      1.0  0.335088953395811  0.26704441717482297  0.9945752594884925  1.0000
  C   C113      1.0  0.26704203984034797  0.994570122584605  0.3350834614565912  1.0000
  C   C114      1.0  0.9945735237075866  0.335088108211778  0.26703839432200743  1.0000
  C   C115      1.0  0.7619030598065493  0.8098534846806229  0.07654736191693008  1.0000
  C   C116      1.0  0.8098562591280044  0.0765484182062011  0.7619008511335397  1.0000
  C   C117      1.0  0.076550391872928  0.7619052749932395  0.8098547332245121  1.0000
  C   C118      1.0  0.2380973801852377  0.1901478056232334  0.9234519404919868  1.0000
  C   C119      1.0  0.19014415865022022  0.923449157887312  0.23809201070866964  1.0000
  C   C120      1.0  0.9234528249554543  0.23809544744944594  0.19014526652786412  1.0000
  O   O1        1.0  0.7968872993749654  0.283361980280709  0.9055617168986387  1.0000
  O   O2        1.0  0.2833618359846639  0.9055598578187796  0.7968868240450675  1.0000
  O   O3        1.0  0.9055618777470187  0.7968889785232988  0.2833667396563159  1.0000
  O   O4        1.0  0.2031124237476831  0.7166315838418456  0.09443492014655415  1.0000
  O   O5        1.0  0.7166372086761116  0.0944370945125428  0.2031135912251118  1.0000
  O   O6        1.0  0.0944343984695166  0.2031110113910231  0.71663434513804  1.0000
  O   O7        1.0  0.8172687518759787  0.33983003980490156  0.052403581064524585  1.0000
  O   O8        1.0  0.3398291070610639  0.05240244876132742  0.8172674537381115  1.0000
  O   O9        1.0  0.052402848350595804  0.8172704092278947  0.3398317917289475  1.0000
  O   O10       1.0  0.18272889271725748  0.6601662618069281  0.9475920948909221  1.0000
  O   O11       1.0  0.6601685470094552  0.9475944776621287  0.18273192980426956  1.0000
  O   O12       1.0  0.9475920332272595  0.18272770473363664  0.6601682605821113  1.0000
  O   O13       1.0  0.0693605107145601  0.366483334854763  0.8457336460073394  1.0000
  O   O14       1.0  0.36647565105899094  0.8457319080420261  0.0693579757653425  1.0000
  O   O15       1.0  0.8457266555560848  0.06935198806851867  0.3664764669810695  1.0000
  O   O16       1.0  0.9306441141811207  0.6335248149591806  0.15426797386352598  1.0000
  O   O17       1.0  0.6335241189603736  0.15427216363050897  0.9306495924434233  1.0000
  O   O18       1.0  0.1542668239785598  0.930643011870103  0.6335204059911278  1.0000
  O   O19       1.0  0.1951532316758104  0.5032387231855252  0.9556688572581538  1.0000
  O   O20       1.0  0.5032319008195927  0.9556649663008443  0.19514847301405783  1.0000
  O   O21       1.0  0.95565760202755  0.19514391167473386  0.5032307495494807  1.0000
  O   O22       1.0  0.8048520922151426  0.49676605895854914  0.044338350286928126  1.0000
  O   O23       1.0  0.49676925643393594  0.044339743254369124  0.8048579808224334  1.0000
  O   O24       1.0  0.0443344859290065  0.804849830704313  0.49676587168284664  1.0000
  O   O25       1.0  0.6257842663857429  0.32687579235004444  0.8845704629119171  1.0000
  O   O26       1.0  0.3268778032347441  0.8845674387765428  0.6257864003860478  1.0000
  O   O27       1.0  0.8845683102244379  0.6257837864986867  0.326877286095943  1.0000
  O   O28       1.0  0.3742217533428089  0.673128080292862  0.11543843085671306  1.0000
  O   O29       1.0  0.6731261255236091  0.11543485158888692  0.37422016466970837  1.0000
  O   O30       1.0  0.1154363157561633  0.3742225184050553  0.6731266744942205  1.0000
  O   O31       1.0  0.48297836704028185  0.24690158289284617  0.8689680603769718  1.0000
  O   O32       1.0  0.2469066857563362  0.8689691234355903  0.482982533439639  1.0000
  O   O33       1.0  0.8689675186599642  0.482976293616062  0.24690593049801643  1.0000
  O   O34       1.0  0.5170227578300697  0.7530963256206462  0.13103039065045868  1.0000
  O   O35       1.0  0.7530965510144367  0.1310340802820561  0.5170241014986701  1.0000
  O   O36       1.0  0.1310329272546014  0.5170243872803439  0.7530966887483644  1.0000
  O   O37       1.0  0.2708101239085323  0.3841463002516078  0.8354905584832296  1.0000
  O   O38       1.0  0.3841474403400936  0.8354893918899221  0.27081145462313566  1.0000
  O   O39       1.0  0.8354836310847203  0.27080949576733093  0.38415075955931866  1.0000
  O   O40       1.0  0.7291931103926573  0.6158538243367531  0.16451802642490784  1.0000
  O   O41       1.0  0.6158495440577241  0.16451708485190145  0.7291895633106692  1.0000
  O   O42       1.0  0.16451681917376962  0.7291918048059783  0.6158532257991994  1.0000
  O   O43       1.0  0.32501488700534514  0.5361973962604338  0.8675817680732507  1.0000
  O   O44       1.0  0.5361984006964846  0.8675821142657656  0.3250131836344395  1.0000
  O   O45       1.0  0.8675798983266104  0.32501712637275665  0.5362024938887234  1.0000
  O   O46       1.0  0.6749883434458397  0.46380272447689214  0.13242506072879232  1.0000
  O   O47       1.0  0.463797177808118  0.13242124460210652  0.6749828988543956  1.0000
  O   O48       1.0  0.13242403902251  0.6749894799083831  0.4638036826840591  1.0000
  O   O49       1.0  0.15715518372485351  0.547093346276469  0.24980407523897702  1.0000
  O   O50       1.0  0.5470902864330611  0.24980386981229694  0.15715404775986752  1.0000
  O   O51       1.0  0.2498018937727267  0.15715329739671802  0.547090753180001  1.0000
  O   O52       1.0  0.8428459447000023  0.45290579645610035  0.7501947665379164  1.0000
  O   O53       1.0  0.4529066822649739  0.7501958225756695  0.842846577157964  1.0000
  O   O54       1.0  0.7501929734900017  0.8428429562504361  0.4529046154259576  1.0000
  O   O55       1.0  0.6707662182487013  0.6474128015744398  0.9691311209076617  1.0000
  O   O56       1.0  0.64741645886415  0.9691320511487903  0.6707648091042204  1.0000
  O   O57       1.0  0.9691281829609865  0.6707671106859507  0.6474145508612141  1.0000
  O   O58       1.0  0.32923492577462105  0.35258820275619474  0.0308729899430347  1.0000
  O   O59       1.0  0.35258604682368133  0.030866488828976905  0.3292296007074357  1.0000
  O   O60       1.0  0.030872259301972294  0.329235412553295  0.35258455692846274  1.0000
  O   O61       1.0  0.6848910854212917  0.29792284519481177  0.1016342883303239  1.0000
  O   O62       1.0  0.29792048166000035  0.10163476041910265  0.6848919820847358  1.0000
  O   O63       1.0  0.1016330573772777  0.6848912968698498  0.29792237865714816  1.0000
  O   O64       1.0  0.3151093548660028  0.7020772147410169  0.8983663794352239  1.0000
  O   O65       1.0  0.7020764870380346  0.8983649319688639  0.3151086428330956  1.0000
  O   O66       1.0  0.8983653001337615  0.3151078043164404  0.7020790826137502  1.0000
