data_image0
_chemical_formula_structural       Eu4Cu6H60C48N12O48
_chemical_formula_sum              "Eu4 Cu6 H60 C48 N12 O48"
_cell_length_a       13.35724285564697
_cell_length_b       13.357306148949013
_cell_length_c       14.546614391831989
_cell_angle_alpha    90.00098549234849
_cell_angle_beta     89.99887905559473
_cell_angle_gamma    120.00308820470323

_space_group_name_H-M_alt    "P 1"
_space_group_IT_number       1

loop_
  _space_group_symop_operation_xyz
  'x, y, z'

loop_
  _atom_site_type_symbol
  _atom_site_label
  _atom_site_symmetry_multiplicity
  _atom_site_fract_x
  _atom_site_fract_y
  _atom_site_fract_z
  _atom_site_occupancy
  Eu  Eu1       1.0  0.6666590803014784  0.33332927051146305  0.16825091115631347  1.0000
  Eu  Eu2       1.0  0.3333271333001804  0.666656146871702  0.3317516153167971  1.0000
  Eu  Eu3       1.0  0.6666719235240776  0.33334361172241234  0.668248354167204  1.0000
  Eu  Eu4       1.0  0.33334115744653997  0.6666708045443315  0.8317490583195732  1.0000
  Cu  Cu1       1.0  0.5000002620060114  0.5000004115150675  1.35668194899999e-07  1.0000
  Cu  Cu2       1.0  0.5000002137694963  2.464496802607737e-07  3.2406168060000056e-07  1.0000
  Cu  Cu3       1.0  7.843245700594487e-08  0.5000005980083415  0.99999950975247  1.0000
  Cu  Cu4       1.0  0.5000004932172003  0.5000004118745025  0.5000003284601247  1.0000
  Cu  Cu5       1.0  0.9999995260684071  0.5000003418587796  0.49999996508473277  1.0000
  Cu  Cu6       1.0  0.5000004449916204  2.4680166897847184e-07  0.4999991419632435  1.0000
  H   H1        1.0  0.3219189473966892  0.359900662666526  0.9172690512865029  1.0000
  H   H2        1.0  0.6400924784950345  0.9620313322618088  0.9172661235157518  1.0000
  H   H3        1.0  0.03799211529469178  0.6780907159168236  0.9172706675870683  1.0000
  H   H4        1.0  0.3599041017684711  0.3219152178709522  0.5827293997189498  1.0000
  H   H5        1.0  0.037991186848593386  0.35990537513920623  0.4172624703088131  1.0000
  H   H6        1.0  0.32190436371053005  0.9619867381298448  0.4172722236878811  1.0000
  H   H7        1.0  0.6780812903513292  0.6400994123892759  0.0827309181893838  1.0000
  H   H8        1.0  0.3599073270156125  0.03796917502551623  0.08273453341260507  1.0000
  H   H9        1.0  0.9620069415241018  0.3219090426810214  0.08272998934211266  1.0000
  H   H10       1.0  0.6400964524449577  0.6780860380984209  0.41726988231821577  1.0000
  H   H11       1.0  0.9620086186620471  0.6400951321481259  0.5827381866195437  1.0000
  H   H12       1.0  0.6780963062693955  0.03801290469814235  0.5827277457807297  1.0000
  H   H13       1.0  0.305369810230772  0.16743851599611767  0.9737261826991241  1.0000
  H   H14       1.0  0.8325457260652128  0.13793789575925772  0.9737232808008469  1.0000
  H   H15       1.0  0.8620710969961675  0.6946228427734481  0.9737267108647385  1.0000
  H   H16       1.0  0.16743376379116628  0.3053594141047  0.5262718115377965  1.0000
  H   H17       1.0  0.8620654420626506  0.16743873124860192  0.4737209929460063  1.0000
  H   H18       1.0  0.30536090850458203  0.1379189659510303  0.47372507014560467  1.0000
  H   H19       1.0  0.6946299952853393  0.8325619912874914  0.026273786784052792  1.0000
  H   H20       1.0  0.16745333075904514  0.8620618628348566  0.026276688683154192  1.0000
  H   H21       1.0  0.13792914075184362  0.3053772322823463  0.026273258611155394  1.0000
  H   H22       1.0  0.8325667904113344  0.6946418418721195  0.4737288453897363  1.0000
  H   H23       1.0  0.1379344792308855  0.8325601628861745  0.5262782890782489  1.0000
  H   H24       1.0  0.6946390127889541  0.8620799281837394  0.5262742118786505  1.0000
  H   H25       1.0  0.28575082805423335  0.258219360212351  0.05268320444652368  1.0000
  H   H26       1.0  0.741776148977415  0.027532222265307268  0.052672482900298696  1.0000
  H   H27       1.0  0.9724736673847684  0.7142541326134548  0.05268406773135579  1.0000
  H   H28       1.0  0.25821512771567967  0.2857403241360926  0.44731776289171404  1.0000
  H   H29       1.0  0.972474891693082  0.2582248186964124  0.5526765457280901  1.0000
  H   H30       1.0  0.2857434125462248  0.027514578221648392  0.5526843308520809  1.0000
  H   H31       1.0  0.7142489774618708  0.7417811470712505  0.9473167650366461  1.0000
  H   H32       1.0  0.258223340078743  0.9724671041009998  0.9473274865764124  1.0000
  H   H33       1.0  0.02752657036871394  0.2857459424386093  0.947315214299351  1.0000
  H   H34       1.0  0.7417854264868139  0.7142609318407266  0.5526828940358185  1.0000
  H   H35       1.0  0.02752502960045426  0.7417740754383574  0.4473227362961579  1.0000
  H   H36       1.0  0.7142565087473043  0.9724843159131212  0.447314951172167  1.0000
  H   H37       1.0  0.3938347236038596  0.31121314390619403  0.7961889897346948  1.0000
  H   H38       1.0  0.6887952298620162  0.08263253623744053  0.7961879798498257  1.0000
  H   H39       1.0  0.9173887626462472  0.6061707562024168  0.7961907369971256  1.0000
  H   H40       1.0  0.31121444492283956  0.39383137600046336  0.7038094356592806  1.0000
  H   H41       1.0  0.9173801538069667  0.3112143755418373  0.2961834101042271  1.0000
  H   H42       1.0  0.3938313748798378  0.08260315071833449  0.2961924967878175  1.0000
  H   H43       1.0  0.6061650819122518  0.6887873633774079  0.20381097974847504  1.0000
  H   H44       1.0  0.3112045756486241  0.9173679710498847  0.20381267707853104  1.0000
  H   H45       1.0  0.08261147510176413  0.39382931885337774  0.20380923247876123  1.0000
  H   H46       1.0  0.6887857928197079  0.6061686990590617  0.2961912212617931  1.0000
  H   H47       1.0  0.0826196517091446  0.6887861317417645  0.7038165593789428  1.0000
  H   H48       1.0  0.6061688628736447  0.917396924333737  0.7038067852428893  1.0000
  H   H49       1.0  0.4619017269733589  0.25874774446121757  0.8686659988676552  1.0000
  H   H50       1.0  0.741258611440429  0.2031581202864742  0.868654116910065  1.0000
  H   H51       1.0  0.7968485600622585  0.538095880724569  0.8686700036477217  1.0000
  H   H52       1.0  0.2587463205397498  0.46189733408349554  0.6313330967704898  1.0000
  H   H53       1.0  0.7968448369427462  0.25873575664338944  0.36866692416443664  1.0000
  H   H54       1.0  0.46191293918401033  0.2031537687521734  0.36868324188123575  1.0000
  H   H55       1.0  0.5380980785427525  0.7412527628223844  0.13133397061551477  1.0000
  H   H56       1.0  0.25874044538382196  0.7968416383076403  0.1313458525739364  1.0000
  H   H57       1.0  0.20315167769122408  0.4619041943275021  0.13132927838298505  1.0000
  H   H58       1.0  0.7412534849708975  0.5381031732038296  0.368667560157867  1.0000
  H   H59       1.0  0.20315421988150456  0.7412640019507323  0.6313330453195647  1.0000
  H   H60       1.0  0.5380874143414328  0.7968446931547887  0.6313160401357293  1.0000
  C   C1        1.0  0.44645567376041123  0.26333522418010363  0.06747356023155497  1.0000
  C   C2        1.0  0.7366581496653808  0.1831137866489314  0.06747582335633238  1.0000
  C   C3        1.0  0.8168801929239038  0.5535437540233306  0.06748008183979688  1.0000
  C   C4        1.0  0.2633394530571209  0.4464487851160825  0.4325285989571625  1.0000
  C   C5        1.0  0.8168869340654082  0.26333862888932197  0.5674724903564436  1.0000
  C   C6        1.0  0.4464517381972258  0.1831205608126823  0.5674772462377502  1.0000
  C   C7        1.0  0.5535438152957538  0.7366641021862037  0.9325264092451631  1.0000
  C   C8        1.0  0.26334208807716664  0.8168862884105864  0.9325248335647414  1.0000
  C   C9        1.0  0.18311886390034723  0.4464560045707914  0.9325198876442042  1.0000
  C   C10       1.0  0.7366607846908975  0.553551289939712  0.5674713705187242  1.0000
  C   C11       1.0  0.1831129872226568  0.7366602652491707  0.4325274791129913  1.0000
  C   C12       1.0  0.5535477508644033  0.8168787655498945  0.43252203579378085  1.0000
  C   C13       1.0  0.34839631742281796  0.2532729028306591  0.006693895303627098  1.0000
  C   C14       1.0  0.746711359477672  0.09509853859216838  0.0066705137281956985  1.0000
  C   C15       1.0  0.9048817458089646  0.6516039180995963  0.0066961607829582985  1.0000
  C   C16       1.0  0.2532690734338984  0.34838603429580667  0.4933035711327135  1.0000
  C   C17       1.0  0.9048807177592691  0.2532766756915167  0.5066897805077416  1.0000
  C   C18       1.0  0.34840785750958486  0.09513587929663465  0.5067155287429228  1.0000
  C   C19       1.0  0.651604669011583  0.7467279209183532  0.9933067616166223  1.0000
  C   C20       1.0  0.2532884460329752  0.9049019686951637  0.9933301432001611  1.0000
  C   C21       1.0  0.09511849193904712  0.34839615695619836  0.9933038086929356  1.0000
  C   C22       1.0  0.7467307320876768  0.6516144729840718  0.5066957109052765  1.0000
  C   C23       1.0  0.09511908775684187  0.7467238315920922  0.49331018897542817  1.0000
  C   C24       1.0  0.6515932447077049  0.9048633312998151  0.4932837532732177  1.0000
  C   C25       1.0  0.4472852188251365  0.3319938284725836  0.8584677699576486  1.0000
  C   C26       1.0  0.6680368635582852  0.11529167862026676  0.8584702694741536  1.0000
  C   C27       1.0  0.8847169296364327  0.5527191447718708  0.8584717682013403  1.0000
  C   C28       1.0  0.33199331996941334  0.44728069166378503  0.6415291986346645  1.0000
  C   C29       1.0  0.8847125392232867  0.3319893765654101  0.35846640051391887  1.0000
  C   C30       1.0  0.4473097921770445  0.11528249934016091  0.3584706829878284  1.0000
  C   C31       1.0  0.5527150189228747  0.6680062465832177  0.14153219951823803  1.0000
  C   C32       1.0  0.3319633741897335  0.884708396435528  0.14152970000173323  1.0000
  C   C33       1.0  0.11528255941973233  0.4472801815944365  0.14152820127537777  1.0000
  C   C34       1.0  0.6680069177840692  0.5527193833882863  0.3584700833960425  1.0000
  C   C35       1.0  0.11528769851926045  0.6680106984941075  0.6415342564071551  1.0000
  C   C36       1.0  0.5526911942682913  0.8847183244013976  0.6415285990420541  1.0000
  C   C37       1.0  0.5641879685640561  0.4383806825242401  0.839392329208955  1.0000
  C   C38       1.0  0.5616469763135328  0.12581121973067877  0.8393898912973581  1.0000
  C   C39       1.0  0.874197174258853  0.43581978732540005  0.8393922761524021  1.0000
  C   C40       1.0  0.43837501018733616  0.5641914036672661  0.6606105800865264  1.0000
  C   C41       1.0  0.8741820771608243  0.4383637178176797  0.33939004118559507  1.0000
  C   C42       1.0  0.5642060981550471  0.1258109031618632  0.33938967552990806  1.0000
  C   C43       1.0  0.43581226918396243  0.5616193925315544  0.16060764026693863  1.0000
  C   C44       1.0  0.43835357788350365  0.8741900362498642  0.16061145307535438  1.0000
  C   C45       1.0  0.12580263125725116  0.564180719958202  0.16060769333076755  1.0000
  C   C46       1.0  0.5616252275661394  0.43580867138480545  0.3393887019441805  1.0000
  C   C47       1.0  0.12581666319801596  0.5616348598628633  0.6606106157371343  1.0000
  C   C48       1.0  0.4357941395929714  0.8741891718939315  0.6606102939459857  1.0000
  N   N1        1.0  0.3886562360485043  0.3469047135028517  0.9388850637306232  1.0000
  N   N2        1.0  0.6531093500709986  0.0417584687913434  0.9388665387867758  1.0000
  N   N3        1.0  0.9582566422489973  0.6113486581186011  0.9388875323457169  1.0000
  N   N4        1.0  0.34690094458250803  0.3886485865875998  0.5611126405569209  1.0000
  N   N5        1.0  0.9582542061145599  0.3469025919408394  0.43887769581075986  1.0000
  N   N6        1.0  0.38866300270021975  0.041732844067411234  0.43890515408506997  1.0000
  N   N7        1.0  0.611344001699507  0.6530953615529427  0.06111490574527069  1.0000
  N   N8        1.0  0.3468908876770201  0.9582416062644514  0.06113343068911798  1.0000
  N   N9        1.0  0.04174284680716771  0.3886506682477063  0.06111243713100118  1.0000
  N   N10       1.0  0.6530988609335963  0.6113519206960092  0.4388873289262491  1.0000
  N   N11       1.0  0.0417448507096907  0.6530971666532821  0.5611222736732415  1.0000
  N   N12       1.0  0.611338099511613  0.9582663665327616  0.5610948153762507  1.0000
  O   O1        1.0  0.5451340447223173  0.35524360278279227  0.059447475519434086  1.0000
  O   O2        1.0  0.6447511165583392  0.18988226409469885  0.059461090768955685  1.0000
  O   O3        1.0  0.8101073174773887  0.45486849647615907  0.059455505625265886  1.0000
  O   O4        1.0  0.355246351363995  0.5451285315611544  0.4405524110347442  1.0000
  O   O5        1.0  0.810115897734562  0.35524283407987417  0.5594501019176119  1.0000
  O   O6        1.0  0.5451282511136312  0.18989608735633115  0.5594456792130983  1.0000
  O   O7        1.0  0.4548651278739016  0.6447545426662133  0.9405524939508251  1.0000
  O   O8        1.0  0.3552506185679219  0.8101193083438005  0.9405395661504695  1.0000
  O   O9        1.0  0.1898936689624762  0.5451323272691228  0.9405444638497966  1.0000
  O   O10       1.0  0.6447538863894875  0.4548715434909171  0.5594468709959626  1.0000
  O   O11       1.0  0.18988359132160298  0.6447564922864328  0.4405498675591061  1.0000
  O   O12       1.0  0.4548719866343804  0.8101039876994636  0.4405542902627956  1.0000
  O   O13       1.0  0.4269973421170476  0.1834529297981931  0.12357619488843598  1.0000
  O   O14       1.0  0.8165419397280755  0.24355554173070706  0.12358279568716307  1.0000
  O   O15       1.0  0.7564535893968907  0.5730104676976354  0.12357630446572188  1.0000
  O   O16       1.0  0.18346249969226835  0.4270012949865957  0.376423324184877  1.0000
  O   O17       1.0  0.7564605219082665  0.18344987787528316  0.6235727429157265  1.0000
  O   O18       1.0  0.426977629704993  0.2435370467203272  0.6235686115325972  1.0000
  O   O19       1.0  0.5730021469391173  0.8165463965681141  0.8764237745882821  1.0000
  O   O20       1.0  0.1834587302463786  0.7564441011010031  0.8764178612266276  1.0000
  O   O21       1.0  0.24354471873550662  0.426988542206992  0.8764236650191035  1.0000
  O   O22       1.0  0.816537305823843  0.5729992122970131  0.6235766452982927  1.0000
  O   O23       1.0  0.24353896714789838  0.8165494484910168  0.37642722656098454  1.0000
  O   O24       1.0  0.5730218593566361  0.7564622796422498  0.3764306704989337  1.0000
  O   O25       1.0  0.6020633472205573  0.5243473581891537  0.8943023500484413  1.0000
  O   O26       1.0  0.475673247457351  0.07772857062314394  0.8943047806257665  1.0000
  O   O27       1.0  0.9222743087930851  0.39794008805801445  0.8943074174392507  1.0000
  O   O28       1.0  0.524343313594322  0.602068883203316  0.6056914857949706  1.0000
  O   O29       1.0  0.9222733489241147  0.5243326790298609  0.3943095945766685  1.0000
  O   O30       1.0  0.602069894919083  0.07771876278970792  0.3943007034237026  1.0000
  O   O31       1.0  0.3979385036831217  0.4756526011005064  0.10569761941206215  1.0000
  O   O32       1.0  0.5243280554260675  0.9222734340506161  0.10569725119130167  1.0000
  O   O33       1.0  0.07772667765225097  0.6020607356835442  0.10569186459062509  1.0000
  O   O34       1.0  0.47565574323540016  0.3979308753870755  0.3943077962438436  1.0000
  O   O35       1.0  0.07772495920282553  0.4756663308784894  0.6056910623533367  1.0000
  O   O36       1.0  0.3979315237636241  0.9222816287203129  0.60569789115371  1.0000
  O   O37       1.0  0.620799593831684  0.43745112759823707  0.770234828274077  1.0000
  O   O38       1.0  0.5625285186064771  0.1833259590663445  0.7702347255980013  1.0000
  O   O39       1.0  0.816669194277118  0.37921603478718424  0.770227112106795  1.0000
  O   O40       1.0  0.43744760395362897  0.6207954926147039  0.7297625199330467  1.0000
  O   O41       1.0  0.8166545787642292  0.4374393449810087  0.2702390643782237  1.0000
  O   O42       1.0  0.6207763485788078  0.18335775262656984  0.2702285106539363  1.0000
  O   O43       1.0  0.37920107614823445  0.56254851522975  0.22976514119452662  1.0000
  O   O44       1.0  0.4374720355905525  0.8166752969141984  0.2297666187747182  1.0000
  O   O45       1.0  0.18332954608172264  0.620782542893359  0.22977354481593437  1.0000
  O   O46       1.0  0.5625518851025362  0.3792038337516034  0.27023744954367146  1.0000
  O   O47       1.0  0.1833457747557433  0.5625591169296771  0.7297609050839282  1.0000
  O   O48       1.0  0.3792246378665282  0.8166430711149886  0.7297707713759392  1.0000
