data_image0
_chemical_formula_structural       Zn4H36C56N4O20
_chemical_formula_sum              "Zn4 H36 C56 N4 O20"
_cell_length_a       7.746727699
_cell_length_b       11.748163209219152
_cell_length_c       13.9211
_cell_angle_alpha    90.0
_cell_angle_beta     90.0
_cell_angle_gamma    92.59148964327704

_space_group_name_H-M_alt    "P 1"
_space_group_IT_number       1

loop_
  _space_group_symop_operation_xyz
  'x, y, z'

loop_
  _atom_site_type_symbol
  _atom_site_label
  _atom_site_symmetry_multiplicity
  _atom_site_fract_x
  _atom_site_fract_y
  _atom_site_fract_z
  _atom_site_occupancy
  Zn  Zn1       1.0  0.8463801920628811  0.4481777031774357  0.4468935644453396  1.0000
  Zn  Zn2       1.0  0.6536189050698482  0.051822794260040404  0.9468942827793752  1.0000
  Zn  Zn3       1.0  0.15362128074817596  0.5518232916975165  0.5531049988865817  1.0000
  Zn  Zn4       1.0  0.3463759381256039  0.94817564441  0.05310643555466039  1.0000
  H   H1        1.0  0.8652524734489899  0.1574681870900321  0.5739733210737654  1.0000
  H   H2        1.0  0.6347414017874087  0.3425314582791401  0.073970447737608  1.0000
  H   H3        1.0  0.1347415462854329  0.8425370681264397  0.42602667892623447  1.0000
  H   H4        1.0  0.3652584296010701  0.6574644241859886  0.9260266789262346  1.0000
  H   H5        1.0  0.30952098180234333  0.2527064176528029  0.7443664652936945  1.0000
  H   H6        1.0  0.1904781104308668  0.2472983401261928  0.24436718362773038  1.0000
  H   H7        1.0  0.6904740950964053  0.7472954292904533  0.2556349713743913  1.0000
  H   H8        1.0  0.8095260025412684  0.7527035068170633  0.7556349713743913  1.0000
  H   H9        1.0  0.6897335291744184  0.8037594396033471  0.4784557254814601  1.0000
  H   H10       1.0  0.8102715566562892  0.696236940299258  0.9784528521453026  1.0000
  H   H11       1.0  0.3102677683591679  0.1962389990666935  0.5215428378504541  1.0000
  H   H12       1.0  0.1897357862346567  0.3037555338926552  0.0215421195164183  1.0000
  H   H13       1.0  0.49292515972613415  0.6291305968671921  0.4706467161359383  1.0000
  H   H14       1.0  0.0070759317505278  0.8708683392403245  0.9706481528040172  1.0000
  H   H15       1.0  0.5070773702492559  0.3708669897345445  0.5293540021981045  1.0000
  H   H16       1.0  0.9929227256219803  0.1291292473614121  0.0293511288619399  1.0000
  H   H17       1.0  0.7089445511271393  0.0114279400956221  0.532496713621768  1.0000
  H   H18       1.0  0.7910480916674558  0.488572557341854  0.03249240361753179  1.0000
  H   H19       1.0  0.2910579204224248  0.9885687944378106  0.4675011313761104  1.0000
  H   H20       1.0  0.20894945011489338  0.5114275854647943  0.9675040047122748  1.0000
  H   H21       1.0  0.6060411997247215  0.0502950357906542  0.6426388719282272  1.0000
  H   H22       1.0  0.8939536158243582  0.4496994971686945  0.1426316885878265  1.0000
  H   H23       1.0  0.393955051190005  0.9497051070159941  0.3573553813994579  1.0000
  H   H24       1.0  0.10604615713830157  0.5502955332281303  0.8573618464058157  1.0000
  H   H25       1.0  0.37725954407036977  0.9235457580094604  0.7100502115493725  1.0000
  H   H26       1.0  0.12273849826443947  0.5764463615516249  0.21004805654725794  1.0000
  H   H27       1.0  0.622748090949699  0.0764509765239723  0.289951943452742  1.0000
  H   H28       1.0  0.8772538216215864  0.42355292918671955  0.7899555351229424  1.0000
  H   H29       1.0  0.18696964175692435  0.7457293277473767  0.6907449842325661  1.0000
  H   H30       1.0  0.31302845900371057  0.7542636438820125  0.1907457025666091  1.0000
  H   H31       1.0  0.8130392257049479  0.2542665547177521  0.30925860743763417  1.0000
  H   H32       1.0  0.6869588726892816  0.2457382030612436  0.809260044105713  1.0000
  H   H33       1.0  0.033599543739263986  0.9303410027352683  0.795545610619854  1.0000
  H   H34       1.0  0.4664070033370251  0.5696621937137678  0.2955434556177322  1.0000
  H   H35       1.0  0.9663918358340737  0.0696634004128995  0.20445510771418896  1.0000
  H   H36       1.0  0.5336021562539698  0.4303379490928805  0.7044529527120673  1.0000
  C   C1        1.0  0.09082303506723828  0.3264214028520627  0.6023360222970879  1.0000
  C   C2        1.0  0.4091719508598003  0.1735799466537173  0.1023360222970879  1.0000
  C   C3        1.0  0.9091759728602182  0.6735812961594974  0.3976639777029121  1.0000
  C   C4        1.0  0.5908241832032815  0.8264184920163231  0.8976646960369477  1.0000
  C   C5        1.0  0.0879035400395694  0.2140949424490231  0.6540474531466598  1.0000
  C   C6        1.0  0.4120966093579738  0.285906407056757  0.1540467348126242  1.0000
  C   C7        1.0  0.912095526313706  0.785908608630841  0.3459547018554545  1.0000
  C   C8        1.0  0.5879048634530832  0.7140945878181952  0.8459554201894972  1.0000
  C   C9        1.0  0.9545336089826151  0.1343439053829769  0.630169311333155  1.0000
  C   C10       1.0  0.5454666621660919  0.3656548879178914  0.1301693113331552  1.0000
  C   C11       1.0  0.045467922254267996  0.8656579415602792  0.3698299703328018  1.0000
  C   C12       1.0  0.45453592623511696  0.634343550752142  0.8698321253349235  1.0000
  C   C13       1.0  0.20768723975285747  0.189944770503736  0.7253615016054766  1.0000
  C   C14       1.0  0.29231308492215663  0.3100591352069557  0.22535934660335497  1.0000
  C   C15       1.0  0.7923054891139357  0.8100604847127358  0.2746435267328025  1.0000
  C   C16       1.0  0.7076883878889004  0.6899418596679965  0.7746413717306807  1.0000
  C   C17       1.0  0.9390536788613841  0.030616518305684806  0.678834287520381  1.0000
  C   C18       1.0  0.5609468259906192  0.4693856832683991  0.1788314141842235  1.0000
  C   C19       1.0  0.06094039929885749  0.9693895889790909  0.3211685858157765  1.0000
  C   C20       1.0  0.43905834414584166  0.5306127554016413  0.8211671491476975  1.0000
  C   C21       1.0  0.5805021592320114  0.7936581698573307  0.5273520052294742  1.0000
  C   C22       1.0  0.9195005201409144  0.7063407662501859  0.0273512868954313  1.0000
  C   C23       1.0  0.41949937200487136  0.2063436770859255  0.47264583976841107  1.0000
  C   C24       1.0  0.0805020098344684  0.2936568203515506  0.9726472764364897  1.0000
  C   C25       1.0  0.4714787756615165  0.6966220751727406  0.5222561435518713  1.0000
  C   C26       1.0  0.028523489831123093  0.8033751567981611  0.022256861885914195  1.0000
  C   C27       1.0  0.5285264529007703  0.3033772155655967  0.4777438564481286  1.0000
  C   C28       1.0  0.9714764584090148  0.1966224298035755  0.9777438564481287  1.0000
  C   C29       1.0  0.5487500477273456  0.8774420462070511  0.5954357055117754  1.0000
  C   C30       1.0  0.9512536303840802  0.6225526295589461  0.0954306771734963  1.0000
  C   C31       1.0  0.45125506398328946  0.1225555403946856  0.4045642944882246  1.0000
  C   C32       1.0  0.04874884116547659  0.3774441049744865  0.9045664494903392  1.0000
  C   C33       1.0  0.6684912273037824  0.9810254337409319  0.6043653159592282  1.0000
  C   C34       1.0  0.8315087534822396  0.5189717982299769  0.1043602876209491  1.0000
  C   C35       1.0  0.331502383449866  0.0189738569974125  0.3956303740365357  1.0000
  C   C36       1.0  0.16849495050912813  0.4810240842351519  0.8956346840407718  1.0000
  C   C37       1.0  0.4062191487633767  0.8603896032355536  0.655974743375161  1.0000
  C   C38       1.0  0.09378165058415529  0.6396050725304363  0.15597258837304648  1.0000
  C   C39       1.0  0.5937898939759662  0.1396088354344798  0.3440259749588748  1.0000
  C   C40       1.0  0.9062119017436672  0.3603933661396042  0.8440302849631109  1.0000
  C   C41       1.0  0.3012629000834153  0.7618794303847454  0.6462391621351742  1.0000
  C   C42       1.0  0.19873543438051655  0.7381169495178597  0.14624059880325285  1.0000
  C   C43       1.0  0.6987422700530458  0.2381190082852953  0.3537622745329044  1.0000
  C   C44       1.0  0.8012582932247837  0.2618840453570925  0.853763711200983  1.0000
  C   C45       1.0  0.3072110077029322  0.0597904849724031  0.8569538326712659  1.0000
  C   C46       1.0  0.19279307272331184  0.44021171660168085  0.3569531143372301  1.0000
  C   C47       1.0  0.6927800797412901  0.9402096578342451  0.1430497589989272  1.0000
  C   C48       1.0  0.8072109818229974  0.5597892782732714  0.6430454489946911  1.0000
  C   C49       1.0  0.18775347398859307  0.0869842449002078  0.7759544863552463  1.0000
  C   C50       1.0  0.3122493739958471  0.41301880874218  0.2759537680212034  1.0000
  C   C51       1.0  0.8122392548782001  0.9130210103162639  0.22405054198303276  1.0000
  C   C52       1.0  0.6877546221246362  0.5869813340644683  0.7240462319787966  1.0000
  C   C53       1.0  0.0530287064389796  0.0082625063456021  0.7538211779241593  1.0000
  C   C54       1.0  0.44697419997128657  0.4917413993650896  0.2538190229220376  1.0000
  C   C55       1.0  0.9469692443241441  0.9917436009391737  0.24617882207584063  1.0000
  C   C56       1.0  0.5530322610328041  0.5082570393049508  0.7461802587439194  1.0000
  N   N1        1.0  0.3336754009501988  0.6811186923782415  0.5807500844042506  1.0000
  N   N2        1.0  0.16632680611660786  0.8188776875243563  0.08075152107232948  1.0000
  N   N3        1.0  0.6663297107604363  0.3188788942234879  0.419250633929792  1.0000
  N   N4        1.0  0.8336694447981187  0.1811224552822921  0.9192520705978706  1.0000
  O   O1        1.0  0.9735010877803916  0.3373525871263539  0.5398862158881101  1.0000
  O   O2        1.0  0.5264928458818332  0.1626479103111222  0.0398847792200314  1.0000
  O   O3        1.0  0.02650067715978819  0.6626526680901179  0.4601137841118898  1.0000
  O   O4        1.0  0.47350322975542264  0.8373496762906144  0.9601145024459257  1.0000
  O   O5        1.0  0.23747700796533172  0.009525271572393  0.9289567634741474  1.0000
  O   O6        1.0  0.2625258984449346  0.4904786341382987  0.4289560451401114  1.0000
  O   O7        1.0  0.7625139626272385  0.9904731670976474  0.07104610986201008  1.0000
  O   O8        1.0  0.7374759833468901  0.5095283252147809  0.5710417998577668  1.0000
  O   O9        1.0  0.4672220370304173  0.08716658751730222  0.845903700138642  1.0000
  O   O10       1.0  0.032783275837623194  0.4128347619884778  0.3459051368067207  1.0000
  O   O11       1.0  0.5327692841170943  0.9128369635625617  0.1540991731975225  1.0000
  O   O12       1.0  0.9672220111504899  0.5871653808181705  0.654094863193279  1.0000
  O   O13       1.0  0.8157360038867977  0.9469418495055493  0.658626832649716  1.0000
  O   O14       1.0  0.6842666170603023  0.5530562345336634  0.1586246776476017  1.0000
  O   O15       1.0  0.18426036387957367  0.0530599974377068  0.3413717306822051  1.0000
  O   O16       1.0  0.3157371453568841  0.4469404999997694  0.8413731673502838  1.0000
  O   O17       1.0  0.2065987045030369  0.4030845443837805  0.624045513644752  1.0000
  O   O18       1.0  0.29339886315925406  0.0969168051219995  0.1240483869809168  1.0000
  O   O19       1.0  0.7934091642203354  0.5969155984228678  0.3759508946850474  1.0000
  O   O20       1.0  0.7065973877554723  0.9030833376846488  0.8759544863552478  1.0000
