data_image0
_chemical_formula_structural       Na2H18C14N4O12
_chemical_formula_sum              "Na2 H18 C14 N4 O12"
_cell_length_a       6.5354198998659525
_cell_length_b       6.82549962939043
_cell_length_c       11.779998657222924
_cell_angle_alpha    75.86280878929988
_cell_angle_beta     87.15086369170085
_cell_angle_gamma    66.79953631685692

_space_group_name_H-M_alt    "P 1"
_space_group_IT_number       1

loop_
  _space_group_symop_operation_xyz
  'x, y, z'

loop_
  _atom_site_type_symbol
  _atom_site_label
  _atom_site_symmetry_multiplicity
  _atom_site_fract_x
  _atom_site_fract_y
  _atom_site_fract_z
  _atom_site_occupancy
  Na  Na1       1.0  0.7219932388902706  0.5816609177935631  0.9408121676385973  1.0000
  Na  Na2       1.0  0.27799971228605375  0.4183468890212295  0.0591874546118376  1.0000
  H   H1        1.0  0.8007556282926698  0.753052161140424  0.17183989594435903  1.0000
  H   H2        1.0  0.19923929054009187  0.2469507200306822  0.8281612277486657  1.0000
  H   H3        1.0  0.7540545884019706  0.946156162605803  0.2529136795326536  1.0000
  H   H4        1.0  0.2459412887395374  0.0538401204481502  0.7470841333587259  1.0000
  H   H5        1.0  0.6657655596124028  0.8680340900545646  0.45718826042940464  1.0000
  H   H6        1.0  0.33423492354970813  0.1319621666054189  0.5428093910050222  1.0000
  H   H7        1.0  0.7950765184622951  0.1922308514969657  0.6274980604461362  1.0000
  H   H8        1.0  0.20492603605263313  0.8077719732451599  0.37250109945384924  1.0000
  H   H9        1.0  0.8603093622909768  0.10246707832875052  0.4308325406889182  1.0000
  H   H10       1.0  0.13969725174263195  0.897537395071339  0.5691704764682797  1.0000
  H   H11       1.0  0.5734930242587736  0.0380308483709442  0.8367358244732657  1.0000
  H   H12       1.0  0.4265003592337849  0.9619720415981519  0.16326535303873868  1.0000
  H   H13       1.0  0.8399063235100426  0.9375272049732075  0.8451080402992941  1.0000
  H   H14       1.0  0.1600885543038899  0.062475663758881715  0.1548913886955958  1.0000
  H   H15       1.0  0.6903741576431556  0.13568766353032657  0.9752455351980984  1.0000
  H   H16       1.0  0.3096194425821677  0.8643184993300678  0.02475430508351198  1.0000
  H   H17       1.0  0.7692006998286444  0.1885154315205497  0.0873844070796892  1.0000
  H   H18       1.0  0.2307906954980581  0.8114923778727244  0.9126144216406614  1.0000
  C   C1        1.0  0.8062299157821896  0.4282579434165328  0.3349678587263583  1.0000
  C   C2        1.0  0.19377063777896814  0.5717351274252634  0.6650429928253913  1.0000
  C   C3        1.0  0.7484790988232461  0.6501783024903959  0.34009248841791617  1.0000
  C   C4        1.0  0.2515256400808923  0.34982286949934155  0.6599068356942582  1.0000
  C   C5        1.0  0.710788747431387  0.7001974191692425  0.45044091478051485  1.0000
  C   C6        1.0  0.28921679572628267  0.29980536309886924  0.5495547480852423  1.0000
  C   C7        1.0  0.7293711905154154  0.5355533312343043  0.5503225405924042  1.0000
  C   C8        1.0  0.2706381443892171  0.4644395562098749  0.4496701937150718  1.0000
  C   C9        1.0  0.7816541835985688  0.3172311442551319  0.547412968271054  1.0000
  C   C10       1.0  0.2183520074588045  0.6827585314302809  0.45258714234823577  1.0000
  C   C11       1.0  0.8176580648824154  0.2693375273300305  0.4385619953037363  1.0000
  C   C12       1.0  0.18235722403046842  0.7306488537736655  0.5614433663773966  1.0000
  C   C13       1.0  0.8706484646033131  0.3542325381326492  0.2235571780308376  1.0000
  C   C14       1.0  0.12935790216800308  0.645760398005052  0.7764399006599305  1.0000
  N   N1        1.0  0.724557888564831  0.8156623384535707  0.24103480189579327  1.0000
  N   N2        1.0  0.2754444081984957  0.18433720095823958  0.7589640005364586  1.0000
  N   N3        1.0  0.6900147158329235  0.5950231993687891  0.6628608239840545  1.0000
  N   N4        1.0  0.3099868587145379  0.4049747546426801  0.3371450290908768  1.0000
  O   O1        1.0  0.8956353134227869  0.48838507025831035  0.13306304451521805  1.0000
  O   O2        1.0  0.10436743731550277  0.511621021155605  0.8669339308053025  1.0000
  O   O3        1.0  0.9051129083174914  0.15474437550442127  0.22561239117251117  1.0000
  O   O4        1.0  0.09488871773810816  0.845245339013992  0.7743895756018588  1.0000
  O   O5        1.0  0.6383619142408602  0.790421404952845  0.6645351627212077  1.0000
  O   O6        1.0  0.36163363428079975  0.209591288672641  0.3354611019315641  1.0000
  O   O7        1.0  0.7096705297078357  0.4470873718174104  0.7530550797670656  1.0000
  O   O8        1.0  0.29032542947133777  0.5529089361145765  0.2469461225205691  1.0000
  O   O9        1.0  0.7058682043752355  0.9570159375854954  0.8921936871353751  1.0000
  O   O10       1.0  0.29413043418693247  0.04298528203522519  0.10780754695085899  1.0000
  O   O11       1.0  0.6635378826826965  0.2519890730070244  0.018296557758048896  1.0000
  O   O12       1.0  0.3364519362849733  0.7480187327452299  0.9817006300831536  1.0000
