data_image0
_chemical_formula_structural       Zn2H26C50S8Br4N2O32
_chemical_formula_sum              "Zn2 H26 C50 S8 Br4 N2 O32"
_cell_length_a       16.091988287769485
_cell_length_b       18.23118925833562
_cell_length_c       19.379843004720353
_cell_angle_alpha    90.69693867172427
_cell_angle_beta     88.74802658179452
_cell_angle_gamma    88.87216476165072

_space_group_name_H-M_alt    "P 1"
_space_group_IT_number       1

loop_
  _space_group_symop_operation_xyz
  'x, y, z'

loop_
  _atom_site_type_symbol
  _atom_site_label
  _atom_site_symmetry_multiplicity
  _atom_site_fract_x
  _atom_site_fract_y
  _atom_site_fract_z
  _atom_site_occupancy
  Zn  Zn1       1.0  0.503617071685504  0.420913715110494  0.5070593115164286  1.0000
  Zn  Zn2       1.0  0.5034105450082079  0.5750147722781378  0.49028651670385404  1.0000
  H   H1        1.0  0.3911089513091426  0.3092588876080953  0.5678769990553576  1.0000
  H   H2        1.0  0.6071545588994169  0.6912816704255749  0.4262296740754081  1.0000
  H   H3        1.0  0.6015662650056726  0.1635093248016375  0.43549334516512056  1.0000
  H   H4        1.0  0.4041703777394686  0.8265840728841879  0.5755917073881136  1.0000
  H   H5        1.0  0.6044666465104243  0.3014493352064704  0.4440083272125079  1.0000
  H   H6        1.0  0.4058220920323521  0.6887219962993356  0.5632422832613244  1.0000
  H   H7        1.0  0.44721025892025784  0.9226659091849785  0.4073574275355227  1.0000
  H   H8        1.0  0.5501435420243797  0.07201967675858612  0.6020053800561271  1.0000
  H   H9        1.0  0.9642822527331488  0.4140604832465016  0.4052141753845504  1.0000
  H   H10       1.0  0.042743554824703295  0.581174712199342  0.592173329471791  1.0000
  H   H11       1.0  0.4008324996605239  0.4309560741465928  0.8410733174314019  1.0000
  H   H12       1.0  0.3824758220895816  0.5707813021396433  0.16468373737490077  1.0000
  H   H13       1.0  0.41996839915844925  0.4246803592284394  0.7131021952487941  1.0000
  H   H14       1.0  0.3985488023700369  0.5699759330149518  0.2921864092712951  1.0000
  H   H15       1.0  0.5975489702091964  0.5266016111969947  0.9369029362358391  1.0000
  H   H16       1.0  0.32925432418718964  0.4874741891033241  0.0622241967381854  1.0000
  H   H17       1.0  0.5965980584368467  0.4985938615883399  0.06165759770117061  1.0000
  H   H18       1.0  0.3301011173778932  0.515753155020562  0.9372636366877599  1.0000
  H   H19       1.0  0.9651839057109513  0.603227718189352  0.3342718440306811  1.0000
  H   H20       1.0  0.048595818396108804  0.3973267876946593  0.660266531207121  1.0000
  H   H21       1.0  0.36326594879054847  0.1716879644868214  0.3868645805613085  1.0000
  H   H22       1.0  0.5264339182697456  0.8465086820076023  0.6981044703312804  1.0000
  H   H23       1.0  0.0017374876744042993  0.73287522797105  0.5261291032312698  1.0000
  H   H24       1.0  0.9471925721460791  0.31496652679688714  0.5681211328218794  1.0000
  H   H25       1.0  0.4950643237683395  0.6418260461257217  0.9619981589434728  1.0000
  H   H26       1.0  0.5109896565032273  0.3759074501006906  0.028699387371645495  1.0000
  C   C1        1.0  0.49664911858823046  0.48648956218806233  0.3664500137261655  1.0000
  C   C2        1.0  0.500373048226436  0.5129602483406686  0.6309873866560451  1.0000
  C   C3        1.0  0.5077102905153196  0.5884936895526279  0.8169386126320431  1.0000
  C   C4        1.0  0.5135125977462351  0.42251722776527595  0.1768123472513778  1.0000
  C   C5        1.0  0.4663903832933726  0.531900324617645  0.8523519615852208  1.0000
  C   C6        1.0  0.464207836433296  0.47756287209082865  0.145886463293742  1.0000
  C   C7        1.0  0.4330420959769085  0.4743622745958119  0.8138010627940844  1.0000
  C   C8        1.0  0.42116076521769935  0.5288206228498707  0.188515949352805  1.0000
  C   C9        1.0  0.4445818251377887  0.47017609412543465  0.7428063039137385  1.0000
  C   C10       1.0  0.43098000870818953  0.5291680428484611  0.2594263514988953  1.0000
  C   C11       1.0  0.4910021381507121  0.5226824049980435  0.7078782789913518  1.0000
  C   C12       1.0  0.48571818333045497  0.47922538660508696  0.2898448394818232  1.0000
  C   C13       1.0  0.5386074930481399  0.5184925513602324  0.9643064380140699  1.0000
  C   C14       1.0  0.3879990969478015  0.4964571193824625  0.0347953314183869  1.0000
  C   C15       1.0  0.5380760462170143  0.5024686684640967  0.0345104780059486  1.0000
  C   C16       1.0  0.3885327660461755  0.511976240548826  0.9645884810228651  1.0000
  C   C17       1.0  0.46280498236665585  0.4905566686339142  0.0705456356510084  1.0000
  C   C18       1.0  0.4637139219596307  0.5231880843446106  0.9283651250305737  1.0000
  C   C19       1.0  0.43736417239689723  0.2747447886354238  0.5404609445979246  1.0000
  C   C20       1.0  0.5630246192223538  0.7234056588707034  0.4582512216908228  1.0000
  C   C21       1.0  0.4325923649955286  0.1984318538067029  0.5393080540656142  1.0000
  C   C22       1.0  0.5663218364179555  0.7995980701235722  0.4626306534558324  1.0000
  C   C23       1.0  0.34187182294052587  0.5004865339943336  0.5049486177555025  1.0000
  C   C24       1.0  0.6644783216167127  0.4925133631793982  0.49351803776674064  1.0000
  C   C25       1.0  0.4924226938580176  0.1563985289386736  0.5017742394489986  1.0000
  C   C26       1.0  0.5085602473030378  0.8385202208197099  0.5049634036278761  1.0000
  C   C27       1.0  0.5548754251652426  0.1939783242146689  0.4662416468553587  1.0000
  C   C28       1.0  0.4497894511238769  0.7982843171551506  0.5419751851410836  1.0000
  C   C29       1.0  0.5566314863048306  0.2699871036817071  0.47022506497935973  1.0000
  C   C30       1.0  0.44996025808165296  0.7224670198364649  0.5352515427123663  1.0000
  C   C31       1.0  0.46487138227097086  0.0312642748293612  0.447542068550618  1.0000
  C   C32       1.0  0.5330983232901758  0.963358864590283  0.561450855125564  1.0000
  C   C33       1.0  0.47012471459819233  0.955018435710308  0.45031458371770583  1.0000
  C   C34       1.0  0.5269648559686644  0.03971835414138519  0.5591035584293351  1.0000
  C   C35       1.0  0.5049170329140223  0.91983577265475  0.5068899224667546  1.0000
  C   C36       1.0  0.4934666530048587  0.0749311543794846  0.5019687485086095  1.0000
  C   C37       1.0  0.9814432657667566  0.4511673072251341  0.4469282477858201  1.0000
  C   C38       1.0  0.025185732206516293  0.5443478960353758  0.5503515403989567  1.0000
  C   C39       1.0  0.0355498083922257  0.5204286498843869  0.43755389854158006  1.0000
  C   C40       1.0  0.9710957029759938  0.4752427022163417  0.559605837315118  1.0000
  C   C41       1.0  0.2518417035086813  0.5012657098261643  0.5070879892469407  1.0000
  C   C42       1.0  0.7545732747243648  0.49221219362681967  0.4916465461799078  1.0000
  C   C43       1.0  0.03242382736008408  0.4290178546955162  0.5110727237777084  1.0000
  C   C44       1.0  0.9743652771429723  0.5666186554424611  0.4860729837595911  1.0000
  C   C45       1.0  0.08907129321136861  0.49903346996861603  0.502641512916611  1.0000
  C   C46       1.0  0.9174537924970848  0.49630056429403885  0.4946008649696622  1.0000
  C   C47       1.0  0.1764093324002332  0.500753599081726  0.5060416733456492  1.0000
  C   C48       1.0  0.8300023195046791  0.49414119850472094  0.4921307532149727  1.0000
  C   C49       1.0  0.5231324907439044  0.5818381307173154  0.7452349092926909  1.0000
  C   C50       1.0  0.5271492547689859  0.42601697064161204  0.2483241568883372  1.0000
  S   S1        1.0  0.0792346150410239  0.54813441128681  0.3572571357772674  1.0000
  S   S2        1.0  0.9299450499482661  0.4443185915644462  0.6393386948478081  1.0000
  S   S3        1.0  0.42574715689790565  0.06873500795028781  0.3692665087030775  1.0000
  S   S4        1.0  0.5866269209110299  0.9245950857126598  0.6328979494017233  1.0000
  S   S5        1.0  0.931350976899651  0.6548961755178978  0.4712029690375843  1.0000
  S   S6        1.0  0.0687528474564161  0.3395403980414429  0.5306747732357664  1.0000
  S   S7        1.0  0.5399720340144185  0.6707255268363355  0.8613585376394114  1.0000
  S   S8        1.0  0.5578663934098173  0.3460247756661943  0.1271939372941091  1.0000
  Br  Br1       1.0  0.3444868677734974  0.15400594646365556  0.5884031907626834  1.0000
  Br  Br2       1.0  0.6496922488155122  0.848125725658626  0.4116368291811199  1.0000
  Br  Br3       1.0  0.5961421421259558  0.6465811316495619  0.6988768653842712  1.0000
  Br  Br4       1.0  0.6098988605479718  0.36566914274639123  0.288997400217724  1.0000
  N   N1        1.0  0.49894163625280885  0.30909253407747167  0.507015176183799  1.0000
  N   N2        1.0  0.505316835971726  0.6863552867170241  0.49368060198396074  1.0000
  O   O1        1.0  0.4824665671698298  0.4307146738955153  0.4029640819837184  1.0000
  O   O2        1.0  0.48299874597579867  0.5683664893780005  0.5947675003035826  1.0000
  O   O3        1.0  0.5160406101063445  0.5499631223125762  0.3880453053237716  1.0000
  O   O4        1.0  0.5206902726133862  0.4490421841896079  0.6088171353444807  1.0000
  O   O5        1.0  0.3772296121832711  0.4419014824386591  0.5254691575264872  1.0000
  O   O6        1.0  0.6294528759171597  0.5551271377773687  0.5012268577412727  1.0000
  O   O7        1.0  0.37574743516630343  0.5579824027698237  0.4824320695040925  1.0000
  O   O8        1.0  0.630111864518298  0.43060640218860863  0.4877919527271146  1.0000
  O   O9        1.0  0.11919865461119629  0.616833680366156  0.3688985533741302  1.0000
  O   O10       1.0  0.12213025048501439  0.48589334126014433  0.32673732799342753  1.0000
  O   O11       1.0  0.996781484001069  0.5599872614542247  0.31431943740390267  1.0000
  O   O12       1.0  0.8783046389111393  0.5000419028092509  0.6711738251483368  1.0000
  O   O13       1.0  0.8970905820501044  0.3718329921347916  0.625503430349319  1.0000
  O   O14       1.0  0.011627806536033305  0.43682512176359006  0.6827266651263528  1.0000
  O   O15       1.0  0.487909809140362  0.1148588139286133  0.3388851841755666  1.0000
  O   O16       1.0  0.3897990522045943  0.0097595983167054  0.33150224171935594  1.0000
  O   O17       1.0  0.3502744257534188  0.12087416828925512  0.39821702798105457  1.0000
  O   O18       1.0  0.639288226470846  0.8643006798391539  0.6090286991236482  1.0000
  O   O19       1.0  0.6196366822891834  0.9841091275376074  0.6721557704356157  1.0000
  O   O20       1.0  0.5081243383150634  0.8914306504959342  0.6747152190900181  1.0000
  O   O21       1.0  0.9117502395172179  0.6584927396781382  0.3989788988091192  1.0000
  O   O22       1.0  0.8698920415106173  0.6717898460974823  0.5239968251229499  1.0000
  O   O23       1.0  0.0100008625172734  0.7066276660695365  0.48197150572575953  1.0000
  O   O24       1.0  0.12199987399183951  0.31094926761655006  0.4766038541610271  1.0000
  O   O25       1.0  0.09885734628034018  0.3437460524821887  0.6010448412029348  1.0000
  O   O26       1.0  0.9853235549679624  0.29531734181581737  0.529671583520475  1.0000
  O   O27       1.0  0.6231156735131904  0.6589399080635941  0.8854021378967686  1.0000
  O   O28       1.0  0.5175895779309838  0.733482614744048  0.8213956406735221  1.0000
  O   O29       1.0  0.4767770900827982  0.67660011242387  0.9267362372239774  1.0000
  O   O30       1.0  0.6388450623602893  0.36597354529096987  0.10132065098399319  1.0000
  O   O31       1.0  0.5445822051916736  0.27992363863284436  0.16451164245902558  1.0000
  O   O32       1.0  0.4960909217084862  0.33910239763331157  0.0632014676539399  1.0000
