data_image0
_chemical_formula_structural       Zn4H24C24S8N32
_chemical_formula_sum              "Zn4 H24 C24 S8 N32"
_cell_length_a       8.014703778006915
_cell_length_b       9.797446496032336
_cell_length_c       15.834809709065055
_cell_angle_alpha    90.0002929949916
_cell_angle_beta     90.00014683985947
_cell_angle_gamma    90.00003478298056

_space_group_name_H-M_alt    "P 1"
_space_group_IT_number       1

loop_
  _space_group_symop_operation_xyz
  'x, y, z'

loop_
  _atom_site_type_symbol
  _atom_site_label
  _atom_site_symmetry_multiplicity
  _atom_site_fract_x
  _atom_site_fract_y
  _atom_site_fract_z
  _atom_site_occupancy
  Zn  Zn1       1.0  0.49999692317668115  0.7124908871707163  0.24999876882500155  1.0000
  Zn  Zn2       1.0  0.9999979838078303  0.7875085453314411  0.7500007989268977  1.0000
  Zn  Zn3       1.0  0.5000030222944787  0.287508754362122  0.7499996860974107  1.0000
  Zn  Zn4       1.0  0.9999989948759663  0.21249134117822158  0.2500014610286598  1.0000
  H   H1        1.0  0.25875006647778065  0.4628265222746391  0.1840113189075581  1.0000
  H   H2        1.0  0.2412533350465296  0.03717278159199109  0.6840071716275915  1.0000
  H   H3        1.0  0.7412498306405978  0.4628282078353151  0.3159892198129199  1.0000
  H   H4        1.0  0.7587475304264615  0.0371683517013253  0.8159901473403934  1.0000
  H   H5        1.0  0.7412536221169006  0.5371690365705176  0.8159890305710249  1.0000
  H   H6        1.0  0.7587466104269325  0.962832983985514  0.3159912833044913  1.0000
  H   H7        1.0  0.25875136253763026  0.5371765370657683  0.6840086035982934  1.0000
  H   H8        1.0  0.24124617651384028  0.9628261864672751  0.18401020213011776  1.0000
  H   H9        1.0  0.13845051186363833  0.3679242103374491  0.4295555639246231  1.0000
  H   H10       1.0  0.3615528874611087  0.13207712776879527  0.9295518719756828  1.0000
  H   H11       1.0  0.8615518092926278  0.36792494127669056  0.07044593828035062  1.0000
  H   H12       1.0  0.6384530402244267  0.13207468740581157  0.5704476411210067  1.0000
  H   H13       1.0  0.8615481859119853  0.6320754312133942  0.5704473116374158  1.0000
  H   H14       1.0  0.6384508011322865  0.8679235344416936  0.0704472144708248  1.0000
  H   H15       1.0  0.1384506315944023  0.6320767416075979  0.9295531481669599  1.0000
  H   H16       1.0  0.3615494006662558  0.8679239334639917  0.4295533398816573  1.0000
  H   H17       1.0  0.3391854143965247  0.5774227549470793  0.4369485983635428  1.0000
  H   H18       1.0  0.1608208938974087  0.9225769606991246  0.9369436688856536  1.0000
  H   H19       1.0  0.6608158166193334  0.5774243469645127  0.0630523020764926  1.0000
  H   H20       1.0  0.8391918668625991  0.922578640123646  0.5630520242052766  1.0000
  H   H21       1.0  0.6608107879579707  0.42257790726418404  0.5630511195981853  1.0000
  H   H22       1.0  0.8391890332237749  0.07742063948270328  0.0630535229998799  1.0000
  H   H23       1.0  0.3391853765593422  0.4225773359168485  0.9369461528499554  1.0000
  H   H24       1.0  0.1608143171458991  0.07742202209006879  0.4369476937629102  1.0000
  C   C1        1.0  0.7629340399167787  0.725020350928716  0.4007907930195245  1.0000
  C   C2        1.0  0.737051650287988  0.7749793101377874  0.9007899170177184  1.0000
  C   C3        1.0  0.2370585681606059  0.7250220348895268  0.0992093102613794  1.0000
  C   C4        1.0  0.262942283866046  0.7749789654312308  0.5992084677715255  1.0000
  C   C5        1.0  0.2370571716130954  0.2749823526321649  0.5992095564622559  1.0000
  C   C6        1.0  0.2629470474835287  0.22502645544726357  0.09921043247373969  1.0000
  C   C7        1.0  0.7629438727280301  0.27497964799737673  0.9007904077059974  1.0000
  C   C8        1.0  0.7370476799535551  0.22501863475616804  0.4007912501813279  1.0000
  C   C9        1.0  0.25334392749000756  0.4660521339353921  0.2522805336978777  1.0000
  C   C10       1.0  0.24666605885886383  0.0339477355164988  0.752276383241778  1.0000
  C   C11       1.0  0.7466572197609054  0.4660573392551866  0.2477193836904306  1.0000
  C   C12       1.0  0.7533397950180927  0.033941716722672786  0.7477221885873104  1.0000
  C   C13       1.0  0.7466622565206081  0.5339413835673879  0.7477210788192252  1.0000
  C   C14       1.0  0.7533401251470622  0.966063133427866  0.24772080866227233  1.0000
  C   C15       1.0  0.25334522113047336  0.5339474056566688  0.7522809658018373  1.0000
  C   C16       1.0  0.24665640734127686  0.9660548628026078  0.2522800554482245  1.0000
  C   C17       1.0  0.2956228173901252  0.5261979369699644  0.38005800458196853  1.0000
  C   C18       1.0  0.20438819315459966  0.9738013073568154  0.8800520301633765  1.0000
  C   C19       1.0  0.7043808705147397  0.5261990009770441  0.119943997209667  1.0000
  C   C20       1.0  0.795622110719222  0.9738034367616563  0.6199438246144522  1.0000
  C   C21       1.0  0.7043808712128836  0.4738027252562133  0.6199448709849091  1.0000
  C   C22       1.0  0.7956217339745277  0.0262003755319213  0.1199476878088461  1.0000
  C   C23       1.0  0.2956215703674872  0.4738026818993929  0.8800531946774655  1.0000
  C   C24       1.0  0.20437908246670128  0.026196204784568487  0.3800577879090739  1.0000
  S   S1        1.0  0.9383455217752967  0.7357631996315914  0.4516579699288386  1.0000
  S   S2        1.0  0.5616416741529376  0.7642379035176814  0.9516555698459044  1.0000
  S   S3        1.0  0.06164958979415051  0.7357653969118375  0.0483415357438446  1.0000
  S   S4        1.0  0.4383534996332513  0.7642362026805285  0.5483446755973275  1.0000
  S   S5        1.0  0.0616444420550692  0.2642374625938402  0.5483455371492169  1.0000
  S   S6        1.0  0.4383557759070911  0.23576377936538503  0.0483435165981803  1.0000
  S   S7        1.0  0.9383553465060004  0.26423526529895713  0.951657550703473  1.0000
  S   S8        1.0  0.5616339687829138  0.23575833550223274  0.451659462989511  1.0000
  N   N1        1.0  0.6346921479459198  0.7195963024643389  0.3634154496358946  1.0000
  N   N2        1.0  0.8652908572539175  0.780407131642967  0.8634109676951666  1.0000
  N   N3        1.0  0.3652992083497039  0.7195973382272881  0.1365865310825498  1.0000
  N   N4        1.0  0.13470183327515883  0.7804009097366414  0.6365880657367811  1.0000
  N   N5        1.0  0.36529282506423033  0.28040538044444935  0.6365905835207855  1.0000
  N   N6        1.0  0.1347103359307198  0.21959761326858998  0.1365893817962984  1.0000
  N   N7        1.0  0.6347082233599011  0.2804053653244837  0.8634106608094283  1.0000
  N   N8        1.0  0.865280644308811  0.2195926077629408  0.3634141782850263  1.0000
  N   N9        1.0  0.3363590054646011  0.5584958290478638  0.3005143410733382  1.0000
  N   N10       1.0  0.1636466107778674  0.9415027562967564  0.8005101065152616  1.0000
  N   N11       1.0  0.6636422113170967  0.5584965114084568  0.1994871311431581  1.0000
  N   N12       1.0  0.8363636688060794  0.9415035232920701  0.6994869093513358  1.0000
  N   N13       1.0  0.6636421877169667  0.4415007504707872  0.6994860084052377  1.0000
  N   N14       1.0  0.8363583255170894  0.05849688523206708  0.199487085370265  1.0000
  N   N15       1.0  0.33635773415605286  0.44150415080110855  0.8005119553009266  1.0000
  N   N16       1.0  0.16363752437465  0.058495097572198104  0.3005128086104066  1.0000
  N   N17       1.0  0.16387969372211586  0.37925825761070797  0.2979941814808028  1.0000
  N   N18       1.0  0.33612054285219983  0.12074403190565158  0.7979897893082963  1.0000
  N   N19       1.0  0.836121388249296  0.37925598332680716  0.20200672497407618  1.0000
  N   N20       1.0  0.6638816331847863  0.12074269393389157  0.7020077934550172  1.0000
  N   N21       1.0  0.8361202517550693  0.620740363258477  0.702006799520248  1.0000
  N   N22       1.0  0.663880650325261  0.879258671647214  0.20200803409969834  1.0000
  N   N23       1.0  0.16388230034333157  0.6207426375354501  0.7979923614692197  1.0000
  N   N24       1.0  0.3361158168773031  0.8792559269320747  0.2979925560243544  1.0000
  N   N25       1.0  0.1916077006719519  0.41938231884471827  0.37873031349010217  1.0000
  N   N26       1.0  0.3083991839713319  0.08061859820463008  0.8787289163657732  1.0000
  N   N27       1.0  0.8083959068837956  0.4193814034453211  0.1212675620183887  1.0000
  N   N28       1.0  0.6916079527125873  0.08061966694263839  0.621267908230017  1.0000
  N   N29       1.0  0.8083959879162563  0.5806173226838067  0.6212668783946143  1.0000
  N   N30       1.0  0.6916045046180983  0.9193800226523973  0.1212689070373898  1.0000
  N   N31       1.0  0.1916052862932816  0.5806202794334322  0.878730261388  1.0000
  N   N32       1.0  0.30839324046691974  0.9193799745931198  0.3787311782132647  1.0000
