data_image0
_chemical_formula_structural       Cd2Ni2H24C16N12
_chemical_formula_sum              "Cd2 Ni2 H24 C16 N12"
_cell_length_a       7.635568439605025
_cell_length_b       9.965285049293042
_cell_length_c       13.528976178115531
_cell_angle_alpha    94.00716541172797
_cell_angle_beta     89.42612269636345
_cell_angle_gamma    89.04361639627831

_space_group_name_H-M_alt    "P 1"
_space_group_IT_number       1

loop_
  _space_group_symop_operation_xyz
  'x, y, z'

loop_
  _atom_site_type_symbol
  _atom_site_label
  _atom_site_symmetry_multiplicity
  _atom_site_fract_x
  _atom_site_fract_y
  _atom_site_fract_z
  _atom_site_occupancy
  Cd  Cd1       1.0  0.5069719797240282  0.8983459515552494  0.7304678917088907  1.0000
  Cd  Cd2       1.0  0.4930278171027497  0.10165848399832807  0.2695363472414556  1.0000
  Ni  Ni1       1.0  0.9999930344211949  0.999985204262309  1.2410736403180526e-06  1.0000
  Ni  Ni2       1.0  1.1802889332605862e-05  0.9999962322686425  0.5000022651808465  1.0000
  H   H1        1.0  0.34968652222163854  0.665489426227147  0.7941184870001551  1.0000
  H   H2        1.0  0.5590187810640403  0.6562491119921958  0.821842115103685  1.0000
  H   H3        1.0  0.6379896896276662  0.5897074684688804  0.6530646592559108  1.0000
  H   H4        1.0  0.41572752006479163  0.6044739339416553  0.6212662841617771  1.0000
  H   H5        1.0  0.338961736822057  0.4156780110788531  0.7247896794962543  1.0000
  H   H6        1.0  0.5586116836024005  0.4044705116335549  0.7644083052085904  1.0000
  H   H7        1.0  0.6586924313689692  0.33788367538965497  0.5909752706669451  1.0000
  H   H8        1.0  0.4451004623961268  0.36228562451076124  0.5465641075647767  1.0000
  H   H9        1.0  0.5033414767530289  0.12344795579553387  0.5573094176066107  1.0000
  H   H10       1.0  0.3322990265091903  0.1773856484176051  0.6398745932704202  1.0000
  H   H11       1.0  0.5388055621361688  0.17654929198754837  0.7739340639782384  1.0000
  H   H12       1.0  0.6986929865110483  0.12670639785056886  0.6966521144345421  1.0000
  H   H13       1.0  0.6503106898994419  0.3345139351506531  0.2058790633311105  1.0000
  H   H14       1.0  0.44098364164426584  0.3437562244392823  0.1781540207912613  1.0000
  H   H15       1.0  0.3620061245282075  0.4103018907897961  0.346929472834475  1.0000
  H   H16       1.0  0.5842683330163967  0.39553245050246477  0.3787314092962148  1.0000
  H   H17       1.0  0.6610406612446624  0.5843283660585427  0.2752094602505935  1.0000
  H   H18       1.0  0.4413959332867066  0.5955378058979407  0.23558646176704204  1.0000
  H   H19       1.0  0.34130743320619683  0.6621176640408563  0.4090221754788672  1.0000
  H   H20       1.0  0.554900632026346  0.6377207315592485  0.45343282000661844  1.0000
  H   H21       1.0  0.49664655021727105  0.8765564461197286  0.44268822427169147  1.0000
  H   H22       1.0  0.6676967116631402  0.822626841623716  0.3601292899593886  1.0000
  H   H23       1.0  0.4611968174653356  0.8234580998610783  0.2260658608693333  1.0000
  H   H24       1.0  0.3013015752147298  0.8732989768096213  0.3033448004984436  1.0000
  C   C1        1.0  0.1734763458213351  0.9767949570281405  0.9050329264852125  1.0000
  C   C2        1.0  0.1765046133093904  0.9177799404234224  0.5659354332307416  1.0000
  C   C3        1.0  0.8365826962562793  0.9041735009688879  0.5651964673345731  1.0000
  C   C4        1.0  0.8344562698559417  0.9457607824948793  0.9087691485606156  1.0000
  C   C5        1.0  0.503836049558295  0.5751701448646286  0.6801586970074068  1.0000
  C   C6        1.0  0.47619366260804  0.4285730578604118  0.7012144876679257  1.0000
  C   C7        1.0  0.5187684187179186  0.3317933206164554  0.6111897213992421  1.0000
  C   C8        1.0  0.47355767594344667  0.1857576653360482  0.6256043906858721  1.0000
  C   C9        1.0  0.8265134112962825  0.023182372022461095  0.0949716152792206  1.0000
  C   C10       1.0  0.8235215849781666  0.0822113526412522  0.4340710408190631  1.0000
  C   C11       1.0  0.16345117443579943  0.0958307284907676  0.4348009443935581  1.0000
  C   C12       1.0  0.16552830131603705  0.05421353079612598  0.09123380378823501  1.0000
  C   C13       1.0  0.4961650817946009  0.42483418178291293  0.31983666036253317  1.0000
  C   C14       1.0  0.5238126403428609  0.5714352819281742  0.2987817650508759  1.0000
  C   C15       1.0  0.48123268799339053  0.6682120467370111  0.3888086398225923  1.0000
  C   C16       1.0  0.5264342907187683  0.8142457417456438  0.3743954046994418  1.0000
  N   N1        1.0  0.2854462103165433  0.9621009712977797  0.8451713191703902  1.0000
  N   N2        1.0  0.29103612164293224  0.868079209809231  0.6085069607195948  1.0000
  N   N3        1.0  0.7297631590437135  0.8468194697904463  0.6080236465945035  1.0000
  N   N4        1.0  0.727297696274526  0.9117496303681347  0.8512741120685944  1.0000
  N   N5        1.0  0.4737052065165202  0.6725273257113997  0.7659868488698223  1.0000
  N   N6        1.0  0.5659553080678988  0.12513663917193438  0.7073791994039881  1.0000
  N   N7        1.0  0.7145486261369242  0.0378863811772234  0.15483217229375867  1.0000
  N   N8        1.0  0.7089809776435416  0.13190807623141146  0.3914978981247828  1.0000
  N   N9        1.0  0.2702183925565152  0.15317902446201256  0.3919826300650584  1.0000
  N   N10       1.0  0.272690591075829  0.08823774674338838  0.1487294122741574  1.0000
  N   N11       1.0  0.5262958858471621  0.3274790390235082  0.23401081828529874  1.0000
  N   N12       1.0  0.43404446218631415  0.874870719206832  0.2926170406764115  1.0000
