data_image0
_chemical_formula_structural       Zn2H36C34N2O12
_chemical_formula_sum              "Zn2 H36 C34 N2 O12"
_cell_length_a       10.570968564548322
_cell_length_b       11.862759059214671
_cell_length_c       15.897113230971941
_cell_angle_alpha    90.12679710381823
_cell_angle_beta     88.21551608111929
_cell_angle_gamma    89.85879511557118

_space_group_name_H-M_alt    "P 1"
_space_group_IT_number       1

loop_
  _space_group_symop_operation_xyz
  'x, y, z'

loop_
  _atom_site_type_symbol
  _atom_site_label
  _atom_site_symmetry_multiplicity
  _atom_site_fract_x
  _atom_site_fract_y
  _atom_site_fract_z
  _atom_site_occupancy
  Zn  Zn1       1.0  0.6283518605750088  0.49814689857994676  0.5043290575180918  1.0000
  Zn  Zn2       1.0  0.37233079622812687  0.4989712504218957  0.49631187148289496  1.0000
  H   H1        1.0  0.6356467085979318  0.3684914216978116  0.04672356803263969  1.0000
  H   H2        1.0  0.48302227634918177  0.3276725635496335  0.08607435602736047  1.0000
  H   H3        1.0  0.5466106850387221  0.32971636359144446  0.9152382915029802  1.0000
  H   H4        1.0  0.38873619303353735  0.3512255113866019  0.9544351345517936  1.0000
  H   H5        1.0  0.6177788858224744  0.6439377697434807  0.904222870915852  1.0000
  H   H6        1.0  0.4046380712967235  0.665971375404233  0.9556321327936386  1.0000
  H   H7        1.0  0.5774846628426432  0.6766540171845749  0.044852142805566986  1.0000
  H   H8        1.0  0.357767429135798  0.6281557248696572  0.09512724283570857  1.0000
  H   H9        1.0  0.10699439641510368  0.4368612710664621  0.11380842168399137  1.0000
  H   H10       1.0  0.14089333706424162  0.5789293289300801  0.0870400667562237  1.0000
  H   H11       1.0  0.2245227770402636  0.4571115905851003  0.24720331572009965  1.0000
  H   H12       1.0  0.2643916718980748  0.5964910286621646  0.22190133415610794  1.0000
  H   H13       1.0  0.0323365655752497  0.6512285005202116  0.22470320387738235  1.0000
  H   H14       1.0  0.0798872260755203  0.5975246345737447  0.32236162556559117  1.0000
  H   H15       1.0  0.9909578137574329  0.5115048024453374  0.25373589523093176  1.0000
  H   H16       1.0  0.8327774119175402  0.6211310993290057  0.16912458393047558  1.0000
  H   H17       1.0  0.6842951476553694  0.6893506420454045  0.16390421518595125  1.0000
  H   H18       1.0  0.9177596218025246  0.7345729647758364  0.04900105879791989  1.0000
  H   H19       1.0  0.7695002563634998  0.8010434644802232  0.037817395452300694  1.0000
  H   H20       1.0  0.7841739501849715  0.8876860282125281  0.18248636101037616  1.0000
  H   H21       1.0  0.9174842029395763  0.9253047408766265  0.11797770154397107  1.0000
  H   H22       1.0  0.9315889700025223  0.8196326927187627  0.19588173742514664  1.0000
  H   H23       1.0  0.15101590837172552  0.6013075792773606  0.8327171606836213  1.0000
  H   H24       1.0  0.3006767578397174  0.6678993734677477  0.832607666898397  1.0000
  H   H25       1.0  0.0708386336004594  0.7186901327149398  0.9497127142911805  1.0000
  H   H26       1.0  0.2223291846940469  0.7753300713830741  0.9664033354766628  1.0000
  H   H27       1.0  0.2229089318775053  0.8737482145368746  0.8275924440454359  1.0000
  H   H28       1.0  0.08385326650056159  0.9111937408838744  0.8868255821607958  1.0000
  H   H29       1.0  0.07600915890569838  0.8120318863773052  0.8034881872840243  1.0000
  H   H30       1.0  0.8984393506883208  0.49270432255033825  0.8739199533470339  1.0000
  H   H31       1.0  0.8390596665033598  0.6280230269628009  0.9025826020742895  1.0000
  H   H32       1.0  0.7663393823875991  0.4919574619517633  0.7460216840972931  1.0000
  H   H33       1.0  0.7008163177167147  0.6230544581456743  0.7738590525926979  1.0000
  H   H34       1.0  0.9161801704766502  0.7147285861864532  0.7602053184333568  1.0000
  H   H35       1.0  0.8703876927562461  0.651373503168422  0.6651895160357097  1.0000
  H   H36       1.0  0.9838221414762245  0.583628009398389  0.728935329937272  1.0000
  C   C1        1.0  0.5081602132915037  0.7173778341212512  0.5070726688024079  1.0000
  C   C2        1.0  0.4647963197563171  0.49457814816482676  0.7521168000722652  1.0000
  C   C3        1.0  0.5297599717401981  0.5095700055761939  0.24802769111132503  1.0000
  C   C4        1.0  0.5147305772105498  0.5088516471297027  0.08132404458793725  1.0000
  C   C5        1.0  0.4850762185819377  0.5047053989058414  0.9182715436240015  1.0000
  C   C6        1.0  0.48583074986795793  0.3836811383605437  0.9553501064314387  1.0000
  C   C7        1.0  0.534119684314838  0.38791581902611955  0.045565100778212284  1.0000
  C   C8        1.0  0.4703063960426447  0.5001687766131226  0.8282478127975778  1.0000
  C   C9        1.0  0.527614664216223  0.5100136871908421  0.17161495233917629  1.0000
  C   C10       1.0  0.5223571047004896  0.5075110163060829  0.3384300166539019  1.0000
  C   C11       1.0  0.4689882779361909  0.49204290752334157  0.6617477213133041  1.0000
  C   C12       1.0  0.5085330423917468  0.9419266281258275  0.5034183389633354  1.0000
  C   C13       1.0  0.5090081444671527  0.8388778048344533  0.5062080367085355  1.0000
  C   C14       1.0  0.06480903667692671  0.4981727749994676  0.49603785750299056  1.0000
  C   C15       1.0  0.9357294644857747  0.496238081280005  0.5042075367966843  1.0000
  C   C16       1.0  0.5041280593466553  0.2800032295765221  0.49514156742853976  1.0000
  C   C17       1.0  0.6113750512711887  0.5891683607284436  0.03525755924723479  1.0000
  C   C18       1.0  0.3793386725226141  0.5499032229918444  0.059777558689518194  1.0000
  C   C19       1.0  0.6123948472947731  0.563214548844563  0.9385156755747059  1.0000
  C   C20       1.0  0.37905625970473283  0.5762469320427998  0.9638670227155257  1.0000
  C   C21       1.0  0.5073935896027918  0.0554738759648927  0.5000852318955464  1.0000
  C   C22       1.0  0.505765133585996  0.15849294730097094  0.49693399923953047  1.0000
  C   C23       1.0  0.17575425936513508  0.505231407180773  0.12187354583204517  1.0000
  C   C24       1.0  0.19009281896285302  0.5325556584403444  0.21491236342979644  1.0000
  C   C25       1.0  0.06653015478853772  0.5750051980046252  0.2561313015824068  1.0000
  C   C26       1.0  0.7684796421943998  0.6630107452934768  0.12598039467830088  1.0000
  C   C27       1.0  0.8328269175318611  0.7643327999388135  0.08438537759514017  1.0000
  C   C28       1.0  0.8684194932769387  0.8541477076603601  0.1485661938660741  1.0000
  C   C29       1.0  0.21923857645209213  0.6426814072071567  0.8734100534888538  1.0000
  C   C30       1.0  0.1593143683261786  0.7451577713663938  0.9171773114724999  1.0000
  C   C31       1.0  0.13404451210322324  0.8407682360901136  0.8555441122807533  1.0000
  C   C32       1.0  0.8163084269904247  0.5492500835831464  0.8690464396968165  1.0000
  C   C33       1.0  0.7878102180740073  0.572239202189067  0.7771278194683047  1.0000
  C   C34       1.0  0.8956636727602358  0.6333511922198981  0.730345637801882  1.0000
  N   N1        1.0  0.17447775220878728  0.4998524200381099  0.48901287736619975  1.0000
  N   N2        1.0  0.8260800250577917  0.4946454749428853  0.5113743750662747  1.0000
  O   O1        1.0  0.6112943196406634  0.6686328644145476  0.525607424886388  1.0000
  O   O2        1.0  0.4042563431730457  0.6705176694324495  0.4886157194209061  1.0000
  O   O3        1.0  0.6235199789962281  0.5264184959058937  0.3780675404310684  1.0000
  O   O4        1.0  0.4130940419994643  0.48675490653333503  0.37151645346924056  1.0000
  O   O5        1.0  0.5769477223962766  0.4707377937208791  0.6267352953790493  1.0000
  O   O6        1.0  0.3664030786915404  0.512023693678188  0.6238686633753047  1.0000
  O   O7        1.0  0.6106717510268069  0.3282920152145721  0.48265939954609377  1.0000
  O   O8        1.0  0.3964854867204791  0.3270578895369384  0.5066620451047256  1.0000
  O   O9        1.0  0.2916137589253153  0.4646803943946408  0.08311356039590118  1.0000
  O   O10       1.0  0.7351817294682518  0.578640005633659  0.06544628616403257  1.0000
  O   O11       1.0  0.2571670491014402  0.557881264127282  0.9321863220919153  1.0000
  O   O12       1.0  0.7140158758839946  0.4922937700185841  0.9125095826640004  1.0000
