data_image0
_chemical_formula_structural       Pr2Cu2H26C30N4O26
_chemical_formula_sum              "Pr2 Cu2 H26 C30 N4 O26"
_cell_length_a       8.116800305335286
_cell_length_b       10.680886844669077
_cell_length_c       12.271165131666477
_cell_angle_alpha    100.33393296947173
_cell_angle_beta     105.98328218246381
_cell_angle_gamma    102.87454001540678

_space_group_name_H-M_alt    "P 1"
_space_group_IT_number       1

loop_
  _space_group_symop_operation_xyz
  'x, y, z'

loop_
  _atom_site_type_symbol
  _atom_site_label
  _atom_site_symmetry_multiplicity
  _atom_site_fract_x
  _atom_site_fract_y
  _atom_site_fract_z
  _atom_site_occupancy
  Pr  Pr1       1.0  0.9923358138303014  0.6667064392329536  0.4208614234119068  1.0000
  Pr  Pr2       1.0  0.007663998649803699  0.3332935758642109  0.5791408265812308  1.0000
  Cu  Cu1       1.0  0.03298513690939589  0.2314747394366847  0.04704281435510179  1.0000
  Cu  Cu2       1.0  0.9670141920927122  0.7685272714252421  0.9529580284347431  1.0000
  H   H1        1.0  0.5864870604613657  0.32530181012884907  0.35420076560834707  1.0000
  H   H2        1.0  0.41350904749859296  0.6747060320030941  0.6458150530872189  1.0000
  H   H3        1.0  0.7842853599189181  0.7973528751562428  0.564100471597989  1.0000
  H   H4        1.0  0.21571566327832406  0.2026432242716965  0.4358948711693742  1.0000
  H   H5        1.0  0.8257392313249949  0.6855632404608798  0.6335667066013286  1.0000
  H   H6        1.0  0.17426637979744436  0.3144348529815275  0.3664306423673338  1.0000
  H   H7        1.0  0.16115241516475717  0.9067756193878723  0.6391295992546517  1.0000
  H   H8        1.0  0.8388500357326977  0.09321750750984138  0.3608655467841189  1.0000
  H   H9        1.0  0.22241845951818104  0.9478662531439496  0.5335914781221688  1.0000
  H   H10       1.0  0.7775817210239919  0.05213085465789652  0.46640141789691814  1.0000
  H   H11       1.0  0.6714683345479315  0.735850466909838  0.28639519156664756  1.0000
  H   H12       1.0  0.328525760543549  0.2641514951288499  0.7136087189068404  1.0000
  H   H13       1.0  0.8265850070987425  0.8596185931255249  0.2931781392985258  1.0000
  H   H14       1.0  0.17341218715432663  0.14037749971300434  0.706815656085425  1.0000
  H   H15       1.0  0.4815208420260858  0.5249400670181501  0.18953396663463448  1.0000
  H   H16       1.0  0.5184839265644002  0.47506985157795595  0.8104756840132907  1.0000
  H   H17       1.0  0.5461217574175592  0.6371833780098157  0.037478297792475156  1.0000
  H   H18       1.0  0.45388866762126406  0.3628245746796992  0.9625321227831948  1.0000
  H   H19       1.0  0.3131376247850141  0.7377926454920142  0.9300297351760707  1.0000
  H   H20       1.0  0.6868687340131245  0.2622143511473851  0.06997323765502729  1.0000
  H   H21       1.0  0.3728187334495772  0.17206489215175225  0.017070036845112206  1.0000
  H   H22       1.0  0.6271755468831088  0.8279341056963929  0.9829318108786039  1.0000
  H   H23       1.0  0.5872380843966597  0.06296249699185098  0.1289043474408871  1.0000
  H   H24       1.0  0.4127692186236941  0.9370435228820923  0.8710970214583256  1.0000
  H   H25       1.0  0.5056541639826049  0.9572229622568498  0.28007298090618343  1.0000
  H   H26       1.0  0.494349147586135  0.0427830004541718  0.7199333216978587  1.0000
  C   C1        1.0  0.6962832658763675  0.4148735567515588  0.36616238835972587  1.0000
  C   C2        1.0  0.3037116694498608  0.5851304179989611  0.6338387403875387  1.0000
  C   C3        1.0  0.20048727763418836  0.5004339518813978  0.2645608383049378  1.0000
  C   C4        1.0  0.799515521135028  0.4995670781790835  0.7354405123233433  1.0000
  C   C5        1.0  0.2313068264483177  0.5705144630661677  0.17167414823606458  1.0000
  C   C6        1.0  0.7686910455320443  0.42948359191068164  0.8283233465098974  1.0000
  C   C7        1.0  0.38794964508096536  0.5724049667162632  0.1433644986618035  1.0000
  C   C8        1.0  0.6120517056746095  0.42759902955274487  0.8566378588310926  1.0000
  C   C9        1.0  0.4235620030888965  0.6345627444952553  0.05858644645722674  1.0000
  C   C10       1.0  0.5764427971203503  0.3654402646506227  0.9414172290101347  1.0000
  C   C11       1.0  0.2986728432864894  0.6912417879121052  0.00010613433846628478  1.0000
  C   C12       1.0  0.7013290315739339  0.3087602252355239  0.9998960100856634  1.0000
  C   C13       1.0  0.11312509730315418  0.6308919345866216  0.11015262288564294  1.0000
  C   C14       1.0  0.8868740171362219  0.36910611205053817  0.8898467378815056  1.0000
  C   C15       1.0  0.9356156839659776  0.6353433376961064  0.12418446720671035  1.0000
  C   C16       1.0  0.06438691813359304  0.36465675554704563  0.8758093627883526  1.0000
  C   C17       1.0  0.9572590840556574  0.06255036488322219  0.18397179469908317  1.0000
  C   C18       1.0  0.04272871089927584  0.9374416703877632  0.8160268997785778  1.0000
  C   C19       1.0  0.13968717801107286  0.06037832991159319  0.17846855065174344  1.0000
  C   C20       1.0  0.8603069893260268  0.9396167353202429  0.8215277643691223  1.0000
  C   C21       1.0  0.34446913261052003  0.12219064109749674  0.08259755649633152  1.0000
  C   C22       1.0  0.6555313982237363  0.8778113487813712  0.9174067725867658  1.0000
  C   C23       1.0  0.4606664899472435  0.061048000830105295  0.1441742565771662  1.0000
  C   C24       1.0  0.5393398485374661  0.9389589894876096  0.8558295263899539  1.0000
  C   C25       1.0  0.4148238665541726  0.0017883686313667  0.2278700272683878  1.0000
  C   C26       1.0  0.5851853972793605  0.9982196176845903  0.7721352867419711  1.0000
  C   C27       1.0  0.2525000646585979  0.0022496450862021997  0.24707216837003904  1.0000
  C   C28       1.0  0.7475010715342377  0.9977503869580462  0.7529287071001676  1.0000
  C   C29       1.0  0.2115201000889184  0.9509978950072263  0.34622520723245026  1.0000
  C   C30       1.0  0.7884753503340461  0.048997174528310004  0.6537713535375431  1.0000
  N   N1        1.0  0.14880195071571475  0.688629371703442  0.02640036273767516  1.0000
  N   N2        1.0  0.8511999850850032  0.311372660409262  0.9735993512783666  1.0000
  N   N3        1.0  0.18899067505892478  0.12170115903410307  0.10025850381714459  1.0000
  N   N4        1.0  0.8110047956774692  0.8782939168231247  0.8997372468168193  1.0000
  O   O1        1.0  0.14745023462147336  0.826739885225706  0.3275659250244374  1.0000
  O   O2        1.0  0.8525485003273944  0.1732571676989139  0.6724332063337641  1.0000
  O   O3        1.0  0.8395804805646706  0.7238350874470143  0.5674139334243193  1.0000
  O   O4        1.0  0.1604242066489832  0.2761639890825407  0.4325842093401988  1.0000
  O   O5        1.0  0.19478496326149747  0.8724667878600912  0.5707899126959504  1.0000
  O   O6        1.0  0.8052207088012366  0.127531324547391  0.4292050058646311  1.0000
  O   O7        1.0  0.8792369252661274  0.5807088401361895  0.19431352339825025  1.0000
  O   O8        1.0  0.12075608328601108  0.41928323763634984  0.8056829135318041  1.0000
  O   O9        1.0  0.7851318123924216  0.7979805083317402  0.3379397159590453  1.0000
  O   O10       1.0  0.2148728454996913  0.20201163978252623  0.6620548820330043  1.0000
  O   O11       1.0  0.20851789475332777  0.5694177326588487  0.3622056174354212  1.0000
  O   O12       1.0  0.7914856336753644  0.4305783564114094  0.6377926472382853  1.0000
  O   O13       1.0  0.660200835340845  0.5158973865517993  0.3389601810089289  1.0000
  O   O14       1.0  0.3397944818962202  0.4841045608255144  0.6610464056217822  1.0000
  O   O15       1.0  0.8584678534843845  0.4116700417391712  0.4080235832103156  1.0000
  O   O16       1.0  0.1415256857603779  0.5883299960913392  0.5919717670849778  1.0000
  O   O17       1.0  0.17863093082161186  0.37621447691481785  0.23881686724597265  1.0000
  O   O18       1.0  0.8213667062825892  0.6237796075155729  0.7611799556133292  1.0000
  O   O19       1.0  0.8463989623968615  0.6948773083799579  0.057044693274988754  1.0000
  O   O20       1.0  0.15360368274990316  0.3051197764208311  0.9429527449225077  1.0000
  O   O21       1.0  0.8804375276450714  0.13212262576902134  0.1228711727663665  1.0000
  O   O22       1.0  0.11955650408579296  0.8678823383903379  0.8771299396407173  1.0000
  O   O23       1.0  0.8861973423986597  0.9979214689089703  0.24336867834681908  1.0000
  O   O24       1.0  0.1137927383843262  0.0020726339510659  0.7566209990655111  1.0000
  O   O25       1.0  0.2534674308598284  0.0384214027057723  0.4415455068636476  1.0000
  O   O26       1.0  0.7465273305305117  0.9615786204633636  0.5584525195888546  1.0000
