data_image0
_chemical_formula_structural       Zn2H62C52N2O16
_chemical_formula_sum              "Zn2 H62 C52 N2 O16"
_cell_length_a       12.70999224213215
_cell_length_b       14.063541433345332
_cell_length_c       16.94293645283453
_cell_angle_alpha    92.14794159135418
_cell_angle_beta     90.23816121019496
_cell_angle_gamma    94.85432339971112

_space_group_name_H-M_alt    "P 1"
_space_group_IT_number       1

loop_
  _space_group_symop_operation_xyz
  'x, y, z'

loop_
  _atom_site_type_symbol
  _atom_site_label
  _atom_site_symmetry_multiplicity
  _atom_site_fract_x
  _atom_site_fract_y
  _atom_site_fract_z
  _atom_site_occupancy
  Zn  Zn1       1.0  0.4050460672699145  0.4926310506134968  0.480879402940417  1.0000
  Zn  Zn2       1.0  0.6210381969836122  0.5031366907240269  0.49173256567251405  1.0000
  H   H1        1.0  0.6753460164024575  0.5869918578004915  0.7169375401021156  1.0000
  H   H2        1.0  0.741948053829354  0.7450416674284172  0.39774201262903836  1.0000
  H   H3        1.0  0.9255208074009574  0.7240902192218217  0.3409969676071043  1.0000
  H   H4        1.0  0.9149348506302245  0.8420128495988948  0.3800553561729459  1.0000
  H   H5        1.0  0.9088492108008096  0.8180032666937721  0.27643931243382985  1.0000
  H   H6        1.0  0.22655169072194778  0.6211567036237896  0.6595348842817688  1.0000
  H   H7        1.0  0.2653314499413497  0.6914370513769015  0.7459928662586321  1.0000
  H   H8        1.0  0.11312707048274008  0.509899131130588  0.7425875224832981  1.0000
  H   H9        1.0  0.1522316481848804  0.5802525351298373  0.8278744278991752  1.0000
  H   H10       1.0  0.06876572881513708  0.7215931558297657  0.7697769618605792  1.0000
  H   H11       1.0  0.9750524280557685  0.6223665142597739  0.7812934489129759  1.0000
  H   H12       1.0  0.4181281691054649  0.40363023229581774  0.21832007523245525  1.0000
  H   H13       1.0  0.026209672974957212  0.6478184711170202  0.686435877571661  1.0000
  H   H14       1.0  0.3401938899503206  0.7922684240948783  0.8454030510779378  1.0000
  H   H15       1.0  0.4030630475602236  0.7769635812530848  0.9379363413659476  1.0000
  H   H16       1.0  0.16491637899547845  0.7387059548701133  0.9066181087585008  1.0000
  H   H17       1.0  0.2297653191664964  0.730103060850631  0.9982826712819489  1.0000
  H   H18       1.0  0.290809123252977  0.9074057551229232  0.996540392886139  1.0000
  H   H19       1.0  0.1511154210928041  0.8882863590809649  0.9919183291044646  1.0000
  H   H20       1.0  0.2237585096504091  0.9150361040822548  0.9052220728826514  1.0000
  H   H21       1.0  0.5085692938897921  0.8162229401065206  0.20532707681332601  1.0000
  H   H22       1.0  0.4466853555300503  0.7881967304027242  0.111143132609989  1.0000
  H   H23       1.0  0.6099885701249973  0.7008006427292345  0.9860905444393993  1.0000
  H   H24       1.0  0.6514216899300534  0.9178496557690324  0.13835200240083623  1.0000
  H   H25       1.0  0.5883930065639332  0.890312260082048  0.0459940645350443  1.0000
  H   H26       1.0  0.42658529513449384  0.9686257446945133  0.09497405396354712  1.0000
  H   H27       1.0  0.5409338968051998  0.05015646986362301  0.0999017450223221  1.0000
  H   H28       1.0  0.49096035970026014  0.997017610195627  0.18703241528760373  1.0000
  H   H29       1.0  0.3099777308220411  0.9664215676863821  0.3039644283066778  1.0000
  H   H30       1.0  0.3982280748804996  0.07160378976323761  0.315793035413833  1.0000
  H   H31       1.0  0.18901047140791857  0.036203260623793206  0.4040229727658017  1.0000
  H   H32       1.0  0.2732363068825094  0.1431727758374208  0.4090507275051465  1.0000
  H   H33       1.0  0.2429018651037254  0.16426319309413628  0.2624972076371677  1.0000
  H   H34       1.0  0.41477490961554514  0.5563734862254819  0.9818537346222699  1.0000
  H   H35       1.0  0.12235817349128549  0.15837290463437637  0.31495162302615404  1.0000
  H   H36       1.0  0.15754350889044128  0.0573652505791244  0.2582810875109942  1.0000
  H   H37       1.0  0.7965340125227057  0.011642998969882997  0.5165083567727322  1.0000
  H   H38       1.0  0.7318631359241721  0.9073457354692777  0.4685969347200968  1.0000
  H   H39       1.0  0.7209629808366175  0.9630481006306868  0.6452104755360182  1.0000
  H   H40       1.0  0.6500544817501394  0.861836715109618  0.5991162583392651  1.0000
  H   H41       1.0  0.8178449738277537  0.793366611077026  0.5595899021845554  1.0000
  H   H42       1.0  0.8171451990885286  0.8165041600219142  0.6630859994984422  1.0000
  H   H43       1.0  0.8934536108991297  0.8953779680079705  0.6019369498241502  1.0000
  H   H44       1.0  0.9715474281657919  0.2717430604999862  0.372315372542495  1.0000
  H   H45       1.0  0.3987601951784895  0.44900150917506215  0.07843584753015162  1.0000
  H   H46       1.0  0.8828265738191022  0.3633868160933885  0.37219688169506077  1.0000
  H   H47       1.0  0.8760735894943108  0.19727142539250048  0.4856843639209103  1.0000
  H   H48       1.0  0.787108263866031  0.28813939502488495  0.4883959463361975  1.0000
  H   H49       1.0  0.7223042453695924  0.24131254598603394  0.3524974086414333  1.0000
  H   H50       1.0  0.7069363852344707  0.1428731278672046  0.4147349250636268  1.0000
  H   H51       1.0  0.8117630542326209  0.1502074078809557  0.34509106275637447  1.0000
  H   H52       1.0  0.020202029161751494  0.7270258683107611  0.4573196623278122  1.0000
  H   H53       1.0  0.1412987089366098  0.6724624568122337  0.4451183668324461  1.0000
  H   H54       1.0  0.08173577727009018  0.7858785366459385  0.5941345781313814  1.0000
  H   H55       1.0  0.20379909513231811  0.7365403489289194  0.5767866582855774  1.0000
  H   H56       1.0  0.6951563666548424  0.6490569432227461  0.8567964598675886  1.0000
  H   H57       1.0  0.23888927208784594  0.843130450263132  0.46112359036399664  1.0000
  H   H58       1.0  0.21942437264721087  0.9116175742434366  0.5483197583516812  1.0000
  H   H59       1.0  0.11592284327942082  0.892412379368203  0.4774160499203788  1.0000
  H   H60       1.0  0.7494813952278035  0.7127286903772545  0.2176634781586202  1.0000
  H   H61       1.0  0.7534501704810878  0.6233078034840105  0.2906762945241894  1.0000
  H   H62       1.0  0.7260707415093036  0.8344012383868674  0.3289708532989053  1.0000
  C   C1        1.0  0.5031690389512208  0.31378275199114103  0.48453241251347373  1.0000
  C   C2        1.0  0.972477069118426  0.45704146790696853  0.4842632759987922  1.0000
  C   C3        1.0  0.867339550426223  0.4824727707212304  0.4933809237015153  1.0000
  C   C4        1.0  0.15839448985657612  0.5054266221034213  0.48385899824127426  1.0000
  C   C5        1.0  0.5251072574316281  0.5008851761075305  0.3354328202502543  1.0000
  C   C6        1.0  0.5022289000040843  0.5337852357879173  0.635500797299443  1.0000
  C   C7        1.0  0.5169241549003089  0.5301064668542138  0.2518638839082712  1.0000
  C   C8        1.0  0.5063400757086143  0.5726682844401552  0.7189783107123517  1.0000
  C   C9        1.0  0.5621855356567949  0.6189127996902927  0.2274233662369554  1.0000
  C   C10       1.0  0.4152876505570759  0.5890020670348052  0.7634691068844007  1.0000
  C   C11       1.0  0.5492462608215902  0.645571709146573  0.1489631083753338  1.0000
  C   C12       1.0  0.5221992841279715  0.682029533827958  0.4706940063910424  1.0000
  C   C13       1.0  0.42697646004683065  0.6313594000086907  0.8401658137004944  1.0000
  C   C14       1.0  0.49191555676490134  0.5838930440219059  0.0936433801295493  1.0000
  C   C15       1.0  0.5273327259119824  0.6466943018254837  0.8765894395314007  1.0000
  C   C16       1.0  0.44458918123094543  0.4966067960145041  0.12051387764597622  1.0000
  C   C17       1.0  0.6169571854891202  0.6349323892143416  0.8298537841882807  1.0000
  C   C18       1.0  0.456081765766683  0.47056207186357574  0.1978791503481432  1.0000
  C   C19       1.0  0.6063027746223923  0.5986417874791313  0.752738284370004  1.0000
  C   C20       1.0  0.478867003872999  0.6020151217696252  0.010414640335824302  1.0000
  C   C21       1.0  0.54054815643849  0.6578212849641362  0.9626382799365204  1.0000
  C   C22       1.0  0.724689226364916  0.6929874976515366  0.27766052315429596  1.0000
  C   C23       1.0  0.5287061643031165  0.7837612114203766  0.46341477549506754  1.0000
  C   C24       1.0  0.7653913227968586  0.7689539711566978  0.3387521405025353  1.0000
  C   C25       1.0  0.885064567921063  0.7894772501942243  0.3338801757466996  1.0000
  C   C26       1.0  0.23778792819555153  0.6188880854024745  0.7240656303740068  1.0000
  C   C27       1.0  0.13598515362913594  0.5835481670170568  0.764290561297372  1.0000
  C   C28       1.0  0.046723978816871216  0.6472296072236363  0.7495076767876014  1.0000
  C   C29       1.0  0.3341443350751589  0.7522599992178627  0.9004397500236295  1.0000
  C   C30       1.0  0.23239225098659938  0.769014445973056  0.9430302434807346  1.0000
  C   C31       1.0  0.22402134670065973  0.8756796315491826  0.9601434829117464  1.0000
  C   C32       1.0  0.52298381203925  0.8089200751703131  0.1412647567240128  1.0000
  C   C33       1.0  0.5738429001234381  0.9011599922754241  0.1095990030135425  1.0000
  C   C34       1.0  0.4940275382778694  0.21198522606806594  0.4697134994613635  1.0000
  C   C35       1.0  0.5043753521353834  0.98372839885603  0.12363409883505481  1.0000
  C   C36       1.0  0.33681779010941426  0.025927195262497104  0.3453426439561228  1.0000
  C   C37       1.0  0.2445245585385294  0.08245267363066941  0.36974556449489887  1.0000
  C   C38       1.0  0.18891792400687993  0.1174413491808366  0.29741499869951593  1.0000
  C   C39       1.0  0.7271685768789382  0.9593329518672817  0.5184066080396832  1.0000
  C   C40       1.0  0.7232515437139712  0.9091517169136483  0.5965973780045672  1.0000
  C   C41       1.0  0.8184004331560004  0.8505492821077426  0.6057460886555859  1.0000
  C   C42       1.0  0.9190033618573638  0.31228095405497674  0.4094171597110191  1.0000
  C   C43       1.0  0.8363486683538142  0.24675283829159875  0.44911407530624814  1.0000
  C   C44       1.0  0.7655938665563083  0.191937091042945  0.3865010174187518  1.0000
  C   C45       1.0  0.5507921604601194  0.9705124889042552  0.46902122587101064  1.0000
  C   C46       1.0  0.08482690391706878  0.6970692807292876  0.4888816599915131  1.0000
  C   C47       1.0  0.1384822000424606  0.768713226866076  0.5479154800936428  1.0000
  C   C48       1.0  0.18031520496078457  0.8587529778759802  0.5062371109001447  1.0000
  C   C49       1.0  0.4742919467359882  0.0265610195300852  0.44323931832414604  1.0000
  C   C50       1.0  0.48451081139749164  0.1258403388778717  0.4557679551893941  1.0000
  C   C51       1.0  0.5369411796422057  0.8708267431424589  0.4629305405217963  1.0000
  C   C52       1.0  0.052973536495578316  0.5270562535377225  0.49778665260221544  1.0000
  N   N1        1.0  0.24597004943179712  0.49162013222692025  0.4728286361274954  1.0000
  N   N2        1.0  0.7807106130137029  0.5021583129340712  0.498764731340863  1.0000
  O   O1        1.0  0.4176942955801409  0.3513700413955689  0.500599934484967  1.0000
  O   O2        1.0  0.3178536408297886  0.5542189861837913  0.7363163244833899  1.0000
  O   O3        1.0  0.3363464609491302  0.6516427709736378  0.8802965318049445  1.0000
  O   O4        1.0  0.5928007301849264  0.7340035995190206  0.12688609533000061  1.0000
  O   O5        1.0  0.38333914647700595  0.9807847580909199  0.41096573272194103  1.0000
  O   O6        1.0  0.6385049491275795  0.015574005971991805  0.5064035784275518  1.0000
  O   O7        1.0  0.9919625343339148  0.36616515649014053  0.46617464395392727  1.0000
  O   O8        1.0  0.0349234538471777  0.613838814310199  0.5293122846476166  1.0000
  O   O9        1.0  0.6053327907373429  0.6487699475890948  0.49717212138200756  1.0000
  O   O10       1.0  0.5955105303708237  0.3563064251518001  0.4791808674962681  1.0000
  O   O11       1.0  0.43504415402353647  0.6355096823798334  0.4513782749798949  1.0000
  O   O12       1.0  0.4403933680706373  0.46276619911783007  0.36514467518613714  1.0000
  O   O13       1.0  0.5868609129346185  0.501945167052007  0.6086950292221405  1.0000
  O   O14       1.0  0.6138219553378619  0.5157610179095472  0.370950319350257  1.0000
  O   O15       1.0  0.4177412195700682  0.5381004144858963  0.5953824460654289  1.0000
  O   O16       1.0  0.6108568872818623  0.6840253973595339  0.2812399739509104  1.0000
