data_image0
_chemical_formula_structural       Cu4H32C36N4Cl4O16
_chemical_formula_sum              "Cu4 H32 C36 N4 Cl4 O16"
_cell_length_a       6.419381604166455
_cell_length_b       8.27002767205283
_cell_length_c       19.055495594249575
_cell_angle_alpha    89.99974204073874
_cell_angle_beta     94.33145143615766
_cell_angle_gamma    89.99971566752284

_space_group_name_H-M_alt    "P 1"
_space_group_IT_number       1

loop_
  _space_group_symop_operation_xyz
  'x, y, z'

loop_
  _atom_site_type_symbol
  _atom_site_label
  _atom_site_symmetry_multiplicity
  _atom_site_fract_x
  _atom_site_fract_y
  _atom_site_fract_z
  _atom_site_occupancy
  Cu  Cu1       1.0  0.28213369726285015  0.30862743106013096  0.2020140052573325  1.0000
  Cu  Cu2       1.0  0.28214092472661884  0.1913642276541907  0.7020129506116319  1.0000
  Cu  Cu3       1.0  0.7178674961422544  0.6913648698130787  0.7979853013548207  1.0000
  Cu  Cu4       1.0  0.7178649552963206  0.8086329099524434  0.2979864854784323  1.0000
  H   H1        1.0  0.616737671372995  0.4708368005250065  0.16765688300224468  1.0000
  H   H2        1.0  0.6167429419205206  0.0291550937883116  0.6676529623882672  1.0000
  H   H3        1.0  0.3832618887186214  0.5291458268475183  0.8323460520530688  1.0000
  H   H4        1.0  0.38324731598387973  0.9708432530366626  0.3323460420891351  1.0000
  H   H5        1.0  0.11718982392846299  0.37777276021363804  0.9261549448775668  1.0000
  H   H6        1.0  0.11719176039152758  0.12223068142633758  0.4261524414587328  1.0000
  H   H7        1.0  0.8827941139580131  0.6222364692789597  0.07384755853632188  1.0000
  H   H8        1.0  0.8828000698575875  0.8777761296984681  0.5738460816568747  1.0000
  H   H9        1.0  0.7848107818719967  0.25448068429540177  0.8788440798200622  1.0000
  H   H10       1.0  0.7848133988134832  0.24553149259352125  0.3788434383264274  1.0000
  H   H11       1.0  0.21515906554669334  0.7455515197490924  0.12115960865763502  1.0000
  H   H12       1.0  0.2151815151934287  0.75448015525793  0.6211572691592906  1.0000
  H   H13       1.0  0.5836022484423324  0.08130836862628853  0.9562703904317544  1.0000
  H   H14       1.0  0.5836036739181695  0.4186990095843939  0.4562698811895344  1.0000
  H   H15       1.0  0.4163707437565307  0.9187141619303462  0.043732335352494496  1.0000
  H   H16       1.0  0.4163912299265888  0.5813126382645492  0.5437313508095156  1.0000
  H   H17       1.0  0.7084403961420023  0.03942373059875591  0.08107300521003678  1.0000
  H   H18       1.0  0.7084426322574799  0.46057589611849903  0.5810728279768397  1.0000
  H   H19       1.0  0.2915529455119383  0.9605818713244575  0.9189281836347335  1.0000
  H   H20       1.0  0.2915553452571515  0.539418823110232  0.4189311129303163  1.0000
  H   H21       1.0  0.3720527539293456  0.4236217582694409  0.008449810032992399  1.0000
  H   H22       1.0  0.3720608064291397  0.07638834492342991  0.5084469177965047  1.0000
  H   H23       1.0  0.6279515536993756  0.5763814252669235  0.9915501074024248  1.0000
  H   H24       1.0  0.6279435519979513  0.9236184661828731  0.49155037706813687  1.0000
  H   H25       1.0  0.9230783641406858  0.9494959927651507  0.17504683175025798  1.0000
  H   H26       1.0  0.9230756170820769  0.5504949170993074  0.6750457940708683  1.0000
  H   H27       1.0  0.0769446900871955  0.05048905294520981  0.8249536036392583  1.0000
  H   H28       1.0  0.07694898914972728  0.44950342964905593  0.3249552089780535  1.0000
  H   H29       1.0  0.7699347090363843  0.1284433593948933  0.1867771597041852  1.0000
  H   H30       1.0  0.7699438216276703  0.37154291632791814  0.686776307749895  1.0000
  H   H31       1.0  0.23007427515524626  0.8715332220416699  0.8132234117580878  1.0000
  H   H32       1.0  0.23006827672983118  0.6284614763729552  0.3132248745164644  1.0000
  C   C1        1.0  0.9830364623496166  0.18720749568518608  0.07468103823075718  1.0000
  C   C2        1.0  0.9830475379865149  0.3127887033956043  0.5746803625380039  1.0000
  C   C3        1.0  0.016961545651461997  0.8127872235510766  0.9253213291363948  1.0000
  C   C4        1.0  0.016955187106468397  0.6872144801389979  0.42532056076294816  1.0000
  C   C5        1.0  0.10318363689419388  0.2826879409724441  0.031140037743647  1.0000
  C   C6        1.0  0.1031875731186389  0.2173121093019859  0.5311383134950987  1.0000
  C   C7        1.0  0.8968128495234211  0.7173128242060899  0.9688601884021962  1.0000
  C   C8        1.0  0.896813671051845  0.7826934926275371  0.4688583705353224  1.0000
  C   C9        1.0  0.027669323236459303  0.3035384357170372  0.9602976630123194  1.0000
  C   C10       1.0  0.027675419609359198  0.1964650257891805  0.4602961699490393  1.0000
  C   C11       1.0  0.9723177898753902  0.696473212153194  0.039702304154417285  1.0000
  C   C12       1.0  0.9723257839207803  0.8035381577587091  0.5397026121374535  1.0000
  C   C13       1.0  0.8413268984944651  0.2343703419999628  0.933413417894215  1.0000
  C   C14       1.0  0.8413294290842684  0.26563504235478774  0.4334101082879584  1.0000
  C   C15       1.0  0.15864764574956783  0.7656533977367062  0.0665898755631247  1.0000
  C   C16       1.0  0.15866865000236163  0.7343741871286014  0.5665885874694252  1.0000
  C   C17       1.0  0.7278831430112189  0.1388035618168644  0.9772021571375404  1.0000
  C   C18       1.0  0.7278833781697784  0.3612018426833643  0.4772027840003474  1.0000
  C   C19       1.0  0.2720961488689042  0.8612117136245203  0.0227981187327799  1.0000
  C   C20       1.0  0.2721146805884302  0.6388085959807981  0.5227969607823367  1.0000
  C   C21       1.0  0.7976666558871484  0.115080054958959  0.04759546706785759  1.0000
  C   C22       1.0  0.7976663243289366  0.3849195466269464  0.5475932768346681  1.0000
  C   C23       1.0  0.20232204995146216  0.8849231286149719  0.9524029697296041  1.0000
  C   C24       1.0  0.20232550593668458  0.6150824277546718  0.45240524628641043  1.0000
  C   C25       1.0  0.2977887702690651  0.3641563572511188  0.05132308823418439  1.0000
  C   C26       1.0  0.2977932825613294  0.1358451578385385  0.5513204994983594  1.0000
  C   C27       1.0  0.7022108609122312  0.6358395711827355  0.948676175212725  1.0000
  C   C28       1.0  0.7022079819375762  0.8641592349102043  0.4486751355067682  1.0000
  C   C29       1.0  0.9290920270967503  0.07777452216804902  0.18977167194854866  1.0000
  C   C30       1.0  0.9290960972366449  0.42221473155228756  0.6897711002465383  1.0000
  C   C31       1.0  0.07091855993017052  0.9222093143900808  0.8102268446132966  1.0000
  C   C32       1.0  0.0709160316320521  0.5777824060413296  0.310228508488045  1.0000
  C   C33       1.0  0.020141109050513296  0.0965291942757034  0.2650195248846359  1.0000
  C   C34       1.0  0.020145327451032806  0.4034604602482474  0.765017946638302  1.0000
  C   C35       1.0  0.9798694474693403  0.9034606882038787  0.7349805652103711  1.0000
  C   C36       1.0  0.9798652188984249  0.5965318406004201  0.23498266796729436  1.0000
  N   N1        1.0  0.3897922160104698  0.3773759045537659  0.11387884479843538  1.0000
  N   N2        1.0  0.3897968184933091  0.12262223013677702  0.6138762860111555  1.0000
  N   N3        1.0  0.6102089977106856  0.6226188146960611  0.8861194127843177  1.0000
  N   N4        1.0  0.6102013317613597  0.8773773258778023  0.3861187381638516  1.0000
  Cl  Cl1       1.0  0.5694049547680675  0.3862490192804486  0.26934953937569617  1.0000
  Cl  Cl2       1.0  0.569412711752946  0.1137384514234228  0.7693486605620024  1.0000
  Cl  Cl3       1.0  0.4306009049594407  0.6137396540205913  0.7306509457506252  1.0000
  Cl  Cl4       1.0  0.4305994374400512  0.8862586861752177  0.23064989914591646  1.0000
  O   O1        1.0  0.05761454011960859  0.165668531618465  0.1437037573126574  1.0000
  O   O2        1.0  0.057620792359642785  0.334325774166338  0.6437023788355916  1.0000
  O   O3        1.0  0.9423898082030816  0.8343213508841744  0.8562940620844941  1.0000
  O   O4        1.0  0.9423851181662356  0.6656665267046336  0.3562954837199541  1.0000
  O   O5        1.0  0.16040364143920982  0.20537733656981058  0.2797987884264542  1.0000
  O   O6        1.0  0.1604148613608842  0.2946152559766445  0.7797971048691749  1.0000
  O   O7        1.0  0.8395943970400666  0.7946198010455704  0.7202020053979652  1.0000
  O   O8        1.0  0.8395894259930259  0.7053734173251416  0.22020386160934888  1.0000
  O   O9        1.0  0.9521178277317617  0.0081792022314602  0.31141492872263393  1.0000
  O   O10       1.0  0.9521136222346698  0.49180637033247626  0.8114134590595228  1.0000
  O   O11       1.0  0.04790053986591399  0.9918046343028663  0.6885853771848642  1.0000
  O   O12       1.0  0.0478953720613688  0.5081871397077506  0.18858658787024038  1.0000
  O   O13       1.0  0.5726279308110945  0.46601248362700437  0.11613355135774127  1.0000
  O   O14       1.0  0.5726347103089608  0.033987334655272206  0.6161307119946071  1.0000
  O   O15       1.0  0.4273747536662852  0.5339810264111834  0.8838694700075037  1.0000
  O   O16       1.0  0.4273649005397857  0.9660110121451523  0.3838696004762312  1.0000
