data_image0
_chemical_formula_structural       Ni8H124C136N24O52
_chemical_formula_sum              "Ni8 H124 C136 N24 O52"
_cell_length_a       13.205146376773993
_cell_length_b       13.201093668491898
_cell_length_c       26.182211985252966
_cell_angle_alpha    95.79474638470433
_cell_angle_beta     102.08728364208243
_cell_angle_gamma    112.61581607411284

_space_group_name_H-M_alt    "P 1"
_space_group_IT_number       1

loop_
  _space_group_symop_operation_xyz
  'x, y, z'

loop_
  _atom_site_type_symbol
  _atom_site_label
  _atom_site_symmetry_multiplicity
  _atom_site_fract_x
  _atom_site_fract_y
  _atom_site_fract_z
  _atom_site_occupancy
  Ni  Ni1       1.0  0.42081979551912235  0.6757895848724188  0.7534509072401291  1.0000
  Ni  Ni2       1.0  0.9224655305359873  0.1673350457540434  0.7465237286769832  1.0000
  Ni  Ni3       1.0  0.5791801231023825  0.32421126188509664  0.24654981078327143  1.0000
  Ni  Ni4       1.0  0.0775358906976322  0.8326658782473758  0.2534759816334571  1.0000
  Ni  Ni5       1.0  0.7619616124380357  0.6627855951136395  0.4595406071309184  1.0000
  Ni  Ni6       1.0  0.20328646086501578  0.802453189337058  0.040387884176283265  1.0000
  Ni  Ni7       1.0  0.23803740415430508  0.3372120353613965  0.5404592010894333  1.0000
  Ni  Ni8       1.0  0.7967131467856275  0.19754610700100966  0.9596116848953071  1.0000
  H   H1        1.0  0.6469496600794002  0.6535049335809756  0.35928483918358706  1.0000
  H   H2        1.0  0.29422800702447194  0.7876469782304766  0.14074609005857033  1.0000
  H   H3        1.0  0.35304526327558255  0.34648975755161615  0.6407142251570406  1.0000
  H   H4        1.0  0.7057714352311706  0.21235370618601465  0.8592533208786718  1.0000
  H   H5        1.0  0.7812692567108571  0.7103554491008379  0.37207761501695535  1.0000
  H   H6        1.0  0.33843025995740555  0.909182448520461  0.1279347682574893  1.0000
  H   H7        1.0  0.21872677635771265  0.2896437461223088  0.6279217376430993  1.0000
  H   H8        1.0  0.6615699387515408  0.09081851368063071  0.8720645616653399  1.0000
  H   H9        1.0  0.9367207656671681  0.8027300007166716  0.4437782995614226  1.0000
  H   H10       1.0  0.3588729513070348  0.992882594576237  0.05618465995733145  1.0000
  H   H11       1.0  0.06327816822767571  0.19726832379757997  0.5562214295917585  1.0000
  H   H12       1.0  0.6411257344953184  0.007117812055653768  0.9438148319943308  1.0000
  H   H13       1.0  0.955836428334706  0.7882719791035696  0.5049564647154908  1.0000
  H   H14       1.0  0.28335044029154943  0.9509494377636187  0.9949831279806814  1.0000
  H   H15       1.0  0.04416074456104728  0.21172787195912693  0.4950431892650045  1.0000
  H   H16       1.0  0.716647571755004  0.049049997044455895  0.005016524052571393  1.0000
  H   H17       1.0  0.44045250992754625  0.8552758779896481  0.8033788125536391  1.0000
  H   H18       1.0  0.05224539685399063  0.13725910147996945  0.6966504121334792  1.0000
  H   H19       1.0  0.5595462791612462  0.1447247912536084  0.19662244983344818  1.0000
  H   H20       1.0  0.9477558589846423  0.8627432105998806  0.3033491400426127  1.0000
  H   H21       1.0  0.5726094123781778  0.8835161634373848  0.8154093572042526  1.0000
  H   H22       1.0  0.06843963036613587  0.2573891215051986  0.6845789011361205  1.0000
  H   H23       1.0  0.42739004017194304  0.11648499930439729  0.1845908994171167  1.0000
  H   H24       1.0  0.9315589727387207  0.7426119791659006  0.3154205117483712  1.0000
  H   H25       1.0  0.6698704324890771  0.48489934377838023  0.40702378662100336  1.0000
  H   H26       1.0  0.0779258991182346  0.7628633708893419  0.09289126750389438  1.0000
  H   H27       1.0  0.33012924756458534  0.5150987801951813  0.5929750158336374  1.0000
  H   H28       1.0  0.9220743098851826  0.23713806963704068  0.9071089081030619  1.0000
  H   H29       1.0  0.5604673474152905  0.5057886962298425  0.3936184643723876  1.0000
  H   H30       1.0  0.11206251904351214  0.6667713655483851  0.1063340088147697  1.0000
  H   H31       1.0  0.4395315864795465  0.49420962828440906  0.6063812647807935  1.0000
  H   H32       1.0  0.8879376796654342  0.33322959665270685  0.8936653211080594  1.0000
  H   H33       1.0  0.3100616163320351  0.4477168301440597  0.7366024525934234  1.0000
  H   H34       1.0  0.7110277364041125  0.07321194886547729  0.7632739757351243  1.0000
  H   H35       1.0  0.6899383746924882  0.5522828442489497  0.2633974988130203  1.0000
  H   H36       1.0  0.2889741509008914  0.9267886591516757  0.23672619597734715  1.0000
  H   H37       1.0  0.39932851925163265  0.49047001447497957  0.7015110699079585  1.0000
  H   H38       1.0  0.7889416687383743  0.19747846991030807  0.7984386176378421  1.0000
  H   H39       1.0  0.6006714717728912  0.5095296599180301  0.2984888814984926  1.0000
  H   H40       1.0  0.211058996041956  0.8025221763065106  0.20156117368701126  1.0000
  H   H41       1.0  0.2215361567917711  0.8988494002793459  0.56244692148379  1.0000
  H   H42       1.0  0.33631876309815556  0.159053815717989  0.9376337660853122  1.0000
  H   H43       1.0  0.778460808419567  0.10114916297526111  0.4375533539803269  1.0000
  H   H44       1.0  0.6636815286027513  0.840946930769185  0.062366488588814606  1.0000
  H   H45       1.0  0.7019425488910684  0.5069769404888688  0.6607311908938626  1.0000
  H   H46       1.0  0.8461118478003229  0.541056009506569  0.8389620661691095  1.0000
  H   H47       1.0  0.298059514103393  0.4930227577751509  0.33926998463707747  1.0000
  H   H48       1.0  0.1538880605267039  0.4589443589256561  0.16103780617016378  1.0000
  H   H49       1.0  0.5119260659831043  0.8923008987697614  0.41987305038038863  1.0000
  H   H50       1.0  0.47251031634507973  0.5923113021196116  0.08005891507701071  1.0000
  H   H51       1.0  0.4880744738102933  0.10769776559976645  0.5801274414952571  1.0000
  H   H52       1.0  0.5274911151830111  0.40769010020709806  0.9199416409175497  1.0000
  H   H53       1.0  0.6978514641573383  0.8303504029935026  0.6955945188761986  1.0000
  H   H54       1.0  0.13470907168225918  0.5021416230005398  0.8043492460598783  1.0000
  H   H55       1.0  0.3021509936170261  0.16965091423609377  0.30440372231925034  1.0000
  H   H56       1.0  0.8652904128628192  0.4978617373024645  0.19564938525940065  1.0000
  H   H57       1.0  0.27519299462013436  0.6142348878849901  0.44508612132245406  1.0000
  H   H58       1.0  0.1688557426703099  0.3300241830754516  0.054884850833296556  1.0000
  H   H59       1.0  0.7248059918586094  0.38576659084105797  0.5549136738968911  1.0000
  H   H60       1.0  0.8311437399934078  0.669973131415318  0.9451154187890862  1.0000
  H   H61       1.0  0.20483736176385045  0.9071762041473334  0.46743462484674575  1.0000
  H   H62       1.0  0.43942589180898756  0.23728361677204654  0.03267114246422402  1.0000
  H   H63       1.0  0.7951605881741486  0.09282488135053761  0.5325666394875908  1.0000
  H   H64       1.0  0.5605762134749027  0.7627187573784794  0.9673292534487528  1.0000
  H   H65       1.0  0.4045918911578139  0.6902422770247012  0.6297446041484844  1.0000
  H   H66       1.0  0.06039119857024406  0.2747904730730254  0.8702684272967786  1.0000
  H   H67       1.0  0.595403871347969  0.3097519978532758  0.37025445824490066  1.0000
  H   H68       1.0  0.939607662921567  0.7252090238057319  0.12973206847335908  1.0000
  H   H69       1.0  0.031184240554118576  0.4170174497126097  0.6983035633658473  1.0000
  H   H70       1.0  0.7185730499737629  0.8329388714369157  0.8017836261982577  1.0000
  H   H71       1.0  0.968815833167902  0.5829815306411845  0.30169646710777426  1.0000
  H   H72       1.0  0.2814258743964261  0.1670642579789217  0.19821778132216386  1.0000
  H   H73       1.0  0.11470277837467086  0.8434994079588378  0.37842922323975603  1.0000
  H   H74       1.0  0.4648785059659701  0.23630267563944327  0.12161405086742143  1.0000
  H   H75       1.0  0.8852949329954853  0.15649895475508646  0.6215701255258138  1.0000
  H   H76       1.0  0.5351218787269121  0.7636978551337988  0.8783871285580103  1.0000
  H   H77       1.0  0.6592980229111376  0.8427954717463776  0.44198158848490704  1.0000
  H   H78       1.0  0.4007953838555451  0.7172275446113474  0.05793833585931195  1.0000
  H   H79       1.0  0.34070234119280235  0.1572041023762905  0.5580178995722703  1.0000
  H   H80       1.0  0.5992057995800694  0.2827759398330016  0.9420619829337297  1.0000
  H   H81       1.0  0.6679748328847239  0.6574818444609462  0.5631864470664708  1.0000
  H   H82       1.0  0.0943740289454739  0.6048932266109616  0.9367644343683635  1.0000
  H   H83       1.0  0.3320275928946828  0.3425172752074345  0.4368134194310754  1.0000
  H   H84       1.0  0.9056235471432855  0.39510267593037424  0.06323476926387155  1.0000
  H   H85       1.0  0.9210168951704247  0.5253621722748106  0.7159707895645794  1.0000
  H   H86       1.0  0.8092236815488221  0.7051389518816434  0.7839935989575009  1.0000
  H   H87       1.0  0.07898326124909265  0.47463611403976813  0.2840293199762129  1.0000
  H   H88       1.0  0.1907711495840232  0.29486123819175697  0.21600706468319683  1.0000
  H   H89       1.0  0.14717840432907545  0.807370632665524  0.6268339843548246  1.0000
  H   H90       1.0  0.180760246466008  0.02046917565951382  0.8731058033479328  1.0000
  H   H91       1.0  0.8528238972332289  0.1926317883824423  0.3731691067448749  1.0000
  H   H92       1.0  0.8192387701263257  0.9795284548155293  0.12689400487242602  1.0000
  H   H93       1.0  0.5687196925691467  0.968946881787481  0.5904747429125478  1.0000
  H   H94       1.0  0.378359802105969  0.4778527148397912  0.9094981383830499  1.0000
  H   H95       1.0  0.43128038115287376  0.031052098566320154  0.40952528756107387  1.0000
  H   H96       1.0  0.6216413287457385  0.5221476153927611  0.09050211434383462  1.0000
  H   H97       1.0  0.9823088312442819  0.8056954656584735  0.6505938519565145  1.0000
  H   H98       1.0  0.15505623871793273  0.8317122191325056  0.8494146624600206  1.0000
  H   H99       1.0  0.017694443980388903  0.19430371608058983  0.3494068582779163  1.0000
  H   H100      1.0  0.844940209719482  0.16828955170680618  0.15058344723279743  1.0000
  H   H101      1.0  0.29332775366388125  0.6076052620231919  0.5388458009044257  1.0000
  H   H102      1.0  0.0686598832743357  0.2544250368937923  0.9611155767608607  1.0000
  H   H103      1.0  0.7066737502672353  0.392394967939019  0.4611539884731925  1.0000
  H   H104      1.0  0.9313393090074626  0.7455716838281106  0.03888523527796636  1.0000
  H   H105      1.0  0.0410597892388722  0.524383742149908  0.5487782113531877  1.0000
  H   H106      1.0  0.9757915841797952  0.99246945539938  0.9511847578778185  1.0000
  H   H107      1.0  0.958939445332355  0.475615654458501  0.4512218210676763  1.0000
  H   H108      1.0  0.024209847348302616  0.007531946927329598  0.048815798116749  1.0000
  H   H109      1.0  0.21992246151741313  0.7698810577038913  0.7280580199026119  1.0000
  H   H110      1.0  0.04198232066954705  0.9919066796667835  0.7719249200072511  1.0000
  H   H111      1.0  0.7800831036560965  0.23011991403954818  0.2719441386568134  1.0000
  H   H112      1.0  0.9580225097511458  0.008095733527987465  0.22807484858037688  1.0000
  H   H113      1.0  0.27065377744909114  0.7226714821577929  0.2772853984166019  1.0000
  H   H114      1.0  0.44537161701398276  0.49360058141560603  0.222723525754759  1.0000
  H   H115      1.0  0.7293466693523385  0.27732739792565997  0.7227141687077462  1.0000
  H   H116      1.0  0.5546285919894344  0.5064008591107763  0.7772766498521972  1.0000
  H   H117      1.0  0.3430786538458649  0.6891704372506952  0.3790817132409074  1.0000
  H   H118      1.0  0.30997141389034516  0.4641105864570818  0.12092244125661009  1.0000
  H   H119      1.0  0.6569208814017529  0.3108300314518713  0.6209186224476325  1.0000
  H   H120      1.0  0.6900287848186011  0.5358903757440102  0.879076888666219  1.0000
  H   H121      1.0  0.5586931069021688  0.7931654304234427  0.584816104631045  1.0000
  H   H122      1.0  0.2082477970167106  0.4738575109377263  0.9150680749381479  1.0000
  H   H123      1.0  0.4413091111928154  0.20683240143686268  0.41518438335011604  1.0000
  H   H124      1.0  0.7917528254741838  0.5261404593925931  0.0849324960046757  1.0000
  C   C1        1.0  0.947145088299521  0.5814920131008489  0.5940481899217428  1.0000
  C   C2        1.0  0.9875397435994204  0.8532901853168228  0.9058262207277322  1.0000
  C   C3        1.0  0.05285575217026673  0.41850772336283626  0.4059526052215858  1.0000
  C   C4        1.0  0.01245569841085371  0.1467073440432927  0.09417337108109079  1.0000
  C   C5        1.0  0.23464967157065086  0.8375769616740881  0.5367027112891236  1.0000
  C   C6        1.0  0.3007485828010629  0.19785589120240119  0.963356499957875  1.0000
  C   C7        1.0  0.7653512938860629  0.16242475663689493  0.4632973833034128  1.0000
  C   C8        1.0  0.6992512005390382  0.8021424953825258  0.036644072932190803  1.0000
  C   C9        1.0  0.7420860907063941  0.5973539826575447  0.6635993985725362  1.0000
  C   C10       1.0  0.933660186260539  0.5784394220536553  0.8362001194418053  1.0000
  C   C11       1.0  0.2579174851946676  0.40264627117567625  0.3364016149295708  1.0000
  C   C12       1.0  0.06633909060011692  0.42156265044126673  0.16379913336109547  1.0000
  C   C13       1.0  0.849119290932116  0.6478157886078647  0.6537983312241451  1.0000
  C   C14       1.0  0.9939343294468728  0.6953043126286996  0.8460564067512661  1.0000
  C   C15       1.0  0.15088268936485597  0.3521846036953703  0.34620276523962445  1.0000
  C   C16       1.0  0.006062750456919701  0.30469575414791444  0.15394232247793127  1.0000
  C   C17       1.0  0.5083285511562323  0.9405011824917792  0.45518468760979397  1.0000
  C   C18       1.0  0.48533369662986564  0.5532708779795428  0.04476476816981283  1.0000
  C   C19       1.0  0.49167274509046177  0.05949775966234928  0.5448157232514318  1.0000
  C   C20       1.0  0.5146666777685381  0.44672917446841587  0.9552355655714917  1.0000
  C   C21       1.0  0.9122673065859032  0.581167735565856  0.641325657324131  1.0000
  C   C22       1.0  0.9398589905475987  0.7710146549335659  0.8585707050022291  1.0000
  C   C23       1.0  0.08773353388388476  0.4188320008978296  0.3586751378191977  1.0000
  C   C24       1.0  0.060138390032584296  0.22898648393720583  0.14142832749465128  1.0000
  C   C25       1.0  0.7390859570963072  0.7790731747853596  0.6828100092160126  1.0000
  C   C26       1.0  0.09621243899134424  0.5561907527476178  0.8171294197797465  1.0000
  C   C27       1.0  0.26091705974140217  0.22092761074605244  0.3171896181327654  1.0000
  C   C28       1.0  0.9037885687547985  0.4438136414498715  0.18286989519482674  1.0000
  C   C29       1.0  0.2678423836460908  0.6797962051770553  0.47074213077600285  1.0000
  C   C30       1.0  0.20876968232719412  0.29696858455719893  0.029257052283689664  1.0000
  C   C31       1.0  0.732160571083071  0.32020623104414625  0.5292591088738517  1.0000
  C   C32       1.0  0.7912281220349373  0.7030295624427936  0.9707432212331851  1.0000
  C   C33       1.0  0.2243467445065619  0.8414818296808234  0.48312634688610956  1.0000
  C   C34       1.0  0.35809259386731174  0.24109559834139555  0.016944450943938646  1.0000
  C   C35       1.0  0.7756558268487127  0.15852022848543607  0.5168745104288915  1.0000
  C   C36       1.0  0.6419077805310991  0.7589044541065559  0.983055882797366  1.0000
  C   C37       1.0  0.3430136280315779  0.7137005553424202  0.6431137832999595  1.0000
  C   C38       1.0  0.07054874561124073  0.19986426210128613  0.8568837833107208  1.0000
  C   C39       1.0  0.6569846321074593  0.2862967973480223  0.3568861059348122  1.0000
  C   C40       1.0  0.9294509447368995  0.8001343401975588  0.14311586482804006  1.0000
  C   C41       1.0  0.2625069635154561  0.755340876331914  0.5575158130661038  1.0000
  C   C42       1.0  0.19776263644761377  0.20496567696428492  0.9424946521065748  1.0000
  C   C43       1.0  0.7374941776307224  0.24465993222592886  0.44248528534490805  1.0000
  C   C44       1.0  0.8022363077417013  0.7950331258752569  0.05750592273073334  1.0000
  C   C45       1.0  0.007092411834818631  0.46193062920060135  0.6687334164085497  1.0000
  C   C46       1.0  0.7931317054391088  0.83845265873547  0.8313033565917606  1.0000
  C   C47       1.0  0.9929072888077924  0.538068451423541  0.3312670774143383  1.0000
  C   C48       1.0  0.2068669906577156  0.1615482262217114  0.16869698104402886  1.0000
  C   C49       1.0  0.10616356668518995  0.3964485773477832  0.6086832568801553  1.0000
  C   C50       1.0  0.7875496991225363  0.9973454782792642  0.8914273296976346  1.0000
  C   C51       1.0  0.89383587557046  0.6035521070687081  0.3913161540570868  1.0000
  C   C52       1.0  0.21244967073008783  0.0026563785017331147  0.10857284785656415  1.0000
  C   C53       1.0  0.24203937837859962  0.7631470326829086  0.45017535300549116  1.0000
  C   C54       1.0  0.3126732425935401  0.2917640795940244  0.04985921414609606  1.0000
  C   C55       1.0  0.7579638667324816  0.2368559973071668  0.5498253442279192  1.0000
  C   C56       1.0  0.6873259919776872  0.7082353170143918  0.950140818274768  1.0000
  C   C57       1.0  0.16840877494848167  0.8088887719601556  0.36439530447378826  1.0000
  C   C58       1.0  0.4443381029890077  0.304090507112292  0.13563796559998303  1.0000
  C   C59       1.0  0.8315908327021547  0.1911105243779047  0.635604264597802  1.0000
  C   C60       1.0  0.555662955459674  0.6959109954847662  0.8643630537438582  1.0000
  C   C61       1.0  0.5453071382025669  0.9209289866909245  0.5057940889733387  1.0000
  C   C62       1.0  0.4150675180906518  0.5394381692166019  0.9941561458717628  1.0000
  C   C63       1.0  0.4546946138210402  0.07906916115364017  0.4942059376057982  1.0000
  C   C64       1.0  0.5849329812946847  0.46056386507864744  0.0058434873187493  1.0000
  C   C65       1.0  0.6446649257809369  0.8089227644492353  0.4770844430110229  1.0000
  C   C66       1.0  0.3317844517448094  0.6674832993479781  0.022854317586968858  1.0000
  C   C67       1.0  0.3553348472646931  0.1910751438104014  0.5229152841949157  1.0000
  C   C68       1.0  0.6682149905108403  0.3325173850685128  0.9771450933502732  1.0000
  C   C69       1.0  0.6483696475461612  0.7157989777092905  0.5411836560042855  1.0000
  C   C70       1.0  0.17462473963627914  0.6071746492852697  0.9587640022534886  1.0000
  C   C71       1.0  0.3516302805999914  0.2841970641466317  0.4588153836518741  1.0000
  C   C72       1.0  0.8253741942585648  0.3928236752289819  0.041235726899692696  1.0000
  C   C73       1.0  0.9441141475688966  0.5218885802040774  0.6784422850160182  1.0000
  C   C74       1.0  0.8433730338052571  0.7657635310562938  0.8215380324304035  1.0000
  C   C75       1.0  0.05588858918137155  0.4781120898837513  0.3215587304333311  1.0000
  C   C76       1.0  0.1566243570693899  0.23423808613976863  0.17846184575059706  1.0000
  C   C77       1.0  0.9164581319958388  0.6446724733865136  0.552961073576071  1.0000
  C   C78       1.0  0.09185529302192226  0.8637465261114555  0.9469306406882012  1.0000
  C   C79       1.0  0.08354118527288529  0.35532622918267975  0.4470390379119634  1.0000
  C   C80       1.0  0.9081428844196254  0.1362515206181953  0.053069169479399936  1.0000
  C   C81       1.0  0.21269562175338314  0.7808240791363373  0.6436650164330898  1.0000
  C   C82       1.0  0.13734981660124382  0.06915265715583244  0.8563007140318886  1.0000
  C   C83       1.0  0.7873041718811961  0.2191747857738803  0.3563364021411031  1.0000
  C   C84       1.0  0.8626508481790864  0.930847989060993  0.1436990772929716  1.0000
  C   C85       1.0  0.5367689579640427  0.9807736719306066  0.5507006417624537  1.0000
  C   C86       1.0  0.4299931457606405  0.48586173327382176  0.9492877144712322  1.0000
  C   C87       1.0  0.4632317472243487  0.0192236043604978  0.44930000824754046  1.0000
  C   C88       1.0  0.5700075293141537  0.5141393912682943  0.050712922537755334  1.0000
  C   C89       1.0  0.8451213211465642  0.830258125267619  0.6730030071612914  1.0000
  C   C90       1.0  0.15720790908235238  0.6720835615894883  0.8269459939300603  1.0000
  C   C91       1.0  0.15488056615843251  0.16974248274953394  0.3269971645511731  1.0000
  C   C92       1.0  0.8427900728506045  0.3279197214695983  0.17305364510217897  1.0000
  C   C93       1.0  0.041240630063903584  0.461943819796403  0.6215343499968214  1.0000
  C   C94       1.0  0.840351534983455  0.9197913960435571  0.8785087605904777  1.0000
  C   C95       1.0  0.9587597443345075  0.5380562326515487  0.3784659837444762  1.0000
  C   C96       1.0  0.1596466950419853  0.0802098048978905  0.12149111564328047  1.0000
  C   C97       1.0  0.8991217078346807  0.7643539747357407  0.6578064279860596  1.0000
  C   C98       1.0  0.10650051132315518  0.7412913794027248  0.842143440705769  1.0000
  C   C99       1.0  0.10088101862111643  0.2356462170268045  0.3421937417791625  1.0000
  C   C100      1.0  0.8934967038620342  0.258711147546478  0.15785543365676336  1.0000
  C   C101      1.0  0.2778515788325748  0.6758136899094395  0.5242906660538152  1.0000
  C   C102      1.0  0.15138799978470294  0.25347121864675154  0.9756963990501433  1.0000
  C   C103      1.0  0.7221501430774424  0.3241883061861442  0.47570934752430094  1.0000
  C   C104      1.0  0.8486098872749254  0.7465262343140325  0.02430395353389499  1.0000
  C   C105      1.0  0.6861908749904515  0.6628220697322358  0.6775434298320702  1.0000
  C   C106      1.0  0.9852453506573156  0.5085693943137527  0.8223630339092265  1.0000
  C   C107      1.0  0.3138118617598167  0.33717860035559255  0.32245758561727905  1.0000
  C   C108      1.0  0.014757117411520016  0.4914324012411413  0.1776360529703496  1.0000
  C   C109      1.0  0.01256284934164142  0.5234789235474934  0.5849559549464303  1.0000
  C   C110      1.0  0.9386046131152667  0.9277811904964748  0.9149863947165213  1.0000
  C   C111      1.0  0.9874374423592728  0.47652182293967354  0.4150442997276967  1.0000
  C   C112      1.0  0.06139559588815759  0.07222025002990758  0.08501378089043499  1.0000
  C   C113      1.0  0.2476477113772903  0.7586231559929998  0.6926789921071261  1.0000
  C   C114      1.0  0.06606495343398676  0.05501498628967711  0.8073005853445065  1.0000
  C   C115      1.0  0.7523542689196816  0.2413772363102281  0.30732210435664326  1.0000
  C   C116      1.0  0.9339358767413302  0.9449842718487245  0.192699364114702  1.0000
  C   C117      1.0  0.2501323057288046  0.7444688202249877  0.31364522562709846  1.0000
  C   C118      1.0  0.43075032759238513  0.4366528655405303  0.18636602358017734  1.0000
  C   C119      1.0  0.7498696642736888  0.25553109375295685  0.6863550251525437  1.0000
  C   C120      1.0  0.5692506481588  0.5633493310957363  0.8136349166964862  1.0000
  C   C121      1.0  0.28611204106453414  0.7264436253650927  0.36359211315988915  1.0000
  C   C122      1.0  0.362692391147867  0.42260938144032417  0.13643370807331925  1.0000
  C   C123      1.0  0.7138889346866577  0.27355857127118083  0.6364088271167815  1.0000
  C   C124      1.0  0.637307527473638  0.5773914653171841  0.8635670099500813  1.0000
  C   C125      1.0  0.9034322989765329  0.956202816319596  0.6829765631037715  1.0000
  C   C126      1.0  0.27319621927284726  0.7202987426403593  0.816979311315478  1.0000
  C   C127      1.0  0.09657117363808254  0.04379717490225228  0.31702267996291056  1.0000
  C   C128      1.0  0.7268026948028633  0.27970390845019455  0.1830212505208165  1.0000
  C   C129      1.0  0.595471421786705  0.7830771650313435  0.5524971686758277  1.0000
  C   C130      1.0  0.2304751148507335  0.5428696393755954  0.94744314400409  1.0000
  C   C131      1.0  0.4045300295605117  0.2169199107190707  0.4475025546356192  1.0000
  C   C132      1.0  0.7695250415687837  0.45712864693898325  0.052556965536702124  1.0000
  C   C133      1.0  0.5723260479254649  0.6143988909817536  0.68913854772655  1.0000
  C   C134      1.0  0.9252472116963588  0.38303824606379766  0.8107951817240177  1.0000
  C   C135      1.0  0.4276762227534263  0.38560209509034843  0.31086200632076805  1.0000
  C   C136      1.0  0.07475281132312263  0.6169636258904276  0.1892031443803361  1.0000
  N   N1        1.0  0.3289157364653904  0.7171394184033842  0.6918132066923377  1.0000
  N   N2        1.0  0.025358453369122666  0.13708738265138726  0.8081816909807316  1.0000
  N   N3        1.0  0.6710851040044047  0.282860318060301  0.30818758845099126  1.0000
  N   N4        1.0  0.974643599330875  0.8629118372873421  0.19181863886608122  1.0000
  N   N5        1.0  0.6783878540965134  0.7329713378546073  0.49425832800459785  1.0000
  N   N6        1.0  0.23871379245554183  0.6841032310981278  0.005692000213485865  1.0000
  N   N7        1.0  0.3216116182727333  0.2670254983108719  0.5057410959336578  1.0000
  N   N8        1.0  0.7612862709720076  0.31589527093037595  0.9943071845760086  1.0000
  N   N9        1.0  0.176494338629098  0.7954606797416517  0.31473885337300084  1.0000
  N   N10       1.0  0.4806659159837494  0.36192965166930685  0.18528279064430103  1.0000
  N   N11       1.0  0.8235045952657388  0.2045376447725999  0.6852608757801802  1.0000
  N   N12       1.0  0.5193343860116356  0.6380715731431507  0.8147183097139531  1.0000
  N   N13       1.0  0.2334314166323423  0.7674361687599713  0.39562111736030653  1.0000
  N   N14       1.0  0.37159180490791494  0.33782083308686583  0.10441339125316057  1.0000
  N   N15       1.0  0.7665699321982586  0.23256592760596104  0.6043793595670904  1.0000
  N   N16       1.0  0.6284074399577833  0.6621790418468335  0.8955874868518305  1.0000
  N   N17       1.0  0.2733086395714039  0.7512814048717471  0.6121659219787999  1.0000
  N   N18       1.0  0.13917295338462313  0.16117734922185173  0.887823652322872  1.0000
  N   N19       1.0  0.7266898385465268  0.24871771395206815  0.3878341914564769  1.0000
  N   N20       1.0  0.8608264465815977  0.8388206593081263  0.11217653823234018  1.0000
  N   N21       1.0  0.5927759985907031  0.8418172821828235  0.5114382253718188  1.0000
  N   N22       1.0  0.330266643552605  0.58119658497732  0.9884917277443818  1.0000
  N   N23       1.0  0.40722575343289696  0.15818086566174822  0.48856180120731096  1.0000
  N   N24       1.0  0.6697341039252153  0.4188033672002902  0.01150814264764918  1.0000
  O   O1        1.0  0.09531273210431845  0.3082073089285516  0.6274439663794739  1.0000
  O   O2        1.0  0.6805259839505667  0.9675195220569107  0.8727266443230589  1.0000
  O   O3        1.0  0.9046876319996143  0.6917922651941097  0.3725555216776966  1.0000
  O   O4        1.0  0.31947468082975655  0.03248112415990781  0.12727314700179446  1.0000
  O   O5        1.0  0.5429230510476445  0.6853136111417227  0.7105590490449741  1.0000
  O   O6        1.0  0.9747834234297699  0.33219226869758944  0.7894277642066355  1.0000
  O   O7        1.0  0.4570808255298076  0.31468771478564855  0.2894422677248157  1.0000
  O   O8        1.0  0.025216050820830598  0.6678106132801178  0.21057002142851639  1.0000
  O   O9        1.0  0.7146884860943743  0.7138478545084438  0.3837419374968362  1.0000
  O   O10       1.0  0.3300980423374469  0.8308851975410293  0.11626642000787507  1.0000
  O   O11       1.0  0.285307328995309  0.28614957458133017  0.6162571909627133  1.0000
  O   O12       1.0  0.6699010165443227  0.16911510882052025  0.8837326085945206  1.0000
  O   O13       1.0  0.811674384588983  0.6057548371697266  0.5266118240893504  1.0000
  O   O14       1.0  0.0792026952981717  0.7853160167739901  0.9733156759120547  1.0000
  O   O15       1.0  0.18832615520441456  0.39424382719980133  0.47338866778629546  1.0000
  O   O16       1.0  0.9207932127834794  0.2146811966018588  0.026684377298792483  1.0000
  O   O17       1.0  0.9091239176268073  0.8106520028352971  0.47524253875449296  1.0000
  O   O18       1.0  0.3353619127113562  0.9338721790488621  0.024692238519420952  1.0000
  O   O19       1.0  0.090874632894149  0.18934594362401208  0.5247568080638345  1.0000
  O   O20       1.0  0.6646357159613102  0.06612687770427023  0.9753070311789711  1.0000
  O   O21       1.0  0.16798182059638833  0.4310035375275375  0.5769606890133828  1.0000
  O   O22       1.0  0.8537483971061661  0.09095517717801717  0.9231232671865185  1.0000
  O   O23       1.0  0.832015880479304  0.5689943468610891  0.42303781406805985  1.0000
  O   O24       1.0  0.14625143881783492  0.9090463636187139  0.07687737176970441  1.0000
  O   O25       1.0  0.5017271391385024  0.8535726978692039  0.7858660474408978  1.0000
  O   O26       1.0  0.06796908521304343  0.21603911662757705  0.7141327560928089  1.0000
  O   O27       1.0  0.4982719403322094  0.14642856514292646  0.21413467252974522  1.0000
  O   O28       1.0  0.932030357042599  0.783961567788914  0.28586665484443313  1.0000
  O   O29       1.0  0.6161210541793808  0.5005504643044175  0.4239697995372466  1.0000
  O   O30       1.0  0.07652407525463185  0.6920781601480215  0.07597042957661417  1.0000
  O   O31       1.0  0.38387825279487225  0.4994477599394853  0.5760294662666609  1.0000
  O   O32       1.0  0.9234754599929788  0.3079223085545522  0.9240299061119329  1.0000
  O   O33       1.0  0.851894829874617  0.00621037489932513  0.7045666062576074  1.0000
  O   O34       1.0  0.30154674829037736  0.6470891346187244  0.795390370624375  1.0000
  O   O35       1.0  0.14811053902047888  0.9937905499466735  0.29543285711509526  1.0000
  O   O36       1.0  0.6984525388647497  0.35291341620148126  0.2046097278626461  1.0000
  O   O37       1.0  0.5118661545922832  0.5073514918683057  0.676545846532967  1.0000
  O   O38       1.0  0.8308422895975979  0.3351488325296681  0.8233882456262476  1.0000
  O   O39       1.0  0.4881341268141598  0.4926487762935707  0.32345356245703266  1.0000
  O   O40       1.0  0.16915837518272533  0.6648518136871502  0.17661154569860568  1.0000
  O   O41       1.0  0.9975834246467414  0.002595849970233904  0.6721200515296103  1.0000
  O   O42       1.0  0.33050928021939535  0.8253251408746959  0.8278801766918062  1.0000
  O   O43       1.0  0.002420348644271532  0.9974052133457717  0.32787949480475476  1.0000
  O   O44       1.0  0.6694907736835062  0.1746781660554006  0.1721206864649289  1.0000
  O   O45       1.0  0.3324330132120322  0.49693098101154454  0.7118358751104095  1.0000
  O   O46       1.0  0.7849754852955471  0.12021475305266434  0.788077498822467  1.0000
  O   O47       1.0  0.6675659206828043  0.5030673435027069  0.28816385404277156  1.0000
  O   O48       1.0  0.21502479611088893  0.8797855151092122  0.21192191016753267  1.0000
  O   O49       1.0  0.9973295766768046  0.7302467618658636  0.5475593484139691  1.0000
  O   O50       1.0  0.18284195172326903  0.9499817215642209  0.9522883344699479  1.0000
  O   O51       1.0  0.002667979592835999  0.2697534672517746  0.4524406879013796  1.0000
  O   O52       1.0  0.8171556666549192  0.05001685686362107  0.04771008954432419  1.0000
