data_image0
_chemical_formula_structural       Al2H20C24N2Cl2O10
_chemical_formula_sum              "Al2 H20 C24 N2 Cl2 O10"
_cell_length_a       6.632773203165611
_cell_length_b       10.984307116114755
_cell_length_c       16.952738729108646
_cell_angle_alpha    88.28995207688104
_cell_angle_beta     82.73596751828181
_cell_angle_gamma    72.54427700815451

_space_group_name_H-M_alt    "P 1"
_space_group_IT_number       1

loop_
  _space_group_symop_operation_xyz
  'x, y, z'

loop_
  _atom_site_type_symbol
  _atom_site_label
  _atom_site_symmetry_multiplicity
  _atom_site_fract_x
  _atom_site_fract_y
  _atom_site_fract_z
  _atom_site_occupancy
  Al  Al1       1.0  0.99864109140389  0.5039769554356467  0.5005783210300263  1.0000
  Al  Al2       1.0  0.5010004067353793  0.49912967184611995  0.5009484907760464  1.0000
  H   H1        1.0  0.16634961852297173  0.64656909904199  0.5510468410053517  1.0000
  H   H2        1.0  0.8414977864908835  0.35743247784835563  0.4491057998844423  1.0000
  H   H3        1.0  0.6543921626698079  0.44559915818234674  0.265379476398813  1.0000
  H   H4        1.0  0.726790855357912  0.4347464540861025  0.116337022684128  1.0000
  H   H5        1.0  0.062171485734317904  0.6245374402273285  0.10352640517258746  1.0000
  H   H6        1.0  0.9507591847182938  0.37277963602352315  0.8955043331445579  1.0000
  H   H7        1.0  0.2826088294348423  0.5576827934456432  0.8866880037158464  1.0000
  H   H8        1.0  0.34939538525200947  0.5502073751477636  0.737531223504341  1.0000
  H   H9        1.0  0.5416086914602615  0.1204113298297287  0.37285297736705286  1.0000
  H   H10       1.0  0.7406693747405345  0.10410581051877442  0.4357434126534939  1.0000
  H   H11       1.0  0.8271407759037787  0.8832095367795174  0.41308405802344333  1.0000
  H   H12       1.0  0.5898709173855536  0.9007649155440446  0.3710106890392524  1.0000
  H   H13       1.0  0.804288697923795  0.904468196737241  0.5627776766214223  1.0000
  H   H14       1.0  0.5829155145800726  0.8843016488479947  0.6257204048903375  1.0000
  H   H15       1.0  0.6466977576796185  0.12457914495148968  0.58492831945815  1.0000
  H   H16       1.0  0.40232321273956734  0.10272268751175057  0.6275516559379213  1.0000
  H   H17       1.0  0.179153848467223  0.09873440538243727  0.4369916237732382  1.0000
  H   H18       1.0  0.10911543849841371  0.11768022591025576  0.5406537724433205  1.0000
  H   H19       1.0  0.24442702770149802  0.8984425725962238  0.5619515274654958  1.0000
  H   H20       1.0  0.2597973801970499  0.8788038702764562  0.4584015838332006  1.0000
  C   C1        1.0  0.638647009936072  0.7322038087078652  0.4998814572940231  1.0000
  C   C2        1.0  0.7098228722339714  0.4769389642385065  0.6439339699116073  1.0000
  C   C3        1.0  0.35688034905548  0.2708265586507679  0.5003155416433245  1.0000
  C   C4        1.0  0.2915693863882751  0.5246243256473164  0.3572177753865517  1.0000
  C   C5        1.0  0.3183851350543776  0.5338820810833126  0.2684135019171165  1.0000
  C   C6        1.0  0.5257882464045522  0.4819358325812287  0.2287287503230927  1.0000
  C   C7        1.0  0.5666867170611101  0.4763603071079672  0.14661001816693894  1.0000
  C   C8        1.0  0.3966507837639245  0.5263042719901347  0.10150835092284885  1.0000
  C   C9        1.0  0.1905095612640367  0.58321813420455  0.13956364428900506  1.0000
  C   C10       1.0  0.15093141558870116  0.5864839440080942  0.22237346241318068  1.0000
  C   C11       1.0  0.8203281572097796  0.4139406176096969  0.860360054268092  1.0000
  C   C12       1.0  0.6146952429021797  0.46870800200638024  0.8995276978598596  1.0000
  C   C13       1.0  0.4421868140336046  0.5180243366225739  0.8554823339203776  1.0000
  C   C14       1.0  0.4799243410535043  0.5143389795055384  0.7733088990305744  1.0000
  C   C15       1.0  0.6866648384042409  0.4650879378868282  0.7325901818919431  1.0000
  C   C16       1.0  0.8566446132419829  0.41265774481813355  0.7774739383440235  1.0000
  C   C17       1.0  0.5993791280639443  0.07538806518256538  0.42788117910248485  1.0000
  C   C18       1.0  0.6541724349499707  0.9285082448673091  0.422032847055469  1.0000
  C   C19       1.0  0.557929833960323  0.8769493644455223  0.4988895968989836  1.0000
  C   C20       1.0  0.6293834707924263  0.9301057538489488  0.5706810327990295  1.0000
  C   C21       1.0  0.5273389636109586  0.07669085500806717  0.5764241702374092  1.0000
  C   C22       1.0  0.42744212868710474  0.1260459295863186  0.49939858792038894  1.0000
  C   C23       1.0  0.24003361725077355  0.07242480685314939  0.4945626531690264  1.0000
  C   C24       1.0  0.3135967370793081  0.9260023828125982  0.5042995865344508  1.0000
  N   N1        1.0  0.4147319509269425  0.5265320506912445  0.017587983597046285  1.0000
  N   N2        1.0  0.5983915890987674  0.4678897199385474  0.9834910883703568  1.0000
  Cl  Cl1       1.0  0.89350413227691  0.6616735447879022  0.2645659464152387  1.0000
  Cl  Cl2       1.0  0.11344193622370115  0.3403002486670843  0.7333838719448166  1.0000
  O   O1        1.0  0.8394872373132574  0.6797245125137222  0.4917496616488888  1.0000
  O   O2        1.0  0.5545924238433813  0.466852876745527  0.6101781724733968  1.0000
  O   O3        1.0  0.5023146099925739  0.3258753194732619  0.4921736101736086  1.0000
  O   O4        1.0  0.12173735631625252  0.5050372261746858  0.3906581690087377  1.0000
  O   O5        1.0  0.15827815716432542  0.3284446533672493  0.5087175241922066  1.0000
  O   O6        1.0  0.4482492163594714  0.5310463539052036  0.3914490709525324  1.0000
  O   O7        1.0  0.5008678854276101  0.6720381254295658  0.5104080903512551  1.0000
  O   O8        1.0  0.8748700884775007  0.5021026831094204  0.6103196516516005  1.0000
  O   O9        1.0  0.21140207370066838  0.5569665041658282  0.5362498965004432  1.0000
  O   O10       1.0  0.7896840660287552  0.4464736806731223  0.465131198858181  1.0000
