data_image0
_chemical_formula_structural       Cu2H12C8N24O8
_chemical_formula_sum              "Cu2 H12 C8 N24 O8"
_cell_length_a       7.742041810429219
_cell_length_b       8.724707849260266
_cell_length_c       9.093552464283793
_cell_angle_alpha    90.00074179986223
_cell_angle_beta     89.99924009401505
_cell_angle_gamma    111.62030991162376

_space_group_name_H-M_alt    "P 1"
_space_group_IT_number       1

loop_
  _space_group_symop_operation_xyz
  'x, y, z'

loop_
  _atom_site_type_symbol
  _atom_site_label
  _atom_site_symmetry_multiplicity
  _atom_site_fract_x
  _atom_site_fract_y
  _atom_site_fract_z
  _atom_site_occupancy
  Cu  Cu1       1.0  5.754408431454e-09  0.9999999677180396  0.9999997290385564  1.0000
  Cu  Cu2       1.0  0.5000001452162836  0.9999991680841734  0.4999982765201524  1.0000
  H   H1        1.0  0.9247630413869103  0.6629463489804267  0.4736058445994544  1.0000
  H   H2        1.0  0.5752373192223815  0.3370480601232232  0.9736062242004593  1.0000
  H   H3        1.0  0.07523821744486987  0.33705180233514664  0.5263933034596349  1.0000
  H   H4        1.0  0.4247636681376008  0.6629525555683317  0.0263962229161976  1.0000
  H   H5        1.0  0.801849579774732  0.7337869084311778  0.6099860275082989  1.0000
  H   H6        1.0  0.6981502394711256  0.2662113327301725  0.109985501806463  1.0000
  H   H7        1.0  0.1981472918883966  0.26621000560225383  0.3900142202482968  1.0000
  H   H8        1.0  0.3018499660416652  0.7337905144062662  0.8900158456420257  1.0000
  H   H9        1.0  0.9606889617590754  0.6385851944097711  0.6649487522298116  1.0000
  H   H10       1.0  0.5393146173789277  0.3614148216553091  0.1649512130689317  1.0000
  H   H11       1.0  0.039311276271710896  0.36141049108664447  0.3350503958197848  1.0000
  H   H12       1.0  0.46068688038782585  0.6385870269404424  0.8350501343722244  1.0000
  C   C1        1.0  0.8589947932096393  0.6402716176912338  0.5818673985113207  1.0000
  C   C2        1.0  0.6410104834355791  0.35973251591146044  0.08186868244877842  1.0000
  C   C3        1.0  0.14100466296768846  0.3597252992554447  0.418131749550362  1.0000
  C   C4        1.0  0.35899050392440307  0.6402680997800942  0.9181337646678784  1.0000
  C   C5        1.0  0.4631877147973499  0.2851729639657563  0.6350809727366027  1.0000
  C   C6        1.0  0.03681473311819888  0.7148336913522544  0.1350735502041758  1.0000
  C   C7        1.0  0.5368101776730472  0.7148264158814543  0.3649181753492384  1.0000
  C   C8        1.0  0.9631854723945992  0.28516815578418436  0.8649277972443201  1.0000
  N   N1        1.0  0.7077660385685292  0.4803214362892875  0.5799758159510375  1.0000
  N   N2        1.0  0.7922333413300747  0.5196777427695948  0.0799718665684068  1.0000
  N   N3        1.0  0.2922339280092956  0.5196767135669731  0.4200233321153918  1.0000
  N   N4        1.0  0.2077671356356916  0.4803216400069985  0.9200294808632563  1.0000
  N   N5        1.0  0.7125354765963364  0.35686019493185483  0.498939585843317  1.0000
  N   N6        1.0  0.7874645949192142  0.6431344619461542  0.9989358515194198  1.0000
  N   N7        1.0  0.2874626873207546  0.6431367205608822  0.501060661905953  1.0000
  N   N8        1.0  0.21253717430678884  0.3568649222843804  0.0010643962246704  1.0000
  N   N9        1.0  0.5588490389437766  0.44532179121176096  0.6660286237863744  1.0000
  N   N10       1.0  0.9411459925243619  0.5546794580833918  0.1660256151682304  1.0000
  N   N11       1.0  0.4411488535266201  0.5546775886354497  0.3339705242994739  1.0000
  N   N12       1.0  0.05885370258793902  0.4453211561434642  0.833975732275519  1.0000
  N   N13       1.0  0.19995324671775447  0.05296799598055911  0.6660579214663827  1.0000
  N   N14       1.0  0.3000382707249188  0.9470352533633035  0.166045988427733  1.0000
  N   N15       1.0  0.8000446457589167  0.9470313838612727  0.3339401269392184  1.0000
  N   N16       1.0  0.6999619348004273  0.05296659376238472  0.8339531596602683  1.0000
  N   N17       1.0  0.29989533956455716  0.20330493346300224  0.7056423759710384  1.0000
  N   N18       1.0  0.20011480595071168  0.7967073509666209  0.2056352124603791  1.0000
  N   N19       1.0  0.7001025528995654  0.7966944463895872  0.2943578717950572  1.0000
  N   N20       1.0  0.7998859099751242  0.20329572906864266  0.7943639356323686  1.0000
  N   N21       1.0  0.5577112202645083  0.23203131912888617  0.5323435786938474  1.0000
  N   N22       1.0  0.9422915267082529  0.7679710941972714  0.0323355051760217  1.0000
  N   N23       1.0  0.4422861617991176  0.767966827814121  0.46765666906749465  1.0000
  N   N24       1.0  0.05770946065800334  0.23202952148890435  0.967665842260388  1.0000
  O   O1        1.0  0.04833275403622415  0.9801487717786233  0.7310138486129745  1.0000
  O   O2        1.0  0.4516721717961757  0.019867452303913107  0.23101838189250398  1.0000
  O   O3        1.0  0.9516648670000264  0.01985307241229611  0.2689820004489647  1.0000
  O   O4        1.0  0.5483301078365983  0.980133164830818  0.7689807661760852  1.0000
  O   O5        1.0  0.24133245553465352  0.9704049379318392  0.5605105683053679  1.0000
  O   O6        1.0  0.2586803995818983  0.029602231122524404  0.060503120414900004  1.0000
  O   O7        1.0  0.7586680214436611  0.029594444834003808  0.43948857976580774  1.0000
  O   O8        1.0  0.7413195344779243  0.9704020803737595  0.9394982270504215  1.0000
