data_image0
_chemical_formula_structural       NiH8C16N6Cl2O4
_chemical_formula_sum              "Ni1 H8 C16 N6 Cl2 O4"
_cell_length_a       4.543977877324277
_cell_length_b       5.5595607755311365
_cell_length_c       17.37905562944878
_cell_angle_alpha    93.00116613767183
_cell_angle_beta     110.92309641476466
_cell_angle_gamma    94.91764736914469

_space_group_name_H-M_alt    "P 1"
_space_group_IT_number       1

loop_
  _space_group_symop_operation_xyz
  'x, y, z'

loop_
  _atom_site_type_symbol
  _atom_site_label
  _atom_site_symmetry_multiplicity
  _atom_site_fract_x
  _atom_site_fract_y
  _atom_site_fract_z
  _atom_site_occupancy
  Ni  Ni1       1.0  0.9999978677385283  6.575047847997682e-07  4.2796070689216063e-07  1.0000
  H   H1        1.0  0.37036971893572723  0.5262503306705428  0.24559660231651037  1.0000
  H   H2        1.0  0.6296323773228563  0.4737514201558284  0.7544036870695334  1.0000
  H   H3        1.0  0.8654414305278162  0.15288332493479126  0.16033439716550646  1.0000
  H   H4        1.0  0.13455591662142274  0.8471165705241575  0.8396657536180283  1.0000
  H   H5        1.0  0.29662319742701027  0.5919704639988909  0.09736557763546468  1.0000
  H   H6        1.0  0.703374332564401  0.40803123730085383  0.9026345751275571  1.0000
  H   H7        1.0  0.3174240978709264  0.6472585728309995  0.5513383032248171  1.0000
  H   H8        1.0  0.6825807113765874  0.3527415509454599  0.4486626671945827  1.0000
  C   C1        1.0  0.18001016526655184  0.7978704424706679  0.5293956197440721  1.0000
  C   C2        1.0  0.819996927114559  0.20212970606910827  0.47060541898683533  1.0000
  C   C3        1.0  0.1086771647943223  0.868157983799229  0.4494530900075303  1.0000
  C   C4        1.0  0.891329927586781  0.13184216474054714  0.5505479487233698  1.0000
  C   C5        1.0  0.0647203005872965  0.9370012877526224  0.5791066603932646  1.0000
  C   C6        1.0  0.9352867917938069  0.06299886078715386  0.4208943783376425  1.0000
  C   C7        1.0  0.19800461651677648  0.7635640954230285  0.3816802020646008  1.0000
  C   C8        1.0  0.8019995800332251  0.2364358743258492  0.6183201536534567  1.0000
  C   C9        1.0  0.09535575805806919  0.9143442050140321  0.6665635981509721  1.0000
  C   C10       1.0  0.904646768055855  0.0856558939991174  0.3334373039569201  1.0000
  C   C11       1.0  0.10491375098757062  0.8587571579518215  0.23745849882257627  1.0000
  C   C12       1.0  0.8950864919927709  0.1412429162980189  0.7625423349738084  1.0000
  C   C13       1.0  0.2543970671070283  0.6740934600582236  0.21383055977628365  1.0000
  C   C14       1.0  0.7456025631757937  0.3259064601640347  0.7861696593187586  1.0000
  C   C15       1.0  6.279959877283509e-05  0.9986181906917655  0.16919986288528577  1.0000
  C   C16       1.0  0.9999374433815686  0.0013818835580748886  0.8308009709111059  1.0000
  N   N1        1.0  0.06969666147807631  0.9000273180255153  0.31373654767355663  1.0000
  N   N2        1.0  0.9303052519383423  0.09997262696005282  0.6862637397329931  1.0000
  N   N3        1.0  0.2348641125052211  0.7097236299670657  0.13607287543035798  1.0000
  N   N4        1.0  0.765132621946499  0.2902761114642942  0.8639266606518277  1.0000
  N   N5        1.0  0.08132042909907261  0.9028250274315398  0.10826910999321628  1.0000
  N   N6        1.0  0.9186771008923384  0.09717667386820483  0.8917310427698124  1.0000
  Cl  Cl1       1.0  0.5966773784588639  0.7207518455967873  0.9535730105608236  1.0000
  Cl  Cl2       1.0  0.4033199686903685  0.27924804986215435  0.046427140222711195  1.0000
  O   O1        1.0  0.3565020169885783  0.5954030163281915  0.38264685095171547  1.0000
  O   O2        1.0  0.6434997135856617  0.40459512281657345  0.6173534344753404  1.0000
  O   O3        1.0  0.2316914457297513  0.7696478754488398  0.7135023541946663  1.0000
  O   O4        1.0  0.7683086144084113  0.2303503929601973  0.2864984776222243  1.0000
