data_image0
_chemical_formula_structural       Al2H30C48O36
_chemical_formula_sum              "Al2 H30 C48 O36"
_cell_length_a       3.980591678069668
_cell_length_b       28.62423252917985
_cell_length_c       28.624476739709795
_cell_angle_alpha    120.00001621235916
_cell_angle_beta     90.00023345849132
_cell_angle_gamma    90.00043684974574

_space_group_name_H-M_alt    "P 1"
_space_group_IT_number       1

loop_
  _space_group_symop_operation_xyz
  'x, y, z'

loop_
  _atom_site_type_symbol
  _atom_site_label
  _atom_site_symmetry_multiplicity
  _atom_site_fract_x
  _atom_site_fract_y
  _atom_site_fract_z
  _atom_site_occupancy
  Al  Al1       1.0  0.9982645635558427  0.5000016178100779  0.49999904343499674  1.0000
  Al  Al2       1.0  0.9982896750666155  0.16666844104189243  0.8333321217300665  1.0000
  H   H1        1.0  0.5151200087116834  0.38468603996160766  0.722480556118917  1.0000
  H   H2        1.0  0.5149120865603933  0.2819827382656897  0.6108454243342579  1.0000
  H   H3        1.0  0.5150687021571089  0.8378003914923652  0.6153198299791142  1.0000
  H   H4        1.0  0.5149467313662157  0.8288655035587948  0.7180193956430116  1.0000
  H   H5        1.0  0.5150993619357322  0.2775196290262585  0.16220016300602685  1.0000
  H   H6        1.0  0.5149268169202941  0.38915506293974284  0.17113499047771794  1.0000
  H   H7        1.0  0.8643307569971412  0.2853750264805159  0.8473642581950857  1.0000
  H   H8        1.0  0.9482100004311037  0.3771236305724415  0.8210114765642729  1.0000
  H   H9        1.0  0.1337357424193613  0.1657692950841324  0.7196619222521577  1.0000
  H   H10       1.0  0.042189090798395106  0.2052337351168988  0.6388852777333441  1.0000
  H   H11       1.0  0.0420690327247257  0.46142619917866057  0.6944368266844022  1.0000
  H   H12       1.0  0.13371122845869368  0.5009005180057643  0.6136631785436535  1.0000
  H   H13       1.0  0.948130492941047  0.2895442438004495  0.5123175176000033  1.0000
  H   H14       1.0  0.8643110489664921  0.38129564252216863  0.4859679565137469  1.0000
  H   H15       1.0  0.8643225920486871  0.06199437497850371  0.7146277232473751  1.0000
  H   H16       1.0  0.9481783010392348  0.9438927858016583  0.622879082965717  1.0000
  H   H17       1.0  0.13373660122518768  0.053898695279869575  0.8342338830446252  1.0000
  H   H18       1.0  0.0421542094558518  0.9336544537245784  0.7947648815687883  1.0000
  H   H19       1.0  0.0421148867233754  0.733012718102721  0.538572924126278  1.0000
  H   H20       1.0  0.133730467169265  0.6127662480337861  0.4991016770764105  1.0000
  H   H21       1.0  0.9481580915887591  0.7227760377188801  0.710459324129566  1.0000
  H   H22       1.0  0.8643267504084804  0.6046732289623334  0.6187054603835236  1.0000
  H   H23       1.0  0.8643306979635527  0.152636546862084  0.9380086935122166  1.0000
  H   H24       1.0  0.9482041004825915  0.17898874758790836  0.056108111678028615  1.0000
  H   H25       1.0  0.133734523905197  0.2803344804633526  0.9461012832994627  1.0000
  H   H26       1.0  0.04215820563737789  0.3611107753258338  0.0663446943640196  1.0000
  H   H27       1.0  0.042078928435529406  0.30555995306964695  0.2669837988815615  1.0000
  H   H28       1.0  0.13371495920399923  0.3863337440929087  0.38723029690639527  1.0000
  H   H29       1.0  0.9481555982384647  0.48768275721050713  0.2772253518327617  1.0000
  H   H30       1.0  0.8643186445437437  0.514032508541888  0.395325134780073  1.0000
  C   C1        1.0  0.4984597452220925  0.46138000020931  0.4157793577102638  1.0000
  C   C2        1.0  0.4984687350917483  0.45440182692907166  0.5386179285549345  1.0000
  C   C3        1.0  0.4984700240120929  0.584217753331629  0.5455963861724769  1.0000
  C   C4        1.0  0.4984828509041961  0.2122656974391648  0.7947120466491243  1.0000
  C   C5        1.0  0.49848658645308314  0.0824514097158941  0.7877368412878666  1.0000
  C   C6        1.0  0.4984893286492992  0.20528932497378366  0.917551611505246  1.0000
  C   C7        1.0  0.5006564357186178  0.2436807112500788  0.768242271780629  1.0000
  C   C8        1.0  0.32378961083743013  0.22626118314456545  0.7191114446646055  1.0000
  C   C9        1.0  0.3342533792943598  0.25615174329433915  0.6928155240047787  1.0000
  C   C10       1.0  0.4998234883128844  0.30663865454346967  0.7163241614830866  1.0000
  C   C11       1.0  0.6675509925550074  0.32462655113528177  0.7660471554892112  1.0000
  C   C12       1.0  0.6792647690647584  0.29331610203943376  0.7907061648471725  1.0000
  C   C13       1.0  0.49682211575076707  0.3417379549535583  0.6933821350170176  1.0000
  C   C14       1.0  0.4967505755215668  0.32492968901936353  0.6399435228808344  1.0000
  C   C15       1.0  0.6674659136486483  0.3420438393563857  0.5672812030314063  1.0000
  C   C16       1.0  0.4997407745229552  0.36002738110668997  0.6170031144700445  1.0000
  C   C17       1.0  0.33419427918117606  0.4105162046385758  0.6405120951258568  1.0000
  C   C18       1.0  0.32372397368536815  0.44040365619340344  0.6142122619082002  1.0000
  C   C19       1.0  0.5006136038359088  0.42298988199409854  0.5650867377341484  1.0000
  C   C20       1.0  0.6792109613246708  0.37335600185744516  0.5426247107102143  1.0000
  C   C21       1.0  0.5006449936764953  0.024568085699385775  0.7563239340623511  1.0000
  C   C22       1.0  0.323769530585551  0.9928544713361447  0.7737398029651247  1.0000
  C   C23       1.0  0.334240841303192  0.936667856515676  0.7438505369636416  1.0000
  C   C24       1.0  0.49979769381739203  0.9096881902969045  0.6933630563835037  1.0000
  C   C25       1.0  0.6675096066843054  0.9414262025013258  0.6753769720627433  1.0000
  C   C26       1.0  0.6792535993215054  0.9973966072857932  0.7066898340579539  1.0000
  C   C27       1.0  0.49680605883082046  0.8516477844633955  0.6582657677520132  1.0000
  C   C28       1.0  0.49676755605057815  0.8150178767574302  0.6750736323345946  1.0000
  C   C29       1.0  0.6674831011419117  0.7252410239899802  0.6579607202344633  1.0000
  C   C30       1.0  0.49976498053342056  0.7569796804227098  0.6399769387975596  1.0000
  C   C31       1.0  0.3342253260112855  0.7299973849032712  0.5894852598346317  1.0000
  C   C32       1.0  0.3237474897716552  0.6738101465105545  0.5595965832696664  1.0000
  C   C33       1.0  0.5006300701891391  0.6420974109850875  0.5770108706332664  1.0000
  C   C34       1.0  0.6792356154315371  0.669270748016494  0.6266463703052382  1.0000
  C   C35       1.0  0.5006312484594275  0.23175514136229225  0.9754326057199522  1.0000
  C   C36       1.0  0.3237690315068491  0.2808842021984076  0.007144788419317527  1.0000
  C   C37       1.0  0.33423380697895777  0.30718057985994557  0.06333110064389298  1.0000
  C   C38       1.0  0.4998043618320267  0.28367421571280715  0.09031196807220708  1.0000
  C   C39       1.0  0.6675187877002884  0.23395001478376537  0.058573471460817865  1.0000
  C   C40       1.0  0.6792341817050768  0.2092932342916853  0.002604770559855793  1.0000
  C   C41       1.0  0.49680875600142826  0.306618014436836  0.14835276747263043  1.0000
  C   C42       1.0  0.49676304323049436  0.360055341578544  0.1849822651567763  1.0000
  C   C43       1.0  0.6674695920389908  0.43271719173544204  0.2747577862112394  1.0000
  C   C44       1.0  0.4997564966131733  0.38299434823373696  0.24301948190110775  1.0000
  C   C45       1.0  0.3342054225677344  0.3594849368734998  0.26999936361069393  1.0000
  C   C46       1.0  0.3237285877336902  0.3857837019905189  0.32618604910738463  1.0000
  C   C47       1.0  0.5006136691088727  0.43491117658723516  0.3578985828758476  1.0000
  C   C48       1.0  0.6792306075044082  0.45737483928710515  0.3307277544090467  1.0000
  O   O1        1.0  0.728972785245162  0.55704335347653  0.5542272019476328  1.0000
  O   O2        1.0  0.7289570179965068  0.4971869434305771  0.44295700645572816  1.0000
  O   O3        1.0  0.7289538427681493  0.4457719893483941  0.5028120768885459  1.0000
  O   O4        1.0  0.26595567021454514  0.5599821543329567  0.5092441280974781  1.0000
  O   O5        1.0  0.2659542514665176  0.49075507110959654  0.5507365341283261  1.0000
  O   O6        1.0  0.2659415282121245  0.44926273403537215  0.44001428974153367  1.0000
  O   O7        1.0  0.7289863373393574  0.16948468262040006  0.890376605066855  1.0000
  O   O8        1.0  0.728992024583988  0.22089564615826165  0.8305171407153294  1.0000
  O   O9        1.0  0.728988155430237  0.10962796279446954  0.7791081167781188  1.0000
  O   O10       1.0  0.2659736638069248  0.21740577773984887  0.8933167353515047  1.0000
  O   O11       1.0  0.2659595217745975  0.10668499958497789  0.8240875561297472  1.0000
  O   O12       1.0  0.2659433551769935  0.17591198918697876  0.7825938462901831  1.0000
  O   O13       1.0  0.8551293048228032  0.31424909322003464  0.8379110334258044  1.0000
  O   O14       1.0  0.8308048032582533  0.37318093901397736  0.7892175048516208  1.0000
  O   O15       1.0  0.14741213069293482  0.179022276715557  0.6937207985277709  1.0000
  O   O16       1.0  0.1687566908294755  0.23706016776114328  0.6448138444685371  1.0000
  O   O17       1.0  0.16868238727722232  0.4296053381603431  0.6885121839361618  1.0000
  O   O18       1.0  0.1473674602522976  0.48764649792195053  0.6396060839260684  1.0000
  O   O19       1.0  0.830706278893139  0.2934869840648774  0.5441103593824651  1.0000
  O   O20       1.0  0.8550805678485603  0.3524195570140166  0.49542037519285753  1.0000
  O   O21       1.0  0.855091325432781  0.02366755073889968  0.6857543176413899  1.0000
  O   O22       1.0  0.8307528043939385  0.9160429566504716  0.6268215291774482  1.0000
  O   O23       1.0  0.1474191989487252  0.01470293663980747  0.8209803870215852  1.0000
  O   O24       1.0  0.1687372384587817  0.9077565192979691  0.762941582573113  1.0000
  O   O25       1.0  0.1687203486017879  0.7589095323897653  0.5703942621739488  1.0000
  O   O26       1.0  0.14738551389631743  0.6519631473747936  0.512352679549764  1.0000
  O   O27       1.0  0.8307265429537766  0.7506262108581937  0.7065168500653486  1.0000
  O   O28       1.0  0.855100962011747  0.6430020249576884  0.6475824538011493  1.0000
  O   O29       1.0  0.8550991876656583  0.16208852721617023  0.9763353572566801  1.0000
  O   O30       1.0  0.830778116507922  0.21078066241679483  0.08395827184138228  1.0000
  O   O31       1.0  0.1473995899294565  0.30627718554687544  0.9852974391967139  1.0000
  O   O32       1.0  0.16875263027724688  0.355184909742384  0.09224160482008162  1.0000
  O   O33       1.0  0.16869560435618067  0.31148242577869206  0.241087898910294  1.0000
  O   O34       1.0  0.14737497660855334  0.360388455481349  0.34803397420458987  1.0000
  O   O35       1.0  0.830737097759105  0.45588818984868595  0.24937257070796198  1.0000
  O   O36       1.0  0.855088075345634  0.5045811710597476  0.35699709940092117  1.0000
