data_image0
_chemical_formula_structural       Al4H40C34O22
_chemical_formula_sum              "Al4 H40 C34 O22"
_cell_length_a       6.651010598729673
_cell_length_b       14.300905364174348
_cell_length_c       16.00089970008156
_cell_angle_alpha    89.9997906435199
_cell_angle_beta     89.99963533375168
_cell_angle_gamma    98.06664551142055

_space_group_name_H-M_alt    "P 1"
_space_group_IT_number       1

loop_
  _space_group_symop_operation_xyz
  'x, y, z'

loop_
  _atom_site_type_symbol
  _atom_site_label
  _atom_site_symmetry_multiplicity
  _atom_site_fract_x
  _atom_site_fract_y
  _atom_site_fract_z
  _atom_site_occupancy
  Al  Al1       1.0  0.1790782424721938  0.7591189011245445  0.5009627909794717  1.0000
  Al  Al2       1.0  0.8209198803541894  0.24088076239707584  0.0009625528222372001  1.0000
  Al  Al3       1.0  0.6799376411102642  0.7606460440819234  0.5006907150024134  1.0000
  Al  Al4       1.0  0.3200656606007611  0.2393557254170702  0.0006902843963417  1.0000
  H   H1        1.0  0.21397932432206082  0.868436214397448  0.2537433305161728  1.0000
  H   H2        1.0  0.7860148536538886  0.1315551385642735  0.7537523344545819  1.0000
  H   H3        1.0  0.965396987390484  0.8302166808092294  0.21692357994516706  1.0000
  H   H4        1.0  0.034594045039419485  0.16977769225270115  0.7169324758731933  1.0000
  H   H5        1.0  0.029348430429642646  0.9362067181352031  0.10629369534870392  1.0000
  H   H6        1.0  0.9706603688261453  0.06379238972721879  0.6063004272672642  1.0000
  H   H7        1.0  0.2655635394870898  0.9848955313247527  0.1496357830918669  1.0000
  H   H8        1.0  0.7344429831871935  0.015102661781057198  0.6496372154678628  1.0000
  H   H9        1.0  0.27840919158097677  0.0089758319433457  0.34870866077356066  1.0000
  H   H10       1.0  0.7215927312925743  0.9910100774544689  0.84871632423004  1.0000
  H   H11       1.0  0.28882422080031483  0.1271724475032698  0.24627733520236464  1.0000
  H   H12       1.0  0.7111782318043961  0.8728210374769104  0.7462797947635521  1.0000
  H   H13       1.0  0.7139936607725943  0.00018461745997909885  0.3443063182076714  1.0000
  H   H14       1.0  0.28602089956854826  0.9998125851815515  0.8443054123366383  1.0000
  H   H15       1.0  0.665159582493949  0.9002458592717344  0.2801622874260374  1.0000
  H   H16       1.0  0.3348349878810453  0.099752430721459  0.7801591570731149  1.0000
  H   H17       1.0  0.7075999130807985  0.9931570950190148  0.1591426197497299  1.0000
  H   H18       1.0  0.2923991419717495  0.0068368326807615  0.659141809792935  1.0000
  H   H19       1.0  0.7212231329877666  0.09338023115458331  0.22360856593255823  1.0000
  H   H20       1.0  0.27877532486508727  0.9066140856285401  0.7236086135607779  1.0000
  H   H21       1.0  0.07457906083843108  0.057426088566856485  0.39488195164236833  1.0000
  H   H22       1.0  0.9254312870898005  0.9425595655997229  0.8948828409647264  1.0000
  H   H23       1.0  0.062194190786058784  0.1626934639477824  0.2852035928722145  1.0000
  H   H24       1.0  0.9378040932252742  0.8372977202240149  0.7852010346423414  1.0000
  H   H25       1.0  0.6755390819169235  0.5616936144151836  0.29892989244659424  1.0000
  H   H26       1.0  0.3244749998185269  0.43830522860172744  0.7989275663219858  1.0000
  H   H27       1.0  0.7796368257319839  0.44968166915866437  0.20382712373646686  1.0000
  H   H28       1.0  0.22036772839496163  0.5503169682617822  0.703828530333631  1.0000
  H   H29       1.0  0.2099922222079229  0.5559958040194957  0.30299670271266177  1.0000
  H   H30       1.0  0.7900173608135429  0.4440079813162256  0.8029971735344575  1.0000
  H   H31       1.0  0.023700233589643484  0.3429832113204796  0.1980857617365572  1.0000
  H   H32       1.0  0.1632350130331588  0.35326141244508585  0.29521629950740913  1.0000
  H   H33       1.0  0.2584937795057769  0.2968348882854173  0.20553877478140953  1.0000
  H   H34       1.0  0.9763080808734017  0.6570366504930122  0.6981205361042059  1.0000
  H   H35       1.0  0.8366941803163356  0.6467589213036363  0.7952328259480836  1.0000
  H   H36       1.0  0.7415043125498996  0.703181433896077  0.7055404367597263  1.0000
  H   H37       1.0  0.4624541317984806  0.8772206441788482  0.5342877496934691  1.0000
  H   H38       1.0  0.5375334985086795  0.12278030062914519  0.0342900961702099  1.0000
  H   H39       1.0  0.8900722681914742  0.6403467904676672  0.5308994858192051  1.0000
  H   H40       1.0  0.10992642535605059  0.3596604990183963  0.030883117120588104  1.0000
  C   C1        1.0  0.40265201951149976  0.6481915095376252  0.38781271023656677  1.0000
  C   C2        1.0  0.5973575403263921  0.35181044140969664  0.8878097525861223  1.0000
  C   C3        1.0  0.3915304024267242  0.6432453398883309  0.6136156647546542  1.0000
  C   C4        1.0  0.6084691867983381  0.3567629504243683  0.11360826020966643  1.0000
  C   C5        1.0  0.9598024219727036  0.8747113911113045  0.614977383608192  1.0000
  C   C6        1.0  0.04019897946175628  0.12528840368796781  0.11497826275885362  1.0000
  C   C7        1.0  0.9683766967936049  0.8700831503137036  0.3868464548924281  1.0000
  C   C8        1.0  0.03162419028767969  0.12991034935478749  0.8868504912327922  1.0000
  C   C9        1.0  0.07063787368289089  0.8928980415656083  0.23599765349291604  1.0000
  C   C10       1.0  0.9293617055170313  0.10709550333930197  0.7360050072812073  1.0000
  C   C11       1.0  0.10335527301644015  0.9657988729191516  0.1638790350018411  1.0000
  C   C12       1.0  0.8966420558921938  0.03419927820161921  0.6638848614945446  1.0000
  C   C13       1.0  0.12679964230010646  0.02809645247540969  0.33645707237749894  1.0000
  C   C14       1.0  0.8732063328746873  0.9718923327533981  0.8364611656596282  1.0000
  C   C15       1.0  0.7729534525729489  0.9647474637635086  0.29050079525084277  1.0000
  C   C16       1.0  0.22704866041824087  0.03524650989376  0.7905001114107223  1.0000
  C   C17       1.0  0.9818855871381584  0.9376125689544851  0.31307359535914975  1.0000
  C   C18       1.0  0.0181123422140885  0.0623784780910626  0.8130785224051635  1.0000
  C   C19       1.0  0.0142689853553861  0.056477881467692684  0.18811055620499673  1.0000
  C   C20       1.0  0.9857303702769683  0.9435180224072467  0.6881106154785143  1.0000
  C   C21       1.0  0.1320403916953694  0.1011479768707204  0.26488784376232394  1.0000
  C   C22       1.0  0.8679605450959469  0.89884612747025  0.76488844332539  1.0000
  C   C23       1.0  0.7901577643104503  0.029029660552005506  0.21232918980236803  1.0000
  C   C24       1.0  0.20983760983692423  0.9709640148586018  0.7123286332379949  1.0000
  C   C25       1.0  0.3682068065212291  0.578034329201408  0.31990107621797403  1.0000
  C   C26       1.0  0.631804896436222  0.42196724492830373  0.8198983990981077  1.0000
  C   C27       1.0  0.517158852359934  0.5393162830785415  0.2815955439498552  1.0000
  C   C28       1.0  0.4828550630985687  0.46068618103155506  0.7815976140300478  1.0000
  C   C29       1.0  0.6257698689095077  0.4261365790764273  0.18185865517028793  1.0000
  C   C30       1.0  0.37423547011815117  0.5738685271471978  0.6818657191987114  1.0000
  C   C31       1.0  0.47313465061465365  0.4664178108894673  0.21817305301844675  1.0000
  C   C32       1.0  0.5268682781832296  0.5335857089173571  0.718176612546266  1.0000
  C   C33       1.0  0.17496738616779342  0.35327944077339185  0.22650451857924744  1.0000
  C   C34       1.0  0.8250145852656982  0.6467389484270639  0.7265204593226359  1.0000
  O   O1        1.0  0.5629267451350514  0.6644355956603148  0.5774330027199213  1.0000
  O   O2        1.0  0.4370694673854132  0.335575005390801  0.0774249914730305  1.0000
  O   O3        1.0  0.2413699993981523  0.6665702028265769  0.4237828026847767  1.0000
  O   O4        1.0  0.7586332581834013  0.33342734784194045  0.9237787399312724  1.0000
  O   O5        1.0  0.12860579549148096  0.8365397587276675  0.40745113238327246  1.0000
  O   O6        1.0  0.8713933273224652  0.16345364425268363  0.9074572463746976  1.0000
  O   O7        1.0  0.22809454132170254  0.6762783547031858  0.5940538595128828  1.0000
  O   O8        1.0  0.7719029024869214  0.3237272116086131  0.09404789034828552  1.0000
  O   O9        1.0  0.11982538942650932  0.8548435232590279  0.5793208277567176  1.0000
  O   O10       1.0  0.8801782501007834  0.14516209677059067  0.07932757829232881  1.0000
  O   O11       1.0  0.5834648195308885  0.683320388332305  0.40676128457732835  1.0000
  O   O12       1.0  0.41654594201008877  0.316676516436857  0.9067552974179024  1.0000
  O   O13       1.0  0.44628762697058005  0.8182033606605684  0.5036183476992164  1.0000
  O   O14       1.0  0.5537171395548199  0.18179838974533874  0.0036210722708105002  1.0000
  O   O15       1.0  0.7782679798013277  0.8423771176766763  0.5939720465677567  1.0000
  O   O16       1.0  0.2217356964007138  0.15762913651904847  0.09397283710263343  1.0000
  O   O17       1.0  0.7987917619849225  0.8534808372403332  0.424531521921125  1.0000
  O   O18       1.0  0.20121404410921429  0.14651528791416268  0.9245305613157059  1.0000
  O   O19       1.0  0.9113403059782428  0.7014860525667286  0.5036383833102747  1.0000
  O   O20       1.0  0.08865650380045757  0.2985143087134999  0.0036341598127905004  1.0000
  O   O21       1.0  0.2718833736214136  0.44447387031435426  0.19838078882143154  1.0000
  O   O22       1.0  0.7281197618337387  0.5555438854741084  0.6983892273328607  1.0000
