data_image0
_chemical_formula_structural       Ba2H24C20N12O32
_chemical_formula_sum              "Ba2 H24 C20 N12 O32"
_cell_length_a       6.486452685346607
_cell_length_b       12.199232188949543
_cell_length_c       13.487543998704822
_cell_angle_alpha    86.33829921002378
_cell_angle_beta     76.10230609218176
_cell_angle_gamma    74.58715542757952

_space_group_name_H-M_alt    "P 1"
_space_group_IT_number       1

loop_
  _space_group_symop_operation_xyz
  'x, y, z'

loop_
  _atom_site_type_symbol
  _atom_site_label
  _atom_site_symmetry_multiplicity
  _atom_site_fract_x
  _atom_site_fract_y
  _atom_site_fract_z
  _atom_site_occupancy
  Ba  Ba1       1.0  0.6740453068660697  0.5000989532076119  0.4998080574077834  1.0000
  Ba  Ba2       1.0  0.9237617658827801  7.31402915051e-05  0.00022230516014336835  1.0000
  H   H1        1.0  0.675947563955006  0.21033481815793212  0.5204866259680189  1.0000
  H   H2        1.0  0.40585861379670246  0.7895414893626409  0.47918473087077734  1.0000
  H   H3        1.0  0.9470373024788684  0.710255543592112  0.9793833339207512  1.0000
  H   H4        1.0  0.6358570079012296  0.289694372333429  0.02085738303916434  1.0000
  H   H5        1.0  0.612232980625528  0.26205044697528734  0.6290589236020312  1.0000
  H   H6        1.0  0.5017565356701398  0.7382219985403254  0.3704775467726976  1.0000
  H   H7        1.0  0.9909204696413809  0.7620303221486466  0.8708035943824444  1.0000
  H   H8        1.0  0.6224241706823078  0.23824001231395192  0.129551037852366  1.0000
  H   H9        1.0  0.15226057810816926  0.5822039212789748  0.5599250320305843  1.0000
  H   H10       1.0  0.2944926992504548  0.4175973882584714  0.43998855919453217  1.0000
  H   H11       1.0  0.4621861241211107  0.08220527908365231  0.9399809204697435  1.0000
  H   H12       1.0  0.4841761162583395  0.9177571887661031  0.06024945700368533  1.0000
  H   H13       1.0  0.18719722336714276  0.5175308884844085  0.6616796352865749  1.0000
  H   H14       1.0  0.3663399418747559  0.4822941380464841  0.33821800973134947  1.0000
  H   H15       1.0  0.5991232031099257  0.0174568289100705  0.8383130160087191  1.0000
  H   H16       1.0  0.4544207712591158  0.9825132085608886  0.16198947128031457  1.0000
  H   H17       1.0  0.22164106255436877  0.2501624733890608  0.3799272790456243  1.0000
  H   H18       1.0  0.852409528682941  0.7497417129120973  0.6202063293674344  1.0000
  H   H19       1.0  0.3510125939248564  0.7502963018131441  0.12017438884144846  1.0000
  H   H20       1.0  0.2217088273227147  0.24970348122919012  0.8796664097014145  1.0000
  H   H21       1.0  0.05862012297534838  0.2688882444725564  0.6962270437679053  1.0000
  H   H22       1.0  0.02378627823834724  0.7312473501635708  0.30386949196627466  1.0000
  H   H23       1.0  0.5044354754833901  0.7689785210905954  0.8038370099058131  1.0000
  H   H24       1.0  0.07741331734481349  0.23116432499622164  0.19598688067759443  1.0000
  C   C1        1.0  0.20820772395160242  0.20282897683433995  0.45113593452061457  1.0000
  C   C2        1.0  0.8626866146834682  0.7971312574096033  0.549012698537702  1.0000
  C   C3        1.0  0.40909564757279787  0.7029407122645565  0.04896195488480264  1.0000
  C   C4        1.0  0.1611486748760315  0.29709727804705477  0.9508504303844205  1.0000
  C   C5        1.0  0.26044603648288955  0.08580399894510293  0.4540683402218236  1.0000
  C   C6        1.0  0.8004198519026599  0.9141364468582228  0.546123972433776  1.0000
  C   C7        1.0  0.4647295910689948  0.5859073472570202  0.04603367001918461  1.0000
  C   C8        1.0  0.09643937312939226  0.41411087714673295  0.9537317938892685  1.0000
  C   C9        1.0  0.24188145639026692  0.0197029514220688  0.5489802118339356  1.0000
  C   C10       1.0  0.8093943885260733  0.9803052983790224  0.45125533615571123  1.0000
  C   C11       1.0  0.5410506024879213  0.5197930518993203  0.951130039919086  1.0000
  C   C12       1.0  0.011088451719629643  0.48025132450666064  0.04860265627903001  1.0000
  C   C13       1.0  0.16185438760395962  0.09606808571084001  0.6375351865143912  1.0000
  C   C14       1.0  0.8954364191515221  0.9040176814359242  0.3626600979154944  1.0000
  C   C15       1.0  0.549278217368581  0.5961316008082491  0.8625509769246806  1.0000
  C   C16       1.0  0.008045934815079613  0.40395456016585746  0.1372158531276781  1.0000
  C   C17       1.0  0.11695671196451925  0.21314513152287873  0.6299967370512577  1.0000
  C   C18       1.0  0.9602037736413965  0.7869419437921013  0.3701534241313739  1.0000
  C   C19       1.0  0.4966250464461693  0.7132109218322213  0.8700623451066818  1.0000
  C   C20       1.0  0.08015649869830803  0.2868926933211711  0.12973068181862155  1.0000
  N   N1        1.0  0.13740244144554462  0.26588692181955054  0.5378163846343399  1.0000
  N   N2        1.0  0.9410956918172102  0.7341406625405613  0.46229968969518626  1.0000
  N   N3        1.0  0.4249732938864806  0.7659732100998445  0.9622544382675926  1.0000
  N   N4        1.0  0.15322220183559654  0.23410492793345847  0.03757910076855352  1.0000
  N   N5        1.0  0.33045409729517405  0.0305774998093895  0.35616016999492234  1.0000
  N   N6        1.0  0.7166278052459064  0.9692172244417634  0.6441005360315801  1.0000
  N   N7        1.0  0.43653741793682593  0.5306841255416331  0.14392234779567306  1.0000
  N   N8        1.0  0.1104258411301656  0.4693074121272504  0.855822923651573  1.0000
  N   N9        1.0  0.12116947336532734  0.05183655574859361  0.7399730392876337  1.0000
  N   N10       1.0  0.9131842596871991  0.9482656895667747  0.26020851367399456  1.0000
  N   N11       1.0  0.6111204062636234  0.5517787576039411  0.7601775346847361  1.0000
  N   N12       1.0  0.9231573388558375  0.44821680872016867  0.23964765724568354  1.0000
  O   O1        1.0  0.0843004536877458  0.3782020063324155  0.5324608594694312  1.0000
  O   O2        1.0  0.9946503495023434  0.621810283409843  0.46756076841868593  1.0000
  O   O3        1.0  0.36650223292233597  0.8783102103538242  0.9675558447454691  1.0000
  O   O4        1.0  0.21222490893434548  0.1217849459651532  0.032314376736735505  1.0000
  O   O5        1.0  0.28509333950511  0.9137393278374194  0.5553806910547152  1.0000
  O   O6        1.0  0.7505238343915793  0.08622009271250158  0.4449731264672253  1.0000
  O   O7        1.0  0.5909561085532428  0.41383746763441565  0.9447704329644537  1.0000
  O   O8        1.0  0.9470111075478937  0.5861836939213987  0.054922990030469535  1.0000
  O   O9        1.0  0.2864689468901318  0.08725976249554182  0.2793941278741983  1.0000
  O   O10       1.0  0.6538818486590042  0.9122153369792517  0.7208412880449729  1.0000
  O   O11       1.0  0.31526410108792646  0.5872845387796133  0.22061250689321105  1.0000
  O   O12       1.0  0.1237922376820604  0.4124825825211574  0.7790579682846471  1.0000
  O   O13       1.0  0.4330259762568641  0.9286177463390858  0.35089951559326954  1.0000
  O   O14       1.0  0.7099607764726484  0.0714291782241219  0.6494408276532937  1.0000
  O   O15       1.0  0.5340969675284271  0.4287719558071147  0.14926211122756436  1.0000
  O   O16       1.0  0.1095340006746283  0.5714666980221709  0.8505372421389055  1.0000
  O   O17       1.0  0.09820064693818113  0.953653427905714  0.7547039587233401  1.0000
  O   O18       1.0  0.8068043478229188  0.046434784929310524  0.24543569790888148  1.0000
  O   O19       1.0  0.6022476332531355  0.4536804747565882  0.7455773515910593  1.0000
  O   O20       1.0  0.8025423652757695  0.5465051304648229  0.25432618837290033  1.0000
  O   O21       1.0  0.10595840671764022  0.1162929415687444  0.8119757525065054  1.0000
  O   O22       1.0  0.03478401540647961  0.8838601515768405  0.18824936182902977  1.0000
  O   O23       1.0  0.6686724881414747  0.6160353738614078  0.6881567785490718  1.0000
  O   O24       1.0  0.9720455978912952  0.38369819588615434  0.3116775599606855  1.0000
  O   O25       1.0  0.6347926129286208  0.28361284036715523  0.5574265141003282  1.0000
  O   O26       1.0  0.47302398059085254  0.716316787061082  0.4420174154558297  1.0000
  O   O27       1.0  0.9425569289868319  0.7835535940513767  0.942450212790405  1.0000
  O   O28       1.0  0.6658857779590264  0.21643092153325236  0.05798165342542214  1.0000
  O   O29       1.0  0.24566350243406257  0.568956153789472  0.6104312220657563  1.0000
  O   O30       1.0  0.4250608863722078  0.4307848396880871  0.3894104470836909  1.0000
  O   O31       1.0  0.6061292169662877  0.06896783004103921  0.8895519845793275  1.0000
  O   O32       1.0  0.5642275128342715  0.9309538781842691  0.11081167289721355  1.0000
