data_image0
_chemical_formula_structural       Zr6H36C60Br10O32
_chemical_formula_sum              "Zr6 H36 C60 Br10 O32"
_cell_length_a       14.903743094545872
_cell_length_b       14.900690859786945
_cell_length_c       14.858507150766053
_cell_angle_alpha    58.95523504066421
_cell_angle_beta     60.301015496845196
_cell_angle_gamma    59.76439233686022

_space_group_name_H-M_alt    "P 1"
_space_group_IT_number       1

loop_
  _space_group_symop_operation_xyz
  'x, y, z'

loop_
  _atom_site_type_symbol
  _atom_site_label
  _atom_site_symmetry_multiplicity
  _atom_site_fract_x
  _atom_site_fract_y
  _atom_site_fract_z
  _atom_site_occupancy
  Zr  Zr1       1.0  0.8796288282018524  0.3851718859528433  0.6161960785214687  1.0000
  Zr  Zr2       1.0  0.11875203376983011  0.6228732548060877  0.3829131810053569  1.0000
  Zr  Zr3       1.0  0.11809209988470566  0.37839432821406405  0.6229793990562911  1.0000
  Zr  Zr4       1.0  0.8846227291403821  0.6270747879912194  0.3754823148367806  1.0000
  Zr  Zr5       1.0  0.8815564543536636  0.6173701140537987  0.6216753000436555  1.0000
  Zr  Zr6       1.0  0.11931437413078058  0.3840050369563883  0.3830541582803447  1.0000
  H   H1        1.0  0.9050460847209011  0.40096612602761905  0.7826217631471621  1.0000
  H   H2        1.0  0.9105823798436602  0.7860297152153564  0.4045309268977987  1.0000
  H   H3        1.0  0.28136510065652937  0.4075128957962735  0.41239469100011655  1.0000
  H   H4        1.0  0.906614546365482  0.41633032450833707  0.4001348933357961  1.0000
  H   H5        1.0  0.5017521333044073  0.7585011492179916  0.8137532124185681  1.0000
  H   H6        1.0  0.5784198058396515  0.7250648572336116  0.8946117961371556  1.0000
  H   H7        1.0  0.4056764528403463  0.7355884099027676  0.0591434750431644  1.0000
  H   H8        1.0  0.3311747131636693  0.7619723642524151  0.9798383975619913  1.0000
  H   H9        1.0  0.22375192739919922  0.07716691787747015  0.30042154722033126  1.0000
  H   H10       1.0  0.11405085712762289  0.15776207730010583  0.24444163824205126  1.0000
  H   H11       1.0  0.11669176507153622  0.9851925569424439  0.248522956035778  1.0000
  H   H12       1.0  0.22728928670832702  0.9039209642611326  0.3039545825990686  1.0000
  H   H13       1.0  0.4783823506108432  0.8057305458051688  0.47119192258412573  1.0000
  H   H14       1.0  0.5425565325255871  0.8827885682864293  0.3336262152742079  1.0000
  H   H15       1.0  0.3709717563404453  0.048836601169924256  0.33794980587681067  1.0000
  H   H16       1.0  0.305290417659286  0.9730481431181703  0.47602608305613364  1.0000
  H   H17       1.0  0.8520605060677864  0.7502901664360735  0.004077511262913484  1.0000
  H   H18       1.0  0.7775450867387546  0.6679947470702671  0.12978583996413556  1.0000
  H   H19       1.0  0.7505807356568251  0.6013799376536821  0.023711504543598348  1.0000
  H   H20       1.0  0.7901322143277127  0.708422295038986  0.9000410416244902  1.0000
  H   H21       1.0  0.8801501506849975  0.016920442401435278  0.17513400751909805  1.0000
  H   H22       1.0  0.015385527313803484  0.006885040186595909  0.1438908846239997  1.0000
  H   H23       1.0  0.9868662155200952  0.1719027934426548  0.993366929400196  1.0000
  H   H24       1.0  0.8627703872470464  0.16593335664273207  0.01133344348600931  1.0000
  H   H25       1.0  0.1654106823853496  0.05237807095492304  0.9017402175544331  1.0000
  H   H26       1.0  0.1729343022982162  0.9916857149753754  0.8222004706474948  1.0000
  H   H27       1.0  0.17750534734960136  0.878247363231715  0.04498757874455352  1.0000
  H   H28       1.0  0.15598670204477094  0.8284990062376139  0.9743951006447489  1.0000
  H   H29       1.0  0.8500356008484785  0.9389968574365072  0.07999606213034834  1.0000
  H   H30       1.0  0.9592559991487802  0.8435827091567276  0.016755987860768953  1.0000
  H   H31       1.0  0.9941181793586578  0.9846416506034431  0.8441949346757414  1.0000
  H   H32       1.0  0.8676566943375406  0.07289139277657604  0.9009277614573961  1.0000
  H   H33       1.0  0.5060911841379153  0.4239221275879077  0.763598279284352  1.0000
  H   H34       1.0  0.5820058843722933  0.30561850305839033  0.7227931831742679  1.0000
  H   H35       1.0  0.40640205958912645  0.3029880083890505  0.7387368031060505  1.0000
  H   H36       1.0  0.332021875151547  0.4254175822607138  0.7721753526048615  1.0000
  C   C1        1.0  0.6959790126516195  0.4981733116377852  0.8010511423414781  1.0000
  C   C2        1.0  0.0076443283543951215  0.7946420207604987  0.5108458817488851  1.0000
  C   C3        1.0  0.3037906002882166  0.5037692936128054  0.20029884866195152  1.0000
  C   C4        1.0  0.9986611841271439  0.20070511787736925  0.5014376916693023  1.0000
  C   C5        1.0  0.0043742813613718914  0.18917853036697352  0.7987474290217733  1.0000
  C   C6        1.0  0.6921381765835477  0.5198963076238314  0.49548059499515057  1.0000
  C   C7        1.0  0.0066872792271296735  0.8069181070978148  0.189488937065299  1.0000
  C   C8        1.0  0.2962393206255386  0.5022597736515735  0.5116127764462988  1.0000
  C   C9        1.0  0.9998177417831043  0.4863036335131454  0.8117035752618591  1.0000
  C   C10       1.0  0.3018730643898165  0.19834031026594803  0.50459587263164  1.0000
  C   C11       1.0  0.017311509343564006  0.5105324156813822  0.1853200297025595  1.0000
  C   C12       1.0  0.7026406816690882  0.8083825034357587  0.49620701795300465  1.0000
  C   C13       1.0  0.6016657384965853  0.4903249435725243  0.9071506941056882  1.0000
  C   C14       1.0  0.4098807882529412  0.49423267852579045  0.10607104674324574  1.0000
  C   C15       1.0  0.5334035056216991  0.5852332662882915  0.9348931079292697  1.0000
  C   C16       1.0  0.48371186520704856  0.3940232141237203  0.08456240194254137  1.0000
  C   C17       1.0  0.44058969880767757  0.5878204066502376  0.0287282221010017  1.0000
  C   C18       1.0  0.5743239065718485  0.39267093925916186  0.9864448852364731  1.0000
  C   C19       1.0  0.5148891683676168  0.7077330437471617  0.8948117201451851  1.0000
  C   C20       1.0  0.40816547239546697  0.7116015219830633  0.9991757928235072  1.0000
  C   C21       1.0  0.9962925730396393  0.09767678589491176  0.5090384368915579  1.0000
  C   C22       1.0  0.0077702537679228125  0.8920463923578408  0.5169864289059234  1.0000
  C   C23       1.0  0.06480277126621564  0.05560714518423992  0.42312560620526807  1.0000
  C   C24       1.0  0.9435709128025987  0.9292380182722795  0.6083237255640198  1.0000
  C   C25       1.0  0.06753104238415339  0.9595122401000893  0.42525983317102595  1.0000
  C   C26       1.0  0.9307305152390627  0.033021577747781986  0.6016981292520568  1.0000
  C   C27       1.0  0.1459309380391716  0.0798852491380231  0.3069037673685031  1.0000
  C   C28       1.0  0.14817319144040633  0.9716571060031995  0.309092901410402  1.0000
  C   C29       1.0  0.6080658320627207  0.9149319715571378  0.4903452796276539  1.0000
  C   C30       1.0  0.410122126468643  0.1070693203462057  0.49510039741418405  1.0000
  C   C31       1.0  0.5247583933150248  0.933459208348246  0.45885543341644563  1.0000
  C   C32       1.0  0.4981753283319107  0.09500204153700754  0.5181719088905226  1.0000
  C   C33       1.0  0.4294940464197979  0.025710687742183328  0.4613805590224231  1.0000
  C   C34       1.0  0.5943540644749136  0.001307158013226365  0.5161894876587921  1.0000
  C   C35       1.0  0.4898992221933297  0.8867072535663639  0.4163633500921478  1.0000
  C   C36       1.0  0.381724399575077  0.9912383580981654  0.4192858442048645  1.0000
  C   C37       1.0  0.025853235219201832  0.5039564440387495  0.08385314950590582  1.0000
  C   C38       1.0  0.005121254024927981  0.4786162380687316  0.9135118731859111  1.0000
  C   C39       1.0  0.9397951545139447  0.5727351217754374  0.04012209108244481  1.0000
  C   C40       1.0  0.0925197706170734  0.40410392504242054  0.959408357268309  1.0000
  C   C41       1.0  0.9272792836344409  0.5583021519249343  0.9619445250600194  1.0000
  C   C42       1.0  0.10641186130990818  0.42040574269577763  0.03690869879525851  1.0000
  C   C43       1.0  0.8358957604074319  0.6712955672605146  0.04718717097158968  1.0000
  C   C44       1.0  0.8126179391529929  0.6429461962216011  0.9737805911382295  1.0000
  C   C45       1.0  0.9605608849278723  0.012888509504435335  0.1102974681650294  1.0000
  C   C46       1.0  0.9495211305698064  0.11783556402935594  0.004461958038604067  1.0000
  C   C47       1.0  0.007187682373448448  0.08351813004600231  0.9012576826027824  1.0000
  C   C48       1.0  0.12578751021123946  0.008144080642459544  0.9001792415756495  1.0000
  C   C49       1.0  0.12474397327670746  0.8983987200483413  0.0010689334472288603  1.0000
  C   C50       1.0  0.007395683237646271  0.9075174695185099  0.08243982031284255  1.0000
  C   C51       1.0  0.9356619846468205  0.9219398859384781  0.025886931541655857  1.0000
  C   C52       1.0  0.9477834093525034  0.01714545092007571  0.9122468953970397  1.0000
  C   C53       1.0  0.5890270434972038  0.5242012372880682  0.49604955823891567  1.0000
  C   C54       1.0  0.39894626979576475  0.5057966685915078  0.5034345575485729  1.0000
  C   C55       1.0  0.5270027163899087  0.46041228322095423  0.5905025134009209  1.0000
  C   C56       1.0  0.4650534748160168  0.5652852342218965  0.4043795848498987  1.0000
  C   C57       1.0  0.43327158047880926  0.4556234418638568  0.5955813249206798  1.0000
  C   C58       1.0  0.5502659985235712  0.5825274623671958  0.4037537809524636  1.0000
  C   C59       1.0  0.5160861991669279  0.3862711319962743  0.7108054926682144  1.0000
  C   C60       1.0  0.407611976620572  0.3846218152831327  0.7178170903386843  1.0000
  Br  Br1       1.0  0.46814453851166604  0.25572611149326013  0.19539436491065493  1.0000
  Br  Br2       1.0  0.6634287507459786  0.25450024641538266  0.9643962237770651  1.0000
  Br  Br3       1.0  0.8810300314820619  0.8338009060771653  0.7479104906984517  1.0000
  Br  Br4       1.0  0.8189224241061552  0.08300122471486318  0.7200155763050445  1.0000
  Br  Br5       1.0  0.4905596000289735  0.2132859036578835  0.5408340168920489  1.0000
  Br  Br6       1.0  0.7124774307813405  0.994822383483019  0.5390295246634975  1.0000
  Br  Br7       1.0  0.18604390565600673  0.270370809946627  0.9288522653952924  1.0000
  Br  Br8       1.0  0.24104948747881844  0.3342420782603242  0.0689895331877253  1.0000
  Br  Br9       1.0  0.44908655559058974  0.6129435320363185  0.26568451448158464  1.0000
  Br  Br10      1.0  0.6073553825806499  0.6914254196153066  0.2752420528270178  1.0000
  O   O1        1.0  0.732732817483253  0.42851751521727277  0.7555018887426854  1.0000
  O   O2        1.0  0.07966837216363833  0.7657064773947511  0.4278008040627768  1.0000
  O   O3        1.0  0.2650354601718519  0.5837712056006693  0.23367421111538525  1.0000
  O   O4        1.0  0.9222715188589844  0.2463393987629632  0.5715940550765951  1.0000
  O   O5        1.0  0.07857286760486913  0.23040055023544445  0.7617951328180438  1.0000
  O   O6        1.0  0.7364312113805623  0.5932282861143108  0.4185072040700318  1.0000
  O   O7        1.0  0.9292436394856762  0.7683945763327176  0.2316191949929234  1.0000
  O   O8        1.0  0.26148171571288964  0.42276959644934214  0.5894798045309954  1.0000
  O   O9        1.0  0.9207040639509  0.5652047140397299  0.7760634453003519  1.0000
  O   O10       1.0  0.25826444389500114  0.2335830632123432  0.4318697638555448  1.0000
  O   O11       1.0  0.08412788530525017  0.4303978962117938  0.23702818895275612  1.0000
  O   O12       1.0  0.7371386277175134  0.7610742008939225  0.5785109282127223  1.0000
  O   O13       1.0  0.26014696932893605  0.23227359550538307  0.5842901075943843  1.0000
  O   O14       1.0  0.9395996024051954  0.5899065412066449  0.21775263174061618  1.0000
  O   O15       1.0  0.7387790593923143  0.7722770913857531  0.4191031664740949  1.0000
  O   O16       1.0  0.07705289812882635  0.41785662426779163  0.7641663055182661  1.0000
  O   O17       1.0  0.927348037762414  0.23218690227908903  0.7584900135615699  1.0000
  O   O18       1.0  0.24972068045056514  0.5818511216778078  0.43981748526599773  1.0000
  O   O19       1.0  0.08070278092497299  0.768749110636648  0.23226523101669735  1.0000
  O   O20       1.0  0.7299746177869652  0.4386661498323009  0.5730075999397357  1.0000
  O   O21       1.0  0.07772766323648024  0.23561243408628474  0.4250592415729741  1.0000
  O   O22       1.0  0.7323284677692498  0.5764270051214311  0.7637357394137325  1.0000
  O   O23       1.0  0.9333717258607591  0.7515551590791034  0.584096728172156  1.0000
  O   O24       1.0  0.2587255239973202  0.4326044551096758  0.23844612282272235  1.0000
  O   O25       1.0  0.9329107162354545  0.4418376242507521  0.42788871863396594  1.0000
  O   O26       1.0  0.2018364524396431  0.4342126043096216  0.43707609132490427  1.0000
  O   O27       1.0  0.9350927754592815  0.7054667851016279  0.4324893932140128  1.0000
  O   O28       1.0  0.9310731183655744  0.43094036562746424  0.7023337729637049  1.0000
  O   O29       1.0  0.048092682928554904  0.5484109033631271  0.5523977560835363  1.0000
  O   O30       1.0  0.8535511789881909  0.554171526264568  0.5459021531373554  1.0000
  O   O31       1.0  0.05107076102515124  0.5544392994958544  0.3517600859031731  1.0000
  O   O32       1.0  0.04804298568200232  0.3536134361413731  0.5503236215867204  1.0000
