data_image0
_chemical_formula_structural       Cu12Si3H36C60N60
_chemical_formula_sum              "Cu12 Si3 H36 C60 N60"
_cell_length_a       23.43394673200727
_cell_length_b       23.542574707458602
_cell_length_c       24.46425491544658
_cell_angle_alpha    89.99076621661642
_cell_angle_beta     90.78389098608635
_cell_angle_gamma    89.83298107789282

_space_group_name_H-M_alt    "P 1"
_space_group_IT_number       1

loop_
  _space_group_symop_operation_xyz
  'x, y, z'

loop_
  _atom_site_type_symbol
  _atom_site_label
  _atom_site_symmetry_multiplicity
  _atom_site_fract_x
  _atom_site_fract_y
  _atom_site_fract_z
  _atom_site_occupancy
  Cu  Cu1       1.0  0.18721369417449552  0.8620717052286652  0.7726290418915979  1.0000
  Cu  Cu2       1.0  0.09788599855050958  0.7599418329130501  0.7645917899305631  1.0000
  Cu  Cu3       1.0  0.1656979523875819  0.7860275963341936  0.8752599306367658  1.0000
  Cu  Cu4       1.0  0.26801835263756146  0.1331291709591795  0.2336137790489943  1.0000
  Cu  Cu5       1.0  0.1649277765700958  0.2200727314226256  0.2260567260949244  1.0000
  Cu  Cu6       1.0  0.27619624496190204  0.24379080017102683  0.1590678910944803  1.0000
  Cu  Cu7       1.0  0.7790211275070789  0.1293614381700507  0.7609295265299353  1.0000
  Cu  Cu8       1.0  0.8746079799379274  0.22269375228972876  0.791624869462531  1.0000
  Cu  Cu9       1.0  0.7683909217732535  0.20407292379137934  0.8677524895834879  1.0000
  Cu  Cu10      1.0  0.7744681492328098  0.8870918847292303  0.2072431320991086  1.0000
  Cu  Cu11      1.0  0.8777253530942487  0.7990887330559391  0.22421541306761134  1.0000
  Cu  Cu12      1.0  0.7792416198328028  0.7740241432112639  0.1375573058459025  1.0000
  Si  Si1       1.0  0.9954776132870222  0.48769957080516224  0.0228044777511514  1.0000
  Si  Si2       1.0  0.004283027288053599  0.020329769946627597  0.49274850554466815  1.0000
  Si  Si3       1.0  0.4898587151748829  0.9892028303418666  0.9761041697937786  1.0000
  H   H1        1.0  0.15114529595820866  0.932996465605662  0.6687284109270449  1.0000
  H   H2        1.0  0.0346042003479212  0.7913382287479321  0.651938332303466  1.0000
  H   H3        1.0  0.2582587119739586  0.8354612420300997  0.9589022652935244  1.0000
  H   H4        1.0  0.3009650021922567  0.9270722005839003  0.8114148299383076  1.0000
  H   H5        1.0  0.0394416288457506  0.6413355384488426  0.7969850773981975  1.0000
  H   H6        1.0  0.1171500868632691  0.6904639630395552  0.9515997053682029  1.0000
  H   H7        1.0  0.23057816137897902  0.059340109051802904  0.33728499984658106  1.0000
  H   H8        1.0  0.0863857152752914  0.17393425368869225  0.32019049114978776  1.0000
  H   H9        1.0  0.38617950351317637  0.21614431532860584  0.0916481908322524  1.0000
  H   H10       1.0  0.36199852244071457  0.056467833843619496  0.17621232618596142  1.0000
  H   H11       1.0  0.0800265499698156  0.3094113848427966  0.1708330793916844  1.0000
  H   H12       1.0  0.2384242067990243  0.35539930075784565  0.0930872152637718  1.0000
  H   H13       1.0  0.8306525541307794  0.07905336306981782  0.6532756831242637  1.0000
  H   H14       1.0  0.9593963388020085  0.2049657181745843  0.6923384416119233  1.0000
  H   H15       1.0  0.6570092075814387  0.1535071150221299  0.9183693221550869  1.0000
  H   H16       1.0  0.6685240759375687  0.049077018624068096  0.7730814140894324  1.0000
  H   H17       1.0  0.9400026597893715  0.3205538565553354  0.857149214324764  1.0000
  H   H18       1.0  0.7938541115062846  0.2953828514510164  0.9609964073821189  1.0000
  H   H19       1.0  0.8009692784025191  0.973649812093562  0.3038630614257869  1.0000
  H   H20       1.0  0.9439156996748325  0.857813376647208  0.3226449008592597  1.0000
  H   H21       1.0  0.671566159853036  0.7917398661590269  0.0587202730160428  1.0000
  H   H22       1.0  0.6696118856046384  0.950064994323618  0.1489596213738267  1.0000
  H   H23       1.0  0.961239591918897  0.6936084119751487  0.2009791875919902  1.0000
  H   H24       1.0  0.8212184794562774  0.6573168747286502  0.0888610278335662  1.0000
  H   H25       1.0  0.09162270448976528  0.9889267768428098  0.5839720767010377  1.0000
  H   H26       1.0  0.0300238167544506  0.10874779753353178  0.4028936862539467  1.0000
  H   H27       1.0  0.9020125250276508  0.038856171980413  0.5683195745231444  1.0000
  H   H28       1.0  0.9863097100411481  0.9267710784996697  0.40827753071336303  1.0000
  H   H29       1.0  0.4141121973743012  0.9526794159335948  0.8696583230472257  1.0000
  H   H30       1.0  0.5771842569238358  0.9872850323669908  0.074608880948432  1.0000
  H   H31       1.0  0.4117583085953243  0.0052471052123977  0.0745672654746485  1.0000
  H   H32       1.0  0.5751217626629526  0.0847259754889009  0.9579084492558111  1.0000
  H   H33       1.0  0.06621773566023849  0.5951167428751489  0.0008961860415439999  1.0000
  H   H34       1.0  0.9796563262236263  0.4041456488447182  0.928990095193143  1.0000
  H   H35       1.0  0.8904344754291955  0.5659402578265613  0.0450843538074963  1.0000
  H   H36       1.0  0.023003344911465697  0.3917985147586478  0.10508275449337388  1.0000
  C   C1        1.0  0.126699166954964  0.8941497319058698  0.6724909389969442  1.0000
  C   C2        1.0  0.08185086958460629  0.8733951579277104  0.639696962640059  1.0000
  C   C3        1.0  0.0672778063346939  0.8215107453934394  0.6640614503628228  1.0000
  C   C4        1.0  0.2604061506832096  0.8536028667798377  0.9182499812814342  1.0000
  C   C5        1.0  0.3007116486881857  0.8914398797357135  0.8971279834237508  1.0000
  C   C6        1.0  0.2828394127982961  0.9003639794593283  0.8428448441579093  1.0000
  C   C7        1.0  0.062376780152526096  0.6616882017236706  0.8304004999825949  1.0000
  C   C8        1.0  0.06790955847377228  0.6445296412662743  0.8852034087889749  1.0000
  C   C9        1.0  0.1019192697190761  0.686616491883264  0.9096695485658091  1.0000
  C   C10       1.0  0.1999507828831923  0.0918250483151297  0.3254259160204711  1.0000
  C   C11       1.0  0.14693800740916876  0.10477768575766079  0.3484891807765322  1.0000
  C   C12       1.0  0.1259182990689354  0.1501473407966003  0.3168709870334681  1.0000
  C   C13       1.0  0.3733362851441981  0.1817459133063508  0.11822745639037183  1.0000
  C   C14       1.0  0.39226269794921365  0.12518919335776954  0.1192167102552233  1.0000
  C   C15       1.0  0.36073686606020783  0.09972242188408839  0.1608840529527527  1.0000
  C   C16       1.0  0.12352006698544221  0.3134091070768434  0.1566806237484428  1.0000
  C   C17       1.0  0.14660058575994128  0.3514041868198987  0.1187642190066782  1.0000
  C   C18       1.0  0.20471463643227134  0.33687406849770696  0.1171794330195155  1.0000
  C   C19       1.0  0.8570580556115459  0.11248579711337209  0.6705613179648894  1.0000
  C   C20       1.0  0.9088675872271637  0.1348442875148734  0.6523215503442898  1.0000
  C   C21       1.0  0.9226269370782063  0.1771071643431839  0.6907210092863494  1.0000
  C   C22       1.0  0.6680866699294015  0.1328226652044862  0.8803126916972844  1.0000
  C   C23       1.0  0.6412341650221265  0.08771234885308839  0.8527453312659505  1.0000
  C   C24       1.0  0.6740080702914781  0.07976423408216249  0.8057692911047597  1.0000
  C   C25       1.0  0.9010054851940622  0.30709735927423754  0.8766893562471197  1.0000
  C   C26       1.0  0.8758422459719527  0.3267041928074263  0.9249452997018466  1.0000
  C   C27       1.0  0.826105578322519  0.2941343107984409  0.9296434771795462  1.0000
  C   C28       1.0  0.8323684391411915  0.9399204977490571  0.3007711691477866  1.0000
  C   C29       1.0  0.8815088270266571  0.9301291609259792  0.33282565057142227  1.0000
  C   C30       1.0  0.9056362797396034  0.8808553898195799  0.31047731795693073  1.0000
  C   C31       1.0  0.6791812143721145  0.8270378317600305  0.086298205322997  1.0000
  C   C32       1.0  0.6500189712471779  0.8790756814689116  0.0894865664503257  1.0000
  C   C33       1.0  0.677884425395618  0.9082860752408025  0.1320775127778546  1.0000
  C   C34       1.0  0.9221219515561004  0.6932713634732794  0.17677649520747  1.0000
  C   C35       1.0  0.9040367582533052  0.6537901346445735  0.13718373004420673  1.0000
  C   C36       1.0  0.8507836913779484  0.6743637224113286  0.11915544318173941  1.0000
  C   C37       1.0  0.0545654552237949  0.9010547172721884  0.5934389662474615  1.0000
  C   C38       1.0  0.0624837006718266  0.9551010287268654  0.5727915752768169  1.0000
  C   C39       1.0  0.12028359505187321  0.0765767193986377  0.3939603625829165  1.0000
  C   C40       1.0  0.065908655295587  0.08203482071854039  0.4145676417397582  1.0000
  C   C41       1.0  0.94204735127726  0.11702918610599511  0.605928474698338  1.0000
  C   C42       1.0  0.9344945262953744  0.07143776799591002  0.5710375354375331  1.0000
  C   C43       1.0  0.9024474103158368  0.9635674974106578  0.3783709062667882  1.0000
  C   C44       1.0  0.951911592798119  0.957565845244453  0.40916312018136836  1.0000
  C   C45       1.0  0.3490445687709709  0.9146021435179961  0.9269090131321606  1.0000
  C   C46       1.0  0.39777932767322  0.9420094584455898  0.9095648398032596  1.0000
  C   C47       1.0  0.6030232443516894  0.8971713740940856  0.054697683092072714  1.0000
  C   C48       1.0  0.5735908107453156  0.9480647216977048  0.0516765485684019  1.0000
  C   C49       1.0  0.4307420707797363  0.09927223467854418  0.0807933745495717  1.0000
  C   C50       1.0  0.43442157746235915  0.043530067207690606  0.0634938226326085  1.0000
  C   C51       1.0  0.5926266764442473  0.0558043647203661  0.871630001814019  1.0000
  C   C52       1.0  0.5675395237749044  0.0584030773429802  0.9222822007209501  1.0000
  C   C53       1.0  0.0432770388134145  0.5952082093573096  0.9108599993738409  1.0000
  C   C54       1.0  0.04524537623155571  0.5778397427306102  0.9648478974170943  1.0000
  C   C55       1.0  0.8962377848479974  0.37103000131995856  0.961108394376062  1.0000
  C   C56       1.0  0.945409439475938  0.40299508105135834  0.9582303860982578  1.0000
  C   C57       1.0  0.9354688995466772  0.6048705598390214  0.11816426690896982  1.0000
  C   C58       1.0  0.9250630592156526  0.5685451752118454  0.0747820342217054  1.0000
  C   C59       1.0  0.11722973315529121  0.39470858731812797  0.08713570883222842  1.0000
  C   C60       1.0  0.0598873371257156  0.40845231022893813  0.0842460924175299  1.0000
  N   N1        1.0  0.10091542658194193  0.8123816464854982  0.708396878146857  1.0000
  N   N2        1.0  0.13784041341097006  0.8574216216823912  0.7135220018801436  1.0000
  N   N3        1.0  0.235307497893146  0.8698258967999948  0.8324418858241103  1.0000
  N   N4        1.0  0.2215526247584663  0.8408116801481852  0.879184851382739  1.0000
  N   N5        1.0  0.1155609553617367  0.7260052795373894  0.8721432318560218  1.0000
  N   N6        1.0  0.09104974295352262  0.7105962574766453  0.8229689644889221  1.0000
  N   N7        1.0  0.16372279301189957  0.1632014014530441  0.2778400211158498  1.0000
  N   N8        1.0  0.2095967392508413  0.126989104644835  0.2831080925948513  1.0000
  N   N9        1.0  0.3252479345468444  0.13842724481643387  0.1828531348142235  1.0000
  N   N10       1.0  0.3329090749679295  0.18924997252735662  0.1562117939559471  1.0000
  N   N11       1.0  0.21525865443008033  0.2932882367986238  0.1516590779349585  1.0000
  N   N12       1.0  0.1648970869420765  0.2787674268339799  0.17616908378789728  1.0000
  N   N13       1.0  0.8818648455758832  0.1795326219249702  0.7290381037558475  1.0000
  N   N14       1.0  0.8411482256790919  0.13950219251770332  0.7164701541085636  1.0000
  N   N15       1.0  0.7173749728338664  0.11738748515792713  0.805697420195763  1.0000
  N   N16       1.0  0.7135947286549824  0.1502691781376626  0.8519135192140583  1.0000
  N   N17       1.0  0.822083872076732  0.2578486864502381  0.8871323515448709  1.0000
  N   N18       1.0  0.8684947553513496  0.2658737641336018  0.8542904720658983  1.0000
  N   N19       1.0  0.8731433670939313  0.8626375178694518  0.268154157628814  1.0000
  N   N20       1.0  0.8277553210822788  0.8993312963995662  0.26211787615915944  1.0000
  N   N21       1.0  0.7206456608200897  0.8759329473501936  0.152621319696145  1.0000
  N   N22       1.0  0.721404564183949  0.8256156447935511  0.12417592773593362  1.0000
  N   N23       1.0  0.8382038846227218  0.7226712527229966  0.14602900071262334  1.0000
  N   N24       1.0  0.8824388166728383  0.7344313683375391  0.1817026422832342  1.0000
  N   N25       1.0  0.9926749691354075  0.9103067258143795  0.5257061400702838  1.0000
  N   N26       1.0  0.011617641406402902  0.8757463979553677  0.5628870902449918  1.0000
  N   N27       1.0  0.023891080067698998  0.9605297514483837  0.530714682281733  1.0000
  N   N28       1.0  0.1154183485665357  0.0156866980788095  0.4618213971512475  1.0000
  N   N29       1.0  0.1485082324671794  0.0356153803382  0.4246036168004323  1.0000
  N   N30       1.0  0.0632861376278697  0.0440510719697613  0.45679478957816144  1.0000
  N   N31       1.0  0.013984805690626  0.11966192792340283  0.5491806959568208  1.0000
  N   N32       1.0  0.9910910339019595  0.14498258679770967  0.5903969436963266  1.0000
  N   N33       1.0  0.979234006009655  0.0735072729613577  0.53568841798905  1.0000
  N   N34       1.0  0.9009872332850223  0.0324349307012  0.4390926285195392  1.0000
  N   N35       1.0  0.873049566161434  0.0098777346502814  0.3985954136992333  1.0000
  N   N36       1.0  0.950565872844784  0.0003818052723829999  0.4468787750187246  1.0000
  N   N37       1.0  0.3987474123609758  0.9331450930187727  0.0012446028199662013  1.0000
  N   N38       1.0  0.3519984064335305  0.9104090304980306  0.9832456419728288  1.0000
  N   N39       1.0  0.4282044085113626  0.9534167216788563  0.9563665118049727  1.0000
  N   N40       1.0  0.5395617035726801  0.8868759340961746  0.9885260942081686  1.0000
  N   N41       1.0  0.580296109816821  0.8614453940068499  0.015148696599794698  1.0000
  N   N42       1.0  0.5339638534271032  0.9409051659531044  0.010544403377025403  1.0000
  N   N43       1.0  0.4932452137217851  0.0988990563939112  0.014868537467819503  1.0000
  N   N44       1.0  0.46787628416183935  0.13102994140935206  0.04993407945254091  1.0000
  N   N45       1.0  0.4733044451587887  0.04370988825002091  0.0221830619873487  1.0000
  N   N46       1.0  0.523207693773422  0.993231960159015  0.8694582890298719  1.0000
  N   N47       1.0  0.563648286319342  0.015538273013106592  0.8409980309828313  1.0000
  N   N48       1.0  0.5240361780555816  0.019727816709682603  0.9205613806091151  1.0000
  N   N49       1.0  0.9928603993442168  0.516799258272158  0.9143121039744102  1.0000
  N   N50       1.0  0.010856944116078198  0.5561746901022816  0.8820162005871807  1.0000
  N   N51       1.0  0.013651553907855897  0.5291746490247319  0.9666402585606946  1.0000
  N   N52       1.0  0.8937849546597575  0.4298128253068115  0.030975779169757803  1.0000
  N   N53       1.0  0.8664600503906996  0.3893013254530687  0.006305450014430405  1.0000
  N   N54       1.0  0.9434734976132901  0.4395622091833786  0.0016043881093778993  1.0000
  N   N55       1.0  0.007929304303942801  0.5453849619072599  0.11724141661624544  1.0000
  N   N56       1.0  0.9864992634190557  0.5884342476133996  0.1425772544627364  1.0000
  N   N57       1.0  0.9701662329533105  0.5313988520495628  0.0746289359907024  1.0000
  N   N58       1.0  0.10965379530357922  0.4639313790146176  0.027113571814098205  1.0000
  N   N59       1.0  0.1454193454380643  0.43004605627914566  0.051365598427374  1.0000
  N   N60       1.0  0.055602173219348607  0.4513702574553378  0.0467277893284717  1.0000
