data_image0
_chemical_formula_structural       Cu4P4H20C20N4Cl4O16
_chemical_formula_sum              "Cu4 P4 H20 C20 N4 Cl4 O16"
_cell_length_a       6.894885352817663
_cell_length_b       6.922861292320933
_cell_length_c       17.39078039131484
_cell_angle_alpha    90.00030832241586
_cell_angle_beta     91.02593544417691
_cell_angle_gamma    89.99582811211056

_space_group_name_H-M_alt    "P 1"
_space_group_IT_number       1

loop_
  _space_group_symop_operation_xyz
  'x, y, z'

loop_
  _atom_site_type_symbol
  _atom_site_label
  _atom_site_symmetry_multiplicity
  _atom_site_fract_x
  _atom_site_fract_y
  _atom_site_fract_z
  _atom_site_occupancy
  Cu  Cu1       1.0  0.5000374272510157  5.966769847999996e-06  0.9999966951154065  1.0000
  Cu  Cu2       1.0  0.5000267499587353  0.49999769056432813  0.4999929605880169  1.0000
  Cu  Cu3       1.0  3.9131173437599984e-05  0.9999998136502415  4.687582084299999e-06  1.0000
  Cu  Cu4       1.0  2.6766248744497047e-05  0.49999364545540464  0.500003528769227  1.0000
  P   P1        1.0  0.24073972285022896  0.2956058171040041  0.9213834918183608  1.0000
  P   P2        1.0  0.7592678357646108  0.7956172567797213  0.5786047319521259  1.0000
  P   P3        1.0  0.7592971239156299  0.7044097874760669  0.0786217703525409  1.0000
  P   P4        1.0  0.24075928992427723  0.2043723470915637  0.4213883301308172  1.0000
  H   H1        1.0  0.19156256236322383  0.37851456445131504  0.7534982922794313  1.0000
  H   H2        1.0  0.8083685401696316  0.8785358986626548  0.7464925333460215  1.0000
  H   H3        1.0  0.8084102395221535  0.6215010417042423  0.24651248208056842  1.0000
  H   H4        1.0  0.1915553993944528  0.12145226321051442  0.25350496859508803  1.0000
  H   H5        1.0  0.2088122381974316  0.1672332363649858  0.6375855206719263  1.0000
  H   H6        1.0  0.7911133917983477  0.6672578428777173  0.8624095233316496  1.0000
  H   H7        1.0  0.7911273877774647  0.8327910374538092  0.3624196565504718  1.0000
  H   H8        1.0  0.2087859308423319  0.3327404309891549  0.1375865157309946  1.0000
  H   H9        1.0  0.2843507616413916  0.8136767799849454  0.656247027182026  1.0000
  H   H10       1.0  0.7155866412661781  0.3137090886729226  0.843746082830769  1.0000
  H   H11       1.0  0.7155688667043519  0.18633016034027614  0.3437492698531344  1.0000
  H   H12       1.0  0.2843721296748143  0.6862718499265628  0.1562512865321608  1.0000
  H   H13       1.0  0.3129263623584323  0.6864151287138329  0.7916685801854371  1.0000
  H   H14       1.0  0.6870641202684451  0.18643292151120514  0.7083267410232992  1.0000
  H   H15       1.0  0.6870396588527116  0.3136048109296894  0.2083288813146567  1.0000
  H   H16       1.0  0.31296147322705536  0.8135509044627797  0.2916686018894339  1.0000
  H   H17       1.0  0.24838681618663117  0.6313250768597881  0.9093755650977258  1.0000
  H   H18       1.0  0.7516236566023267  0.1313243182000434  0.5906182032962946  1.0000
  H   H19       1.0  0.7516458231904793  0.3686833053295757  0.0906256180930001  1.0000
  H   H20       1.0  0.2484133969695037  0.8686566185677619  0.4093813107281434  1.0000
  C   C1        1.0  0.23513759185457425  0.14838698988518934  0.8335644229116568  1.0000
  C   C2        1.0  0.7648653581793851  0.6483928017866489  0.6664304253187083  1.0000
  C   C3        1.0  0.7648775606536019  0.8516127258037899  0.1664388384166173  1.0000
  C   C4        1.0  0.23512238035903013  0.3515910251215857  0.33356846220380015  1.0000
  C   C5        1.0  0.21566426194156207  0.22399268866166008  0.759514286586743  1.0000
  C   C6        1.0  0.7843007650668526  0.7240049251343308  0.7404807668419193  1.0000
  C   C7        1.0  0.784307212636662  0.7760214729991902  0.24049302046105941  1.0000
  C   C8        1.0  0.21564196858997056  0.27598468080387306  0.2595186990870886  1.0000
  C   C9        1.0  0.22704657624657193  0.10606939418718755  0.6948127909979646  1.0000
  C   C10       1.0  0.7728792120425041  0.6060878746318819  0.8051838897132271  1.0000
  C   C11       1.0  0.7728901074769539  0.8939621021602734  0.305193499000687  1.0000
  C   C12       1.0  0.2270505703644972  0.3938988426020487  0.19481253630537046  1.0000
  C   C13       1.0  0.26788831100510174  0.9108614913909464  0.705030881489236  1.0000
  C   C14       1.0  0.7320424258046146  0.4108862091596563  0.7949622876656335  1.0000
  C   C15       1.0  0.7320441860529384  0.0891584490909096  0.2949707547144911  1.0000
  C   C16       1.0  0.2679178569620149  0.589097618364825  0.205033375681424  1.0000
  C   C17       1.0  0.284411820328387  0.8371221384337275  0.7786645700226558  1.0000
  C   C18       1.0  0.7155666651348866  0.3371431894885718  0.7213325470477797  1.0000
  C   C19       1.0  0.7155526073017029  0.1628891343533283  0.22133689674964774  1.0000
  C   C20       1.0  0.2844400725958068  0.6628420814189724  0.27866255632012843  1.0000
  N   N1        1.0  0.260143511823216  0.9523647430538843  0.8412218007741286  1.0000
  N   N2        1.0  0.7398556413172415  0.45237465201739013  0.6587728740391583  1.0000
  N   N3        1.0  0.7398571567440512  0.04763641745959289  0.1587807014746971  1.0000
  N   N4        1.0  0.2601583692554997  0.5476077297338904  0.3412217466468661  1.0000
  Cl  Cl1       1.0  0.2520813706062555  0.0032436405146825  0.0901992163604177  1.0000
  Cl  Cl2       1.0  0.7480068796759126  0.503238073483317  0.4097989143010707  1.0000
  Cl  Cl3       1.0  0.7480150677451861  0.996760406709747  0.9098033524116926  1.0000
  Cl  Cl4       1.0  0.25206947886436387  0.49675152925270544  0.5901970735411339  1.0000
  O   O1        1.0  0.4337938720494349  0.2588856502816981  0.9628232443302736  1.0000
  O   O2        1.0  0.566229049001386  0.7588880242937891  0.537161094729754  1.0000
  O   O3        1.0  0.5662697389185353  0.7411299534730986  0.0371639554623471  1.0000
  O   O4        1.0  0.4338100282206269  0.24111457959740085  0.46282234292474556  1.0000
  O   O5        1.0  0.23666534839254894  0.5007995671847993  0.8831888954270538  1.0000
  O   O6        1.0  0.7632856774756576  0.0008031426032602  0.6167975987470982  1.0000
  O   O7        1.0  0.7633380976354404  0.4992088157469822  0.1168170925611633  1.0000
  O   O8        1.0  0.2367326433199963  0.9991806835481186  0.3831982268471989  1.0000
  O   O9        1.0  0.057238697689875606  0.26138780211785223  0.9668938711173565  1.0000
  O   O10       1.0  0.9427919821419124  0.7613939173607777  0.5331101227606609  1.0000
  O   O11       1.0  0.9428149800529864  0.7386278022363018  0.033127706970958584  1.0000
  O   O12       1.0  0.0572577767735893  0.2385855747218599  0.46689932894468456  1.0000
  O   O13       1.0  0.2616161477645278  0.8733056533811451  0.9112057773729774  1.0000
  O   O14       1.0  0.7384225952887673  0.3733184825005296  0.5887921587630487  1.0000
  O   O15       1.0  0.7384193924885379  0.12670272873988614  0.0887954426708149  1.0000
  O   O16       1.0  0.26161018886674725  0.6266653433223582  0.4112050007251185  1.0000
