data_image0
_chemical_formula_structural       Zn4H28C40N4O20
_chemical_formula_sum              "Zn4 H28 C40 N4 O20"
_cell_length_a       6.459059168750994
_cell_length_b       11.552912488834004
_cell_length_c       13.279874165037027
_cell_angle_alpha    88.90688349173902
_cell_angle_beta     80.04549433687137
_cell_angle_gamma    80.02909282780662

_space_group_name_H-M_alt    "P 1"
_space_group_IT_number       1

loop_
  _space_group_symop_operation_xyz
  'x, y, z'

loop_
  _atom_site_type_symbol
  _atom_site_label
  _atom_site_symmetry_multiplicity
  _atom_site_fract_x
  _atom_site_fract_y
  _atom_site_fract_z
  _atom_site_occupancy
  Zn  Zn1       1.0  0.07140638922864885  0.6522505914813905  0.8015154419077393  1.0000
  Zn  Zn2       1.0  0.928588037660532  0.34774517998752685  0.19848319711014992  1.0000
  Zn  Zn3       1.0  0.7225639403126677  0.0363952003925547  0.9080966382486796  1.0000
  Zn  Zn4       1.0  0.2774372106089231  0.9636040768815659  0.0919074167781915  1.0000
  H   H1        1.0  0.1176260717996414  0.029643351204867902  0.793475264611331  1.0000
  H   H2        1.0  0.8823792640233136  0.970357675076528  0.206527665954063  1.0000
  H   H3        1.0  0.5018924060404686  0.2791054332121377  0.7278824555409715  1.0000
  H   H4        1.0  0.49810639784004695  0.7208964810421035  0.2721179833169175  1.0000
  H   H5        1.0  0.12592273488781558  0.26311475661855616  0.8696527991514602  1.0000
  H   H6        1.0  0.8740842862092463  0.7368757245364037  0.13034866031581066  1.0000
  H   H7        1.0  0.2567509197194298  0.3930022232486721  0.012062264753005503  1.0000
  H   H8        1.0  0.74324347064465  0.6069935507312962  0.9879401423505672  1.0000
  H   H9        1.0  0.6140924195158989  0.39031016957240167  0.9216156377289693  1.0000
  H   H10       1.0  0.3858961298927924  0.6096943985178882  0.07838635046564951  1.0000
  H   H11       1.0  0.703330832618903  0.5161244174762489  0.7416644573659994  1.0000
  H   H12       1.0  0.2966645920644525  0.48387837871155165  0.258332478646075  1.0000
  H   H13       1.0  0.5602555782450266  0.4922082317928585  0.5838307500347855  1.0000
  H   H14       1.0  0.43974510516274284  0.5077927982742452  0.4161657842581334  1.0000
  H   H15       1.0  0.7021815194494962  0.5947411127484161  0.42191742836535445  1.0000
  H   H16       1.0  0.2978165028050554  0.4052634362196202  0.5780800191800923  1.0000
  H   H17       1.0  0.926350766908456  0.7432896452590468  0.34264711424872024  1.0000
  H   H18       1.0  0.0736512116323951  0.2567122614492803  0.6573500526194567  1.0000
  H   H19       1.0  0.20505976993554492  0.8601851388909129  0.3545118482888583  1.0000
  H   H20       1.0  0.7949453321305028  0.1398167637869818  0.6454873219095634  1.0000
  H   H21       1.0  0.4888519295563539  0.9085559533998264  0.45169505446370567  1.0000
  H   H22       1.0  0.5111411386177308  0.09144421310902835  0.5483043767648327  1.0000
  H   H23       1.0  0.6174169936311313  0.9070934461203493  0.6206118076508318  1.0000
  H   H24       1.0  0.3825758115659568  0.09290759879384317  0.3793868776792736  1.0000
  H   H25       1.0  0.4433723753493126  0.8020348272118268  0.7667516865482755  1.0000
  H   H26       1.0  0.5566251260930882  0.19796621090339533  0.2332488733514922  1.0000
  H   H27       1.0  0.1093715825184987  0.9319075045327808  0.8835403204722853  1.0000
  H   H28       1.0  0.8906334684124032  0.0680944016605878  0.11646412504608612  1.0000
  C   C1        1.0  0.46288651268907427  0.2320076775183324  0.799583660131603  1.0000
  C   C2        1.0  0.5371112517303231  0.767992482191559  0.2004176456665903  1.0000
  C   C3        1.0  0.2670617284665653  0.3052636420698888  0.8652516480673142  1.0000
  C   C4        1.0  0.7329395079520962  0.6947303620164363  0.13474872132224655  1.0000
  C   C5        1.0  0.33192805594731567  0.3104585745948754  0.9718621318924863  1.0000
  C   C6        1.0  0.6680705047080905  0.6895389493967982  0.02814065798387592  1.0000
  C   C7        1.0  0.5768588617340527  0.3025571824429889  0.9424000608509431  1.0000
  C   C8        1.0  0.42314151486659324  0.6974447290427149  0.0576002492463559  1.0000
  C   C9        1.0  0.4300926025288447  0.10971632775788011  0.7728389079516094  1.0000
  C   C10       1.0  0.5699211593738481  0.8902829253591307  0.22716110252206084  1.0000
  C   C11       1.0  0.21257873003379762  0.429217384394505  0.8228174045704364  1.0000
  C   C12       1.0  0.7874109275598613  0.5707783988954915  0.1771868960491503  1.0000
  C   C13       1.0  0.2753354677245596  0.207802048189464  0.03896196634256202  1.0000
  C   C14       1.0  0.7246675481142334  0.7921963459019424  0.9610396913536194  1.0000
  C   C15       1.0  0.7018286098728836  0.2541230465357032  0.026452710835805197  1.0000
  C   C16       1.0  0.29816806611342633  0.7458806293065834  0.9735493794543403  1.0000
  C   C17       1.0  0.7631143218688833  0.559361293481345  0.6716254156615946  1.0000
  C   C18       1.0  0.23688188444043592  0.4406388679926607  0.328374511662915  1.0000
  C   C19       1.0  0.6821473483788054  0.5466920655112305  0.5813985004859676  1.0000
  C   C20       1.0  0.3178509514627875  0.4533116040470446  0.41859818572363866  1.0000
  C   C21       1.0  0.7578966989462046  0.6038383049663949  0.49401915336633107  1.0000
  C   C22       1.0  0.2421031517004478  0.3961653633299775  0.5059796649341024  1.0000
  C   C23       1.0  0.9143772070403812  0.6747963097891372  0.49711503872973856  1.0000
  C   C24       1.0  0.08562975994287564  0.3252047097060426  0.5028817341379864  1.0000
  C   C25       1.0  0.9954886453135429  0.7413693452976774  0.412032018492063  1.0000
  C   C26       1.0  0.004515724098510507  0.2586299214172669  0.5879642428422898  1.0000
  C   C27       1.0  0.15024049307659473  0.8065897386175467  0.4187493693598087  1.0000
  C   C28       1.0  0.8497620406383318  0.19341040927126582  0.5812462748366871  1.0000
  C   C29       1.0  0.24102478114767217  0.8073907721135924  0.509734425908036  1.0000
  C   C30       1.0  0.7589745779069188  0.19260938332113406  0.49026449027817165  1.0000
  C   C31       1.0  0.41296818937450996  0.8652511889839547  0.5182577930384512  1.0000
  C   C32       1.0  0.5870264442146791  0.1347489752585815  0.4817422630466411  1.0000
  C   C33       1.0  0.48653264664086737  0.8632509250578552  0.6100454805575241  1.0000
  C   C34       1.0  0.513463552363426  0.13674923691835517  0.38995520038412235  1.0000
  C   C35       1.0  0.3900415079737412  0.8033299096069797  0.693289464370338  1.0000
  C   C36       1.0  0.6099557231866441  0.19667200741579194  0.3067111032481264  1.0000
  C   C37       1.0  0.15759658642925703  0.7460312117155892  0.5967296860149178  1.0000
  C   C38       1.0  0.8424046083224609  0.2539680625452689  0.40326984730914023  1.0000
  C   C39       1.0  0.9903705674638843  0.6799856803405221  0.590603220926269  1.0000
  C   C40       1.0  0.009629361374827288  0.32001271527026637  0.4093926653539839  1.0000
  N   N1        1.0  0.9140583864523034  0.6233079443805778  0.6756052677847748  1.0000
  N   N2        1.0  0.0859394071871833  0.37669221332046726  0.3243930235448787  1.0000
  N   N3        1.0  0.2317372355205123  0.7455737609783383  0.6863921234772192  1.0000
  N   N4        1.0  0.7682589634837811  0.2544264009978718  0.3136085574644199  1.0000
  O   O1        1.0  0.6398035365444981  0.22524799325037748  0.8546348667500896  1.0000
  O   O2        1.0  0.360201010347474  0.7747556682470248  0.1453658261200061  1.0000
  O   O3        1.0  0.023423280425689218  0.9820337366427195  0.8385016951605097  1.0000
  O   O4        1.0  0.9765799275030602  0.017969051226728497  0.16150288683714822  1.0000
  O   O5        1.0  0.27603312626076365  0.10711801586725757  0.7265241999385452  1.0000
  O   O6        1.0  0.7239840805842804  0.8928803507962899  0.2734725308267159  1.0000
  O   O7        1.0  0.5582441740400768  0.0196042791057067  0.7948356311247625  1.0000
  O   O8        1.0  0.44176643511733715  0.9803949800505761  0.20516539048720972  1.0000
  O   O9        1.0  0.3332611583850635  0.463324378209812  0.7474691011770247  1.0000
  O   O10       1.0  0.6667185734589437  0.5366731759909983  0.2525307121235159  1.0000
  O   O11       1.0  0.04192495464954501  0.493948922430711  0.8693962048129722  1.0000
  O   O12       1.0  0.9580722597376267  0.5060477284352132  0.13061122780808185  1.0000
  O   O13       1.0  0.1736880576805149  0.22663579053146074  0.12874615802692801  1.0000
  O   O14       1.0  0.8263069170777225  0.7733582226201535  0.8712517119364167  1.0000
  O   O15       1.0  0.3409668398270825  0.10362632675713712  0.0010660270593802897  1.0000
  O   O16       1.0  0.6590498389007918  0.8963685295558151  0.9989345696773314  1.0000
  O   O17       1.0  0.7807232378463167  0.14412456609531432  0.022704527669560496  1.0000
  O   O18       1.0  0.21927972171548749  0.8558790991750486  0.9772978011953842  1.0000
  O   O19       1.0  0.7125148984216949  0.32648128260176884  0.09397627909042686  1.0000
  O   O20       1.0  0.2874741915510198  0.6735215276734295  0.9060256936667914  1.0000
