data_image0
_chemical_formula_structural       Zn2H24C39N2O8
_chemical_formula_sum              "Zn2 H24 C39 N2 O8"
_cell_length_a       10.84697841649235
_cell_length_b       12.6771379099702
_cell_length_c       13.475914487906888
_cell_angle_alpha    81.58841395881004
_cell_angle_beta     89.5526442980955
_cell_angle_gamma    79.91852292108332

_space_group_name_H-M_alt    "P 1"
_space_group_IT_number       1

loop_
  _space_group_symop_operation_xyz
  'x, y, z'

loop_
  _atom_site_type_symbol
  _atom_site_label
  _atom_site_symmetry_multiplicity
  _atom_site_fract_x
  _atom_site_fract_y
  _atom_site_fract_z
  _atom_site_occupancy
  Zn  Zn1       1.0  0.46638957196973513  0.612267231243159  0.5133133048848109  1.0000
  Zn  Zn2       1.0  0.5182492331160944  0.38799768751923114  0.485678483298642  1.0000
  H   H1        1.0  0.04768115383171083  0.6342430849344965  0.3616757992422777  1.0000
  H   H2        1.0  0.6078698424852007  0.3016689049469647  0.3126914052566931  1.0000
  H   H3        1.0  0.8735829919319329  0.6713921756249519  0.5178591510084161  1.0000
  H   H4        1.0  0.5502381871159303  0.9735395513494892  0.3228125675824458  1.0000
  H   H5        1.0  0.6187658649270489  0.13641048183379917  0.22908283890381395  1.0000
  H   H6        1.0  0.40662795139296304  0.24207205084744737  0.6091009528111896  1.0000
  H   H7        1.0  0.049809123015180035  0.5356729854909545  0.6568080551903321  1.0000
  H   H8        1.0  0.9391562065437071  0.3555493372541179  0.6232190177850114  1.0000
  H   H9        1.0  0.11511198678125108  0.3175594693305825  0.46826056146066714  1.0000
  H   H10       1.0  0.9385934637172042  0.4528940090979958  0.3280234903821224  1.0000
  H   H11       1.0  0.7077394392791662  0.27356724455708564  0.7864304023616667  1.0000
  H   H12       1.0  0.4598560266132026  0.5656690796367343  0.8230260620936036  1.0000
  H   H13       1.0  0.7734076828438958  0.3192691818672627  0.1289920758019605  1.0000
  H   H14       1.0  0.781759110189327  0.25272627204338255  0.9649135961127511  1.0000
  H   H15       1.0  0.6547517891292569  0.729638439747461  0.4724299870284696  1.0000
  H   H16       1.0  0.5782056364168184  0.8016926917955304  0.36256489699773903  1.0000
  H   H17       1.0  0.674855883774697  0.8663726702743445  0.4329188615367556  1.0000
  H   H18       1.0  0.3390558794712888  0.7498979626522626  0.2079760037254843  1.0000
  H   H19       1.0  0.4015865454062889  0.6781508148274542  0.9074582952712972  1.0000
  H   H20       1.0  0.3001976648525473  0.7994306007952969  0.02245488497552377  1.0000
  H   H21       1.0  0.6678385329461279  0.4411823342800432  0.24223418636258026  1.0000
  H   H22       1.0  0.31412643988240757  0.7223547279669091  0.6556341704480461  1.0000
  H   H23       1.0  0.3073937765188787  0.09407520388375451  0.6980416514634056  1.0000
  H   H24       1.0  0.26790556275346233  0.9043325813523991  0.7148596912769279  1.0000
  C   C1        1.0  0.4777225472987893  0.574321545428262  0.3065163731261435  1.0000
  C   C2        1.0  0.508612937400109  0.562774769784255  0.023924621772458517  1.0000
  C   C3        1.0  0.5381160279047067  0.5393924489339453  0.12877459870926336  1.0000
  C   C4        1.0  0.7337229873545822  0.48738310547793157  0.4866527153696651  1.0000
  C   C5        1.0  0.5659166931520901  0.4872654841602824  0.9583654370976686  1.0000
  C   C6        1.0  0.6587118169523762  0.39660916120923423  0.9977424759705327  1.0000
  C   C7        1.0  0.6965242574595579  0.384452671108761  0.10089740773615571  1.0000
  C   C8        1.0  0.6378108356305319  0.45175924258415984  0.16389121172823454  1.0000
  C   C9        1.0  0.5297182130166006  0.4980100955379783  0.8569756355597491  1.0000
  C   C10       1.0  0.6699606720616347  0.33233003017350876  0.8352646958101175  1.0000
  C   C11       1.0  0.4707645007486079  0.6062437542746082  0.1945996946002282  1.0000
  C   C12       1.0  0.05999994464848162  0.39598339639427127  0.4787159404997183  1.0000
  C   C13       1.0  0.3301239847995917  0.8908332574587021  0.6522986233916086  1.0000
  C   C14       1.0  0.5776905140917918  0.22913382974694232  0.3510137651619658  1.0000
  C   C15       1.0  0.5851569603900941  0.13597562032865804  0.3054741836201345  1.0000
  C   C16       1.0  0.5335087122359568  0.4399845976502378  0.6890826881359473  1.0000
  C   C17       1.0  0.5478725056007292  0.045378685534266994  0.358417134940261  1.0000
  C   C18       1.0  0.5021460015021829  0.0477589958262143  0.456716503252359  1.0000
  C   C19       1.0  0.4860096093507024  0.1492807967581626  0.49342680384788196  1.0000
  C   C20       1.0  0.4615981649171773  0.956475618436876  0.5178320475134227  1.0000
  C   C21       1.0  0.38381200860033  0.9765641658540288  0.6012237163243483  1.0000
  C   C22       1.0  0.36465179439149153  0.08135859162597821  0.6324744938467786  1.0000
  C   C23       1.0  0.964445684908128  0.47137186881573  0.4010966764012522  1.0000
  C   C24       1.0  0.41858887534733913  0.1632930841427083  0.583708456209024  1.0000
  C   C25       1.0  0.49878329542571714  0.846851846696289  0.5015346629032533  1.0000
  C   C26       1.0  0.3568472245681491  0.790401725702729  0.6218170456277576  1.0000
  C   C27       1.0  0.2542354881704512  0.5013998773734868  0.5021889592170155  1.0000
  C   C28       1.0  0.928068478759876  0.5931125845793018  0.506328235830658  1.0000
  C   C29       1.0  0.022100405927489037  0.5722245635362738  0.41956527745678324  1.0000
  C   C30       1.0  0.11858378124686202  0.4961181927080817  0.4964057924909042  1.0000
  C   C31       1.0  0.023325332698419726  0.5176037208597252  0.5837519911851032  1.0000
  C   C32       1.0  0.9658396797300524  0.4170407787025285  0.5652959561833129  1.0000
  C   C33       1.0  0.6078510952659999  0.8105086838328502  0.4383252146150624  1.0000
  C   C34       1.0  0.8692409248958127  0.4935689068697612  0.48739468448694356  1.0000
  C   C35       1.0  0.7100974650771901  0.32116710276296345  0.9340194022055499  1.0000
  C   C36       1.0  0.5786111953285911  0.42209216409833056  0.7960799945441792  1.0000
  C   C37       1.0  0.3879072347712835  0.6994208069950643  0.1559336400899767  1.0000
  C   C38       1.0  0.3652321142476325  0.7259798544664876  0.052090199013790105  1.0000
  C   C39       1.0  0.42262973703125073  0.6576905008486094  0.9875913717523445  1.0000
  N   N1        1.0  0.44276224736051256  0.7683094871568699  0.5505838406535657  1.0000
  N   N2        1.0  0.5282699367909985  0.2362720924519124  0.4412135189001204  1.0000
  O   O1        1.0  0.4765259448974675  0.6499499117383963  0.35948594076219825  1.0000
  O   O2        1.0  0.4787478390866511  0.47500402538629066  0.3398120139749139  1.0000
  O   O3        1.0  0.659916151005298  0.5629262356190239  0.5211001317300585  1.0000
  O   O4        1.0  0.7012429394731327  0.40618729003708154  0.45464221030924523  1.0000
  O   O5        1.0  0.4665025572783321  0.531737700148625  0.6578236123044121  1.0000
  O   O6        1.0  0.5656946813293117  0.3635050994921157  0.6370039942804552  1.0000
  O   O7        1.0  0.28318984025355587  0.5952918012783783  0.4971302486437778  1.0000
  O   O8        1.0  0.3304898733538622  0.4114515752177752  0.511960584170609  1.0000
