data_image0
_chemical_formula_structural       Zn8H96C112Br8O26
_chemical_formula_sum              "Zn8 H96 C112 Br8 O26"
_cell_length_a       23.627905605531957
_cell_length_b       23.630435555285185
_cell_length_c       23.628375689951252
_cell_angle_alpha    66.25599488599788
_cell_angle_beta     72.62878696545758
_cell_angle_gamma    107.38137183265461

_space_group_name_H-M_alt    "P 1"
_space_group_IT_number       1

loop_
  _space_group_symop_operation_xyz
  'x, y, z'

loop_
  _atom_site_type_symbol
  _atom_site_label
  _atom_site_symmetry_multiplicity
  _atom_site_fract_x
  _atom_site_fract_y
  _atom_site_fract_z
  _atom_site_occupancy
  Zn  Zn1       1.0  0.060068629797797216  0.9597604133758894  0.488318287710392  1.0000
  Zn  Zn2       1.0  0.060083657150045204  0.10027741481586362  0.4515650448777251  1.0000
  Zn  Zn3       1.0  0.9398764435649198  0.9882583022440913  0.4598209331970151  1.0000
  Zn  Zn4       1.0  0.9399888731374159  0.9515987670845405  0.6002900178587398  1.0000
  Zn  Zn5       1.0  0.9480701737991526  0.5483558685273667  0.011751231687561748  1.0000
  Zn  Zn6       1.0  0.05195810357479748  0.511717077607571  0.048339173846841325  1.0000
  Zn  Zn7       1.0  0.948162918869336  0.39966974381224674  0.04030126063926794  1.0000
  Zn  Zn8       1.0  0.05176721108769996  0.5401795572498216  0.8997034643979023  1.0000
  H   H1        1.0  0.8487967083120299  0.6368138854926645  0.1649583607189694  1.0000
  H   H2        1.0  0.8637597409843917  0.5703321319227328  0.15764214912480423  1.0000
  H   H3        1.0  0.9009557101015632  0.6541966185353234  0.08161529029721479  1.0000
  H   H4        1.0  0.15055037872448196  0.6634878146106118  0.13813379096669823  1.0000
  H   H5        1.0  0.13616593123511223  0.6570529744157555  0.07103826064128067  1.0000
  H   H6        1.0  0.09814288471423528  0.5806207711188947  0.15479359102370446  1.0000
  H   H7        1.0  0.10695248355676058  0.6471968380606158  0.23860072826747813  1.0000
  H   H8        1.0  0.08070651512505819  0.7036485155618664  0.2567447710759084  1.0000
  H   H9        1.0  0.14918641592181095  0.7387279953900219  0.17425756156582398  1.0000
  H   H10       1.0  0.8924974984271115  0.7377602399334648  0.14755878623519444  1.0000
  H   H11       1.0  0.9198149725861097  0.7573286119359608  0.20278772898596747  1.0000
  H   H12       1.0  0.8510914134617876  0.6744711754932028  0.2393190202575611  1.0000
  H   H13       1.0  0.8568487758218523  0.7680237920899131  0.3244409567080595  1.0000
  H   H14       1.0  0.9272070865384308  0.8200484216075666  0.23906822112399345  1.0000
  H   H15       1.0  0.8890515941808488  0.860599441359497  0.2744541114564926  1.0000
  H   H16       1.0  0.1431585731527676  0.82465633837176  0.2673514195603701  1.0000
  H   H17       1.0  0.07281406267563988  0.7392167159902457  0.3201248344315816  1.0000
  H   H18       1.0  0.1115879282362897  0.7753210676895748  0.35987107471950713  1.0000
  H   H19       1.0  0.09632742895907835  0.8378664490224635  0.42917162676234  1.0000
  H   H20       1.0  0.12368527389062228  0.9273546264301872  0.370805716729393  1.0000
  H   H21       1.0  0.15368634744760346  0.8806649514690861  0.3383623131325565  1.0000
  H   H22       1.0  0.9040443737195716  0.9296657097414001  0.3374503620495517  1.0000
  H   H23       1.0  0.8764688970596164  0.8711223738047662  0.4269481954413625  1.0000
  H   H24       1.0  0.8466148301663168  0.8389208064398019  0.380027249601028  1.0000
  H   H25       1.0  0.1515389194087574  0.4857052742386187  0.7125206557157142  1.0000
  H   H26       1.0  0.13586760640907158  0.4784855876198719  0.7938928430076119  1.0000
  H   H27       1.0  0.09928249202666005  0.5173225566733138  0.746306946313311  1.0000
  H   H28       1.0  0.8491055120941127  0.21161525357697294  0.9867335125719308  1.0000
  H   H29       1.0  0.8640843993698368  0.2930243947178325  0.9791795368357157  1.0000
  H   H30       1.0  0.9016083601545546  0.24651266022566892  0.017567693917030183  1.0000
  H   H31       1.0  0.8928900446030282  0.15439493659302164  0.9598441263278233  1.0000
  H   H32       1.0  0.9192737092786345  0.1624063517895068  0.8771767589342689  1.0000
  H   H33       1.0  0.8507982412191097  0.17650137221863105  0.9103637402342316  1.0000
  H   H34       1.0  0.10768583660740211  0.4598783641919226  0.6548640536322736  1.0000
  H   H35       1.0  0.08026234765259233  0.37740063153553655  0.6624682840020527  1.0000
  H   H36       1.0  0.1489394342124937  0.4093501304715729  0.6767482635810823  1.0000
  H   H37       1.0  0.14309644062411309  0.3186792366114021  0.5888222844235429  1.0000
  H   H38       1.0  0.07272618080982342  0.33367605867059785  0.6071627817728072  1.0000
  H   H39       1.0  0.11089121144309642  0.33648164891076965  0.5284390970980368  1.0000
  H   H40       1.0  0.8568206005106801  0.08953719022403572  0.8184035280129079  1.0000
  H   H41       1.0  0.9271290088535122  0.10697954402925786  0.8335787208537085  1.0000
  H   H42       1.0  0.8883057215981367  0.028507847136964512  0.8361945393233796  1.0000
  H   H43       1.0  0.9035663924509552  0.9745080257925666  0.7584092718704699  1.0000
  H   H44       1.0  0.8763290572244173  0.005571968673059902  0.6961709665130584  1.0000
  H   H45       1.0  0.8462531360313431  0.0080279176712849  0.7728482961193351  1.0000
  H   H46       1.0  0.09585864343957694  0.2585557759828987  0.4743254955242051  1.0000
  H   H47       1.0  0.12347820180853833  0.1966449889212285  0.5052142444725689  1.0000
  H   H48       1.0  0.15333032540691258  0.2733892046453336  0.50761652490106  1.0000
  H   H49       1.0  0.7671851137003783  0.5255949886141024  0.07036971419265833  1.0000
  H   H50       1.0  0.7981631900865478  0.49459500795239125  0.12889415439290977  1.0000
  H   H51       1.0  0.7190502161782178  0.4922532991487858  0.16113017945637145  1.0000
  H   H52       1.0  0.7669863984380498  0.24144168949537476  0.1622770630830316  1.0000
  H   H53       1.0  0.7981630783906297  0.3035561584734342  0.07277114109606213  1.0000
  H   H54       1.0  0.7190033634104009  0.22689135857056175  0.11944015005537531  1.0000
  H   H55       1.0  0.5921220686329461  0.181501393645192  0.17526361782488917  1.0000
  H   H56       1.0  0.559270318041939  0.16640229720590577  0.260698693825546  1.0000
  H   H57       1.0  0.6351261786674981  0.1636841188720554  0.22480164944208514  1.0000
  H   H58       1.0  0.5923734308471394  0.41102791497738184  0.23201472848474944  1.0000
  H   H59       1.0  0.5592646913661881  0.3929477194809224  0.17972546847470028  1.0000
  H   H60       1.0  0.6351873945745082  0.47157485162077273  0.1394463061314326  1.0000
  H   H61       1.0  0.385398980619577  0.3453692689461152  0.26214395536533874  1.0000
  H   H62       1.0  0.4601824351023112  0.33760429803690795  0.24272290877403446  1.0000
  H   H63       1.0  0.4137302764248999  0.3234503272355909  0.3255501992185827  1.0000
  H   H64       1.0  0.3857142013995372  0.040329991252292544  0.3525958194955763  1.0000
  H   H65       1.0  0.46035960296383377  0.12299518597053799  0.2963344658457744  1.0000
  H   H66       1.0  0.41309896996862244  0.08981212737751326  0.2610272774017375  1.0000
  H   H67       1.0  0.3016361257814637  0.013344181253998525  0.33589373944743534  1.0000
  H   H68       1.0  0.22794291942820172  0.021111344296343832  0.3428454287554814  1.0000
  H   H69       1.0  0.23565284385426102  0.9826041443030819  0.41901721906906886  1.0000
  H   H70       1.0  0.3017826970429808  0.2879827195147513  0.3633398449727352  1.0000
  H   H71       1.0  0.2278713041858254  0.2065576984011983  0.42959759792076824  1.0000
  H   H72       1.0  0.2359964962189594  0.25347606050834065  0.3456243388421073  1.0000
  H   H73       1.0  0.23288469430859474  0.5707919422231099  0.025475237923430403  1.0000
  H   H74       1.0  0.20176365055021975  0.6291637565606651  0.9944607688538768  1.0000
  H   H75       1.0  0.2808897404760984  0.6615927363175587  0.9920551922888594  1.0000
  H   H76       1.0  0.2329217575034263  0.6626155093821711  0.7413941584217767  1.0000
  H   H77       1.0  0.20191007048304505  0.573093409135872  0.8033198763765271  1.0000
  H   H78       1.0  0.2810711597099102  0.6200008718729609  0.7265862141441489  1.0000
  H   H79       1.0  0.4075629205186999  0.6755817058511724  0.6813117283994928  1.0000
  H   H80       1.0  0.44085827988546805  0.7609525742941232  0.6663060213199613  1.0000
  H   H81       1.0  0.3649403403549842  0.725531335811674  0.6635028051140921  1.0000
  H   H82       1.0  0.40773915923419674  0.7325716886830094  0.9107051754861999  1.0000
  H   H83       1.0  0.4406654088688527  0.6800625348950079  0.892898620554469  1.0000
  H   H84       1.0  0.3647707804219777  0.6400260796757281  0.9714694778915387  1.0000
  H   H85       1.0  0.6143458863603756  0.7614879331957385  0.8455660486045036  1.0000
  H   H86       1.0  0.5396756747236396  0.7430004863731342  0.8375767982835072  1.0000
  H   H87       1.0  0.5868387684211382  0.825570755388661  0.823526540312841  1.0000
  H   H88       1.0  0.6146892298112052  0.8523366239536048  0.5401125848465469  1.0000
  H   H89       1.0  0.5398600220845607  0.7971765993398278  0.6226228434916905  1.0000
  H   H90       1.0  0.5861367634992334  0.7605653245457519  0.5905166637855501  1.0000
  H   H91       1.0  0.6982071313750355  0.8346441601151757  0.5140096012833835  1.0000
  H   H92       1.0  0.7721479184769324  0.8424325926896334  0.5214939235070516  1.0000
  H   H93       1.0  0.7639456609300409  0.9182106529759795  0.4826428814207658  1.0000
  H   H94       1.0  0.6984018632182155  0.8622235515345408  0.7885121148847603  1.0000
  H   H95       1.0  0.7720947414843236  0.9289474370911961  0.7070691131987346  1.0000
  H   H96       1.0  0.7643551346233296  0.8450576402276231  0.7532380656797387  1.0000
  C   C1        1.0  0.18656414739922406  0.09333436452345717  0.40677841136748333  1.0000
  C   C2        1.0  0.999910591766877  0.13637767877195733  0.36349900992702544  1.0000
  C   C3        1.0  6.261570885589032e-05  0.9134775341435456  0.4133011765303394  1.0000
  C   C4        1.0  0.8134380757047522  0.9065690257638508  0.5933472662919571  1.0000
  C   C5        1.0  0.00016026415963195945  0.863552961159101  0.6364521287597286  1.0000
  C   C6        1.0  0.9999445435732213  0.08664173512990915  0.5865184858132935  1.0000
  C   C7        1.0  0.9999055987832006  0.5931467058027592  0.09336795052923466  1.0000
  C   C8        1.0  0.00012777318261924787  0.36363216522426  0.13663555631050883  1.0000
  C   C9        1.0  0.8268124863925833  0.41336990505543275  0.08649795852729628  1.0000
  C   C10       1.0  2.713837941570162e-05  0.4066229562510558  0.9067549379808497  1.0000
  C   C11       1.0  0.9998807680890494  0.6365591847243196  0.8636437490259679  1.0000
  C   C12       1.0  0.17317913925769088  0.5866132369397121  0.9133176328070077  1.0000
  C   C13       1.0  0.00014427412548198917  0.8051205558993076  0.6949810025687742  1.0000
  C   C14       1.0  0.9999818688362151  0.6950745895235143  0.8051154397660198  1.0000
  C   C15       1.0  0.9583149568137298  0.7788517222763289  0.7661539388370142  1.0000
  C   C16       1.0  0.0451067100803258  0.72463301035409  0.7339578698426551  1.0000
  C   C17       1.0  0.9549348048746392  0.721244699607027  0.8204909296743214  1.0000
  C   C18       1.0  0.041903230136647165  0.7756550556764525  0.6796020847748208  1.0000
  C   C19       1.0  0.9999423344537631  0.1949196576483488  0.3050757309408425  1.0000
  C   C20       1.0  5.747584658864127e-06  0.3050826706958389  0.19516343999811175  1.0000
  C   C21       1.0  0.958398264836724  0.17957000590875094  0.27538322050871494  1.0000
  C   C22       1.0  0.0448436562539527  0.32043744043680533  0.22156262967945395  1.0000
  C   C23       1.0  0.9551249439884583  0.23392091040613383  0.2244482373987752  1.0000
  C   C24       1.0  0.041517453767880956  0.26606701687757817  0.27910082767274963  1.0000
  C   C25       1.0  0.9998924375021471  0.6309859241875273  0.13135104273955284  1.0000
  C   C26       1.0  0.9474284046331504  0.6489331924064602  0.14933798673243354  1.0000
  C   C27       1.0  0.9501977079425854  0.6882889653293772  0.18090427537735837  1.0000
  C   C28       1.0  2.7761441593486496e-05  0.7022609240571853  0.20231424058080447  1.0000
  C   C29       1.0  0.04977268704642072  0.6807256613686691  0.18845582759259114  1.0000
  C   C30       1.0  0.05236160667742959  0.6489079311503546  0.14932926558751095  1.0000
  C   C31       1.0  6.474277058290537e-05  0.7382560663396873  0.23815845548350723  1.0000
  C   C32       1.0  6.489886195031631e-05  0.7692791214199559  0.26904562179778674  1.0000
  C   C33       1.0  9.253114986052048e-05  0.8052133504687263  0.30487801657378805  1.0000
  C   C34       1.0  0.9516505041081796  0.8287733989753364  0.31664426961731357  1.0000
  C   C35       1.0  0.9492467703507971  0.8607544051303153  0.3554769517426378  1.0000
  C   C36       1.0  9.609731432649223e-05  0.8758121354820573  0.37550797659460516  1.0000
  C   C37       1.0  0.05098592084331688  0.8558607223025092  0.3603722802211921  1.0000
  C   C38       1.0  0.04857979417227649  0.8170374329364452  0.32838241299698734  1.0000
  C   C39       1.0  6.180429274142133e-05  0.36864028131272875  0.8689187064104829  1.0000
  C   C40       1.0  0.052571550033086056  0.4030769195439632  0.7985587240496276  1.0000
  C   C41       1.0  0.04983407922444628  0.36875451723479113  0.7619651217048258  1.0000
  C   C42       1.0  0.999968407283518  0.29754327987040347  0.7977902002447621  1.0000
  C   C43       1.0  0.9501936029508968  0.2616757249449365  0.8690546941000437  1.0000
  C   C44       1.0  0.947592694947211  0.29822788346574225  0.9034455337657195  1.0000
  C   C45       1.0  0.9999398750208002  0.2616882838240927  0.761818111633552  1.0000
  C   C46       1.0  0.9999190999536511  0.2308095626308956  0.7307860078833597  1.0000
  C   C47       1.0  0.9998779080959324  0.19499020477304202  0.6948504777015218  1.0000
  C   C48       1.0  0.04830234717987739  0.23168770923331294  0.6228374333437972  1.0000
  C   C49       1.0  0.05071743642909612  0.19528375314975224  0.5884242206249156  1.0000
  C   C50       1.0  0.9998970132192468  0.12440147662896081  0.6242143500554603  1.0000
  C   C51       1.0  0.9490003731972861  0.08864803967664885  0.6950393616267831  1.0000
  C   C52       1.0  0.9513955138279327  0.12301481229373228  0.7314870028554168  1.0000
  C   C53       1.0  0.7513515738204718  0.37567265082972084  0.12421148376417065  1.0000
  C   C54       1.0  0.7162868062457832  0.4114743990412749  0.13926218094871237  1.0000
  C   C55       1.0  0.645473511697851  0.3771091250614092  0.17120959816765688  1.0000
  C   C56       1.0  0.6101225459708032  0.30511197911272353  0.19476679218756493  1.0000
  C   C57       1.0  0.6454333533294444  0.26843245391464887  0.1829774747822058  1.0000
  C   C58       1.0  0.7162515260231643  0.3048272346254778  0.14418860506739872  1.0000
  C   C59       1.0  0.5383637998607612  0.2692412038488143  0.23066523696058291  1.0000
  C   C60       1.0  0.4764440217475753  0.23829690059418615  0.26164788760299007  1.0000
  C   C61       1.0  0.4046117681353394  0.2023627679664132  0.2976355944662572  1.0000
  C   C62       1.0  0.369231941257084  0.23820208277961546  0.31164904802923127  1.0000
  C   C63       1.0  0.29830958585674233  0.20160323562088675  0.3510051882643168  1.0000
  C   C64       1.0  0.26238080577566336  0.13120467656375479  0.3689240975970591  1.0000
  C   C65       1.0  0.29827391563127753  0.09671280570342596  0.3509078783823583  1.0000
  C   C66       1.0  0.36921298462696933  0.131102560131076  0.3191211390149249  1.0000
  C   C67       1.0  0.24863320498392494  0.6244670727028067  0.8755682251137384  1.0000
  C   C68       1.0  0.28369869591936947  0.6396022565793872  0.9113476111097968  1.0000
  C   C69       1.0  0.35451782159253037  0.6716005323463463  0.8769830556381849  1.0000
  C   C70       1.0  0.38986905956397777  0.6951041411093543  0.8050019634040453  1.0000
  C   C71       1.0  0.35455330635984694  0.6833568370767652  0.7682987372371883  1.0000
  C   C72       1.0  0.2837404701565944  0.6445217957361606  0.8046901194980408  1.0000
  C   C73       1.0  0.4616289284545232  0.7309120202639364  0.7691706032543454  1.0000
  C   C74       1.0  0.52354989405967  0.7617759846132233  0.738284409415229  1.0000
  C   C75       1.0  0.5953816716183411  0.7975990553566208  0.702414383919347  1.0000
  C   C76       1.0  0.630789608341253  0.8114677418326863  0.7382932949343725  1.0000
  C   C77       1.0  0.7017325444066458  0.8506310857855157  0.7017402855695353  1.0000
  C   C78       1.0  0.7376201892256444  0.8685942948726009  0.631314296989821  1.0000
  C   C79       1.0  0.7016800698980815  0.850578983443782  0.5968517509325082  1.0000
  C   C80       1.0  0.6307569568666979  0.8189977551359747  0.6311843790115718  1.0000
  C   C81       1.0  0.8870987380513855  0.6266618361435977  0.13774760121173543  1.0000
  C   C82       1.0  0.11243972956962253  0.6368660233751057  0.12743254028004  1.0000
  C   C83       1.0  0.09926092250339012  0.6930863663914338  0.215815196665794  1.0000
  C   C84       1.0  0.9007907711238872  0.7157578865712682  0.1931435156593935  1.0000
  C   C85       1.0  0.9036000312872189  0.8189749149140725  0.2873298791381201  1.0000
  C   C86       1.0  0.0966403484576618  0.7877467405839484  0.3185417171532165  1.0000
  C   C87       1.0  0.10917703819033864  0.8765634665425283  0.37537631417468736  1.0000
  C   C88       1.0  0.8910788817919548  0.8758022154991565  0.37610695401003374  1.0000
  C   C89       1.0  0.11295388699382874  0.4749265552291747  0.7605983482011851  1.0000
  C   C90       1.0  0.8874633495677314  0.2601172711846902  0.975507300446033  1.0000
  C   C91       1.0  0.9006834561402144  0.18483608348739006  0.9062079694602188  1.0000
  C   C92       1.0  0.0992900452827143  0.4059585566862793  0.6851035398808846  1.0000
  C   C93       1.0  0.09634508735523181  0.30904707232596  0.5846093363111322  1.0000
  C   C94       1.0  0.9033061899027003  0.0847920279882788  0.8088330313994093  1.0000
  C   C95       1.0  0.8907840369213673  0.01549409795217817  0.7324904310701258  1.0000
  C   C96       1.0  0.1088614344674568  0.23285411717857582  0.5151839650369752  1.0000
  C   C97       1.0  0.7519936608879051  0.4846818144759271  0.12422203270070745  1.0000
  C   C98       1.0  0.7519241580624366  0.26729475690527943  0.12354523198811056  1.0000
  C   C99       1.0  0.6062796899794876  0.1910864241370476  0.21225003820005378  1.0000
  C   C100      1.0  0.6063703089405621  0.41537568228828553  0.1809835657944134  1.0000
  C   C101      1.0  0.40893648832398105  0.3150613496071914  0.28422004695622854  1.0000
  C   C102      1.0  0.40890806804485896  0.09396047853128668  0.3067556259468418  1.0000
  C   C103      1.0  0.2643276348378691  0.02466375878783818  0.36281289317361143  1.0000
  C   C104      1.0  0.26443878837134344  0.23962679968200018  0.3733055455177308  1.0000
  C   C105      1.0  0.2479859582151462  0.6245903050772769  0.9845377048337269  1.0000
  C   C106      1.0  0.2480864573800118  0.6239218758743236  0.7671151942961602  1.0000
  C   C107      1.0  0.39368907228819683  0.7126810914118026  0.6909425742430813  1.0000
  C   C108      1.0  0.3936280397359368  0.6814567889292747  0.9152319349800422  1.0000
  C   C109      1.0  0.5911100001887063  0.7840740960278154  0.8151481815549033  1.0000
  C   C110      1.0  0.5910597025492452  0.8067670499241615  0.5939980156631819  1.0000
  C   C111      1.0  0.7355445127364533  0.8621095705987045  0.5249695854729951  1.0000
  C   C112      1.0  0.7356880279674273  0.872610176501347  0.7398738803127143  1.0000
  Br  Br1       1.0  0.9088858637715659  0.8230471561843729  0.7908410408825476  1.0000
  Br  Br2       1.0  0.11414687725348922  0.7000551468975686  0.709368099066225  1.0000
  Br  Br3       1.0  0.8857458172075423  0.6768535338307302  0.9140091910117148  1.0000
  Br  Br4       1.0  0.09143824671631531  0.8002944535017706  0.586029229911503  1.0000
  Br  Br5       1.0  0.9092948766385831  0.08606800569037173  0.299649984045388  1.0000
  Br  Br6       1.0  0.11376558284228372  0.4139848246543353  0.17759890438256326  1.0000
  Br  Br7       1.0  0.8862294456036182  0.20925507393116788  0.19969353966196474  1.0000
  Br  Br8       1.0  0.09065621620264606  0.2905952708303516  0.323600342334487  1.0000
  O   O1        1.0  2.0007442244078397e-06  0.9999788853220013  0.49999067447986084  1.0000
  O   O2        1.0  0.1557026952873386  0.028744445578915624  0.4261953511064078  1.0000
  O   O3        1.0  0.05649838869780409  0.1462807425344863  0.3617000602140905  1.0000
  O   O4        1.0  0.9789302381892707  0.9588284810997152  0.39786090246231975  1.0000
  O   O5        1.0  0.15574462788566018  0.12714297938183708  0.4180905355654261  1.0000
  O   O6        1.0  0.02113643477823509  0.897926437688767  0.45871299203145804  1.0000
  O   O7        1.0  0.9433074827304255  0.0815881857920644  0.41011368850151797  1.0000
  O   O8        1.0  0.8442360568689511  0.9260934607353735  0.5287127156922367  1.0000
  O   O9        1.0  0.9435687864929887  0.8617569031717025  0.6463754394390409  1.0000
  O   O10       1.0  0.8443212145803756  0.9179816404348743  0.6270788250577938  1.0000
  O   O11       1.0  0.056735565581242216  0.910173791971076  0.581625263861376  1.0000
  O   O12       1.0  0.021011982573433806  0.1231818872286823  0.5200463277215946  1.0000
  O   O13       1.0  0.9789152599037504  0.020170681943000212  0.6231511692973016  1.0000
  O   O14       1.0  0.9999883161913771  0.49998573012332764  5.395412735252249e-06  1.0000
  O   O15       1.0  0.9544279183425883  0.5813105310230212  0.0743765736252725  1.0000
  O   O16       1.0  0.008381326192562764  0.41848582016164226  0.13834790727445062  1.0000
  O   O17       1.0  0.8566884378524404  0.376770073389004  0.10203831226187521  1.0000
  O   O18       1.0  0.04540863639204672  0.5742297480806827  0.08140185668717244  1.0000
  O   O19       1.0  0.856712692860114  0.47984583519882335  0.04110351752586879  1.0000
  O   O20       1.0  0.9919897803144053  0.35369832385494954  0.08997897473273044  1.0000
  O   O21       1.0  0.9553034349900713  0.3726733739328979  0.9715577248556856  1.0000
  O   O22       1.0  0.00798744733469184  0.5899011446538082  0.8537029192243255  1.0000
  O   O23       1.0  0.04469806890666925  0.47147251753576586  0.8726823482779907  1.0000
  O   O24       1.0  0.9916911638927529  0.6383229483442606  0.9184648006905505  1.0000
  O   O25       1.0  0.1433442936490009  0.5412113527622964  0.9797841817283982  1.0000
  O   O26       1.0  0.14323429394312365  0.6020136077847839  0.8767554344068601  1.0000
