data_image0
_chemical_formula_structural       La3H51C81O21
_chemical_formula_sum              "La3 H51 C81 O21"
_cell_length_a       12.515062011669764
_cell_length_b       17.227340749599126
_cell_length_c       17.227356625799985
_cell_angle_alpha    114.34451582357747
_cell_angle_beta     104.00616353958945
_cell_angle_gamma    104.00645612131595

_space_group_name_H-M_alt    "P 1"
_space_group_IT_number       1

loop_
  _space_group_symop_operation_xyz
  'x, y, z'

loop_
  _atom_site_type_symbol
  _atom_site_label
  _atom_site_symmetry_multiplicity
  _atom_site_fract_x
  _atom_site_fract_y
  _atom_site_fract_z
  _atom_site_occupancy
  La  La1       1.0  0.3259001756179529  0.6517418491987356  0.3258748330612775  1.0000
  La  La2       1.0  5.193218656159272e-07  0.6741226218396081  0.3258782764960558  1.0000
  La  La3       1.0  0.674101229952413  0.6741270804255493  0.3482591351596227  1.0000
  H   H1        1.0  0.4774938793325559  0.9443974584906556  0.6074528029862093  1.0000
  H   H2        1.0  0.8700298052038632  0.3926532952826562  0.33690028147331935  1.0000
  H   H3        1.0  0.533146751320217  0.6630608470447258  0.05577152247382584  1.0000
  H   H4        1.0  0.12997403407253216  0.6630953215749571  0.6073450090005466  1.0000
  H   H5        1.0  0.46685196321141115  0.944229719144339  0.33694006643938934  1.0000
  H   H6        1.0  0.5225020429052023  0.3925455256910908  0.055599033827910184  1.0000
  H   H7        1.0  0.5505276791802984  0.1160092722026391  0.6886065273010261  1.0000
  H   H8        1.0  0.8620775170817226  0.31142909994500206  0.4272594506414009  1.0000
  H   H9        1.0  0.434742123545405  0.57272619384581  0.8841344038321282  1.0000
  H   H10       1.0  0.13792593426934024  0.5727383293969625  0.6885708661040583  1.0000
  H   H11       1.0  0.5652610899136333  0.1158668381818444  0.4272733500484094  1.0000
  H   H12       1.0  0.4494718712306706  0.3113898365777317  0.8839892901945987  1.0000
  H   H13       1.0  0.2728705236173212  0.09728257125701131  0.4688131191330741  1.0000
  H   H14       1.0  0.8041740163003155  0.5312194156521528  0.6285207530097594  1.0000
  H   H15       1.0  0.17560647422003234  0.37156534160168775  0.9026606839776721  1.0000
  H   H16       1.0  0.1958294295493133  0.3714756929036013  0.4687832573811265  1.0000
  H   H17       1.0  0.8243953492679664  0.09734334008209801  0.6284352690484314  1.0000
  H   H18       1.0  0.727128447678595  0.5311861700692688  0.9027158451846375  1.0000
  H   H19       1.0  0.20116198716074513  0.9259118798690978  0.38917923337754695  1.0000
  H   H20       1.0  0.8121451078751106  0.6109346591589856  0.5368947777136697  1.0000
  H   H21       1.0  0.2751028660317515  0.4631724150477439  0.0740026492250934  1.0000
  H   H22       1.0  0.1878558539423949  0.4630977880030116  0.3890647259686801  1.0000
  H   H23       1.0  0.7248972294759284  0.9260018940456476  0.5368309436773941  1.0000
  H   H24       1.0  0.7988328596348777  0.610819321169707  0.07408450154676414  1.0000
  H   H25       1.0  0.5000007354304258  0.23236124652923706  0.7676350434975775  1.0000
  H   H26       1.0  0.7322373556121277  0.23234114172498724  0.4646201172637491  1.0000
  H   H27       1.0  0.2677633451273991  0.5353798149930071  0.767661900542656  1.0000
  H   H28       1.0  0.4289274954411794  0.23254899599555756  0.5108919310167438  1.0000
  H   H29       1.0  0.9180448520550968  0.48905960381719643  0.7215957566517163  1.0000
  H   H30       1.0  0.1963391912236148  0.2784783033145786  0.7675135552259178  1.0000
  H   H31       1.0  0.08196189229371952  0.2784009245031953  0.5109470860775644  1.0000
  H   H32       1.0  0.8036669883388328  0.232495345684427  0.7215212983691756  1.0000
  H   H33       1.0  0.571067991544048  0.4891024825264693  0.7674428001685811  1.0000
  H   H34       1.0  0.45038019816561803  0.5210104799049233  0.6723900821145891  1.0000
  H   H35       1.0  0.7781079140078545  0.3277009568247777  0.848694767886741  1.0000
  H   H36       1.0  0.9292484117802642  0.15130011771425697  0.4790175546910831  1.0000
  H   H37       1.0  0.22190485165328508  0.15130638381086212  0.6723104688123271  1.0000
  H   H38       1.0  0.07076570027651034  0.5209937232474148  0.8486945987378507  1.0000
  H   H39       1.0  0.5496147605246476  0.3276082048455748  0.4789858556494764  1.0000
  H   H40       1.0  0.4466754451820306  0.6045269466876847  0.584537352511461  1.0000
  H   H41       1.0  0.8622622777910036  0.4156038004220194  0.020053545692178428  1.0000
  H   H42       1.0  0.842086668509843  0.9799395662471256  0.3954849997519289  1.0000
  H   H43       1.0  0.13775262933711474  0.9799464998564815  0.5844122647824079  1.0000
  H   H44       1.0  0.1579296948732747  0.6045293691530561  0.02005656431531118  1.0000
  H   H45       1.0  0.5533233781194439  0.41546292581565336  0.3954713964711373  1.0000
  H   H46       1.0  0.2700260727863792  0.42802249474831205  0.20060317801578978  1.0000
  H   H47       1.0  0.0693950111168674  0.7993530187748874  0.22755727492529582  1.0000
  H   H48       1.0  0.8418195793837882  0.7724281455797027  0.5719293092207922  1.0000
  H   H49       1.0  0.930603991601046  0.7724205743619521  0.20062690962370755  1.0000
  H   H50       1.0  0.1581805480996152  0.4280734486805287  0.22757410486049415  1.0000
  H   H51       1.0  0.7299700576529347  0.7993957323513855  0.5719770806150137  1.0000
  C   C1        1.0  0.2998028403697077  0.8232095002215943  0.44358905659437636  1.0000
  C   C2        1.0  0.8561825829002739  0.5565187017736476  0.3796731814243585  1.0000
  C   C3        1.0  0.4765249954036435  0.620347176180296  0.17681865981095507  1.0000
  C   C4        1.0  0.14381996224908988  0.6203219514951643  0.44348022878903504  1.0000
  C   C5        1.0  0.5234762844458274  0.8231826357389807  0.3796547992926235  1.0000
  C   C6        1.0  0.7001943403490856  0.5564104913211099  0.17678736120127775  1.0000
  C   C7        1.0  0.3353194253119511  0.9249938316090862  0.4933654860250982  1.0000
  C   C8        1.0  0.8419982487840656  0.5067412993180654  0.4316792990173468  1.0000
  C   C9        1.0  0.4102681166312152  0.5683357159628031  0.07504317817839012  1.0000
  C   C10       1.0  0.15800605908714258  0.5683155892588516  0.4932573269806539  1.0000
  C   C11       1.0  0.5897349651088319  0.924959299438541  0.4316645311835855  1.0000
  C   C12       1.0  0.6646760299212602  0.5066336681379013  0.07500259739290266  1.0000
  C   C13       1.0  0.43276722262802286  0.9789965069166088  0.5785817456101158  1.0000
  C   C14       1.0  0.8542175862791764  0.42150621961663154  0.40040378616906475  1.0000
  C   C15       1.0  0.45380469538974905  0.5996054536463189  0.021112572933574613  1.0000
  C   C16       1.0  0.14578762238999596  0.5995923699305692  0.5784930639436113  1.0000
  C   C17       1.0  0.5461992521084014  0.9788902209050151  0.40039396769908814  1.0000
  C   C18       1.0  0.5672288850781868  0.42141626417745937  0.02100076486699717  1.0000
  C   C19       1.0  0.4728029629986352  0.07463816330831462  0.6234383758890021  1.0000
  C   C20       1.0  0.8494408445023325  0.3765810252533583  0.4511229347134176  1.0000
  C   C21       1.0  0.3982897454312919  0.5489102693355008  0.9254579249054941  1.0000
  C   C22       1.0  0.15057010957574588  0.5488763047239331  0.6234216882829813  1.0000
  C   C23       1.0  0.6017135882768301  0.0745433363187544  0.4510892518347804  1.0000
  C   C24       1.0  0.5271957410250323  0.3765586615704636  0.9253584889948742  1.0000
  C   C25       1.0  0.41728883917480886  0.11906264720665401  0.584233906599188  1.0000
  C   C26       1.0  0.8331104217706908  0.41574418113778216  0.5347668180575199  1.0000
  C   C27       1.0  0.29831098514317483  0.4652988820282359  0.8809790006054925  1.0000
  C   C28       1.0  0.16689709456423427  0.46523110758938907  0.5842604925899622  1.0000
  C   C29       1.0  0.7016940132434256  0.11902630498542521  0.5347021987260022  1.0000
  C   C30       1.0  0.5827099786265391  0.41576259882978667  0.880934184773139  1.0000
  C   C31       1.0  0.3196564197468064  0.0642565005331619  0.49876296192945807  1.0000
  C   C32       1.0  0.8209922865288559  0.5012562353375145  0.5655316308292696  1.0000
  C   C33       1.0  0.25540046779874354  0.43454522782202787  0.9357084438224917  1.0000
  C   C34       1.0  0.17901169914158288  0.43446485317925715  0.49874668046117426  1.0000
  C   C35       1.0  0.7446029368269931  0.0642940032358652  0.565452923045612  1.0000
  C   C36       1.0  0.6803415238510055  0.5012349869270522  0.9357394358325238  1.0000
  C   C37       1.0  0.2787018231285856  0.9684146128929071  0.45417859170962754  1.0000
  C   C38       1.0  0.8246624680110554  0.545915514744827  0.514340016608827  1.0000
  C   C39       1.0  0.3101954416431809  0.4857399911906625  0.03156202064425876  1.0000
  C   C40       1.0  0.17534378380630497  0.4856568332680454  0.4540863339598289  1.0000
  C   C41       1.0  0.6898091062396075  0.9684424933488812  0.5142595085071588  1.0000
  C   C42       1.0  0.7212942618195298  0.5458196295348472  0.0315825156610216  1.0000
  C   C43       1.0  0.4596541974833527  0.22079443643812618  0.6334890656683427  1.0000
  C   C44       1.0  0.8261425902527151  0.3664718137258944  0.5872266007243426  1.0000
  C   C45       1.0  0.23892725651015212  0.4128176539058543  0.779244638459275  1.0000
  C   C46       1.0  0.17386120167144273  0.41277082929222086  0.6335325769864469  1.0000
  C   C47       1.0  0.761076610028276  0.22076293404859365  0.5871827303885058  1.0000
  C   C48       1.0  0.5403454858571308  0.3665066730943778  0.7792014537820933  1.0000
  C   C49       1.0  0.500000375467863  0.27000308537238743  0.7299923352196488  1.0000
  C   C50       1.0  0.7699132314588014  0.26997965097158527  0.5399044217990082  1.0000
  C   C51       1.0  0.2300923267708654  0.46009532173426493  0.7300246224245442  1.0000
  C   C52       1.0  0.4600752381351753  0.2700824325803737  0.5859849274367335  1.0000
  C   C53       1.0  0.874093429184448  0.41397194325485026  0.6840386532454659  1.0000
  C   C54       1.0  0.18994923255886675  0.3160123191574584  0.7299607393486625  1.0000
  C   C55       1.0  0.12591205529982832  0.31595934511485524  0.5860338694263731  1.0000
  C   C56       1.0  0.8100536428103665  0.2700474421084564  0.6839890952699008  1.0000
  C   C57       1.0  0.5399214067539049  0.41400872037571196  0.7299124052559733  1.0000
  C   C58       1.0  0.49999658349546655  0.3667606619518865  0.6332338411663372  1.0000
  C   C59       1.0  0.8668762335246424  0.36673388428049236  0.7334898713879953  1.0000
  C   C60       1.0  0.1331324965490097  0.2665089068855551  0.6332754221923055  1.0000
  C   C61       1.0  0.49999774078590065  0.4178604719549457  0.5821349715333854  1.0000
  C   C62       1.0  0.9180251139585138  0.41781699263739114  0.8357258520120682  1.0000
  C   C63       1.0  0.0819832483202845  0.1642721070053668  0.5821940747550586  1.0000
  C   C64       1.0  0.47415714031772177  0.497864929709749  0.6121571924489402  1.0000
  C   C65       1.0  0.8621619938832695  0.38786694580687  0.8857353629482463  1.0000
  C   C66       1.0  0.97618205377816  0.1142367148400467  0.5021832139888858  1.0000
  C   C67       1.0  0.1378512746998695  0.11426390008087141  0.6121487539161592  1.0000
  C   C68       1.0  0.023831489507806242  0.4978292168968538  0.8857573682386359  1.0000
  C   C69       1.0  0.5258376005695807  0.38784296226783976  0.5021329986779719  1.0000
  C   C70       1.0  0.4719160086809849  0.5450058665098041  0.5631533094491202  1.0000
  C   C71       1.0  0.9089175138852992  0.4368890858169793  0.9818825933165484  1.0000
  C   C72       1.0  0.9268263510274152  0.018083095999976692  0.45501236175667975  1.0000
  C   C73       1.0  0.09109613769726367  0.018116756024205895  0.5631291900828685  1.0000
  C   C74       1.0  0.07318780581293541  0.5450037516092365  0.9819136494238239  1.0000
  C   C75       1.0  0.5280818119252899  0.43684687075336365  0.45499251265694346  1.0000
  C   C76       1.0  0.5000001620538653  0.515475319169468  0.48452799380146416  1.0000
  C   C77       1.0  0.015599671742521146  0.5154897339273462  0.031013268673191895  1.0000
  C   C78       1.0  0.9844167025767658  0.9689845835624027  0.48452719512702896  1.0000
  C   C79       1.0  0.4999967680444684  0.5672527943645207  0.4327486606194739  1.0000
  C   C80       1.0  0.06726218189349709  0.5672430480410071  0.13457562337686815  1.0000
  C   C81       1.0  0.9327542661636059  0.8654227083902484  0.43276852993375997  1.0000
  O   O1        1.0  0.3643736934631362  0.7883435034342695  0.4756659093826626  1.0000
  O   O2        1.0  0.8885281743906003  0.5243767101630822  0.3126274108401573  1.0000
  O   O3        1.0  0.575890819940085  0.6873564419948082  0.21169109170639186  1.0000
  O   O4        1.0  0.11147134914865828  0.6873667999580563  0.47562403984702684  1.0000
  O   O5        1.0  0.4241111666005962  0.7883123756844271  0.31264573079752717  1.0000
  O   O6        1.0  0.6356234347508192  0.524332718176737  0.2116537768241429  1.0000
  O   O7        1.0  0.2088598567959181  0.7725844492110525  0.3654453470207955  1.0000
  O   O8        1.0  0.8435250543543872  0.6347240149143263  0.4072610816466593  1.0000
  O   O9        1.0  0.4362794367503041  0.5928039666248991  0.22746210915138218  1.0000
  O   O10       1.0  0.15647602043519268  0.5927349680080667  0.3652752866502311  1.0000
  O   O11       1.0  0.5637157552559913  0.7725367048574868  0.40719585529395624  1.0000
  O   O12       1.0  0.7911407509849084  0.6345524714454314  0.22741269228575328  1.0000
  O   O13       1.0  0.42939753543556247  0.6096971084415658  0.43399572780005263  1.0000
  O   O14       1.0  0.9953687752330181  0.5659066778222622  0.17572554764029738  1.0000
  O   O15       1.0  0.8197403332221993  0.8241753863975488  0.3902143718823581  1.0000
  O   O16       1.0  0.004645823564558727  0.8242734208076214  0.434109662486044  1.0000
  O   O17       1.0  0.18027444057639025  0.6097869822269928  0.17582438809416343  1.0000
  O   O18       1.0  0.5705974907192868  0.5660065057701973  0.39030068688997943  1.0000
  O   O19       1.0  0.23352679144165475  0.4671330648333409  0.23345533898558554  1.0000
  O   O20       1.0  8.470650712442583e-06  0.7663658867649022  0.2336580011297755  1.0000
  O   O21       1.0  0.7664716853452161  0.7665451014667966  0.5328679855398804  1.0000
