data_image0
_chemical_formula_structural       U2Tl2H24C42I6O16
_chemical_formula_sum              "U2 Tl2 H24 C42 I6 O16"
_cell_length_a       8.02013869560211
_cell_length_b       10.666834723686291
_cell_length_c       15.640743740443709
_cell_angle_alpha    74.11288905286648
_cell_angle_beta     84.69930163732919
_cell_angle_gamma    77.96608848913216

_space_group_name_H-M_alt    "P 1"
_space_group_IT_number       1

loop_
  _space_group_symop_operation_xyz
  'x, y, z'

loop_
  _atom_site_type_symbol
  _atom_site_label
  _atom_site_symmetry_multiplicity
  _atom_site_fract_x
  _atom_site_fract_y
  _atom_site_fract_z
  _atom_site_occupancy
  U   U1        1.0  0.17157981864949787  0.48239883085757634  0.19771596226398458  1.0000
  U   U2        1.0  0.8284227386922539  0.5175957406375246  0.8022857983804383  1.0000
  Tl  Tl1       1.0  0.6640351917669064  0.5790833708935281  0.06658519170233752  1.0000
  Tl  Tl2       1.0  0.33596100494094827  0.42092205619760387  0.9334096571314202  1.0000
  H   H1        1.0  0.8512247592421359  0.821814916317287  0.9333939596759392  1.0000
  H   H2        1.0  0.14877933735505167  0.17819934063339818  0.0665943333103272  1.0000
  H   H3        1.0  0.6474979653438454  0.3048620343675594  0.16979152267079198  1.0000
  H   H4        1.0  0.3525014912766906  0.6951454561651289  0.8302085276538874  1.0000
  H   H5        1.0  0.443149685299737  0.15365030161191132  0.22431516470119556  1.0000
  H   H6        1.0  0.5568487823262344  0.8463560992895508  0.7756787490958529  1.0000
  H   H7        1.0  0.9610247035163724  0.0973467005175834  0.39412821130922987  1.0000
  H   H8        1.0  0.038974998411951844  0.9026389015802394  0.6058722207506759  1.0000
  H   H9        1.0  0.05410440662112852  0.16594776582646628  0.7845847469532357  1.0000
  H   H10       1.0  0.9459196553140857  0.8340615593265991  0.21540994807976693  1.0000
  H   H11       1.0  0.648219058132355  0.6370579780000156  0.29353463240916255  1.0000
  H   H12       1.0  0.35179190804786487  0.3629276440008979  0.7064690990610669  1.0000
  H   H13       1.0  0.5259614109086286  0.2718702454231945  0.46160830910324074  1.0000
  H   H14       1.0  0.4740338648465326  0.7281233602775288  0.5383939827683759  1.0000
  H   H15       1.0  0.844752653503491  0.6423933665604907  0.4060370306388633  1.0000
  H   H16       1.0  0.1552482861386579  0.35759229170643897  0.5939671683264081  1.0000
  H   H17       1.0  0.8824430866570906  0.46256216335754635  0.5468288475910653  1.0000
  H   H18       1.0  0.11754966425954905  0.5374315222290987  0.4531780240535994  1.0000
  H   H19       1.0  0.35218822272064193  0.8616599015937609  0.9861290880972856  1.0000
  H   H20       1.0  0.6478007378482715  0.1383547840871557  0.013883495742064204  1.0000
  H   H21       1.0  0.8208026438382419  0.037519179942087484  0.8175557953963162  1.0000
  H   H22       1.0  0.17922047523137508  0.9624940767182936  0.18243562698489058  1.0000
  H   H23       1.0  0.497627302840492  0.9705849978743756  0.3622993817106774  1.0000
  H   H24       1.0  0.5023650851860425  0.029415431795037295  0.6376934161149349  1.0000
  C   C1        1.0  0.9539545726265362  0.8779836965665098  0.9191687717931172  1.0000
  C   C2        1.0  0.04604653290046909  0.12203258578963978  0.0808211895262119  1.0000
  C   C3        1.0  0.5745080582442341  0.4552453355552686  0.371491951094029  1.0000
  C   C4        1.0  0.4255055588398876  0.5447501173150328  0.6285046401132702  1.0000
  C   C5        1.0  0.21827492727116038  0.019919423993734094  0.882736677921464  1.0000
  C   C6        1.0  0.781739791870038  0.9800870798484025  0.1172666771087947  1.0000
  C   C7        1.0  0.672159373652015  0.22528749018809444  0.23046245685773661  1.0000
  C   C8        1.0  0.32783974199133326  0.7747109915296377  0.7695342353375378  1.0000
  C   C9        1.0  0.5577997276186011  0.1395042154229458  0.26082963874603127  1.0000
  C   C10       1.0  0.442193667606503  0.8604972330582823  0.7391648327079139  1.0000
  C   C11       1.0  0.8173107873491859  0.2101166925195912  0.2784316586625549  1.0000
  C   C12       1.0  0.18268253574123608  0.7898798359936876  0.7215663244859767  1.0000
  C   C13       1.0  0.4461913974092013  0.45851857586998784  0.3084227360816385  1.0000
  C   C14       1.0  0.5538136204380991  0.5414709654200608  0.6915760438131926  1.0000
  C   C15       1.0  0.8487694737396366  0.10722939568294264  0.3567884404549488  1.0000
  C   C16       1.0  0.1512297671581706  0.8927581317002975  0.6432078050508991  1.0000
  C   C17       1.0  0.06948493661111141  0.07108778007792442  0.8349356494917043  1.0000
  C   C18       1.0  0.9305333223688947  0.9289196323389245  0.16506288672271552  1.0000
  C   C19       1.0  0.10352321270808318  0.8291793271347743  0.9669745594350656  1.0000
  C   C20       1.0  0.8964650953236346  0.17083809471837702  0.033022181217575095  1.0000
  C   C21       1.0  0.666691706452113  0.5579431876428274  0.35477597583047066  1.0000
  C   C22       1.0  0.3333160381426766  0.44204542240625216  0.6452273306957963  1.0000
  C   C23       1.0  0.7124823446968803  0.3541267945421893  0.5104964603346216  1.0000
  C   C24       1.0  0.28751494805599986  0.6458688386651018  0.489508541236624  1.0000
  C   C25       1.0  0.5977929776300784  0.3515415024009059  0.4497776083467286  1.0000
  C   C26       1.0  0.402199550573023  0.6484531154772738  0.5502252573497797  1.0000
  C   C27       1.0  0.12625103319975756  0.7036477994948811  0.03907621371340748  1.0000
  C   C28       1.0  0.8737446530667156  0.2963597451058035  0.9609265621500709  1.0000
  C   C29       1.0  0.733610027297395  0.0216754621861881  0.3859720401155471  1.0000
  C   C30       1.0  0.2663744790438116  0.978316066804254  0.6140228506582728  1.0000
  C   C31       1.0  0.7770769330995861  0.5603289589051458  0.41769552346106303  1.0000
  C   C32       1.0  0.2229296199103459  0.4396646161133689  0.5823068800356663  1.0000
  C   C33       1.0  0.9366989402555602  0.3036360295394401  0.24951639912008963  1.0000
  C   C34       1.0  0.06330212545195481  0.696359539482799  0.7504852393553065  1.0000
  C   C35       1.0  0.7997991572487635  0.4590782504665967  0.4964455417721111  1.0000
  C   C36       1.0  0.20019430341764638  0.5409124763725045  0.5035631468043533  1.0000
  C   C37       1.0  0.236741831904844  0.9005177940916412  0.948384088589691  1.0000
  C   C38       1.0  0.7632593799912969  0.09949280799504119  0.051624228842072684  1.0000
  C   C39       1.0  0.9380601431352175  0.9983502511374593  0.854058447920373  1.0000
  C   C40       1.0  0.061949968728434585  0.0016650267261581991  0.14593256006078545  1.0000
  C   C41       1.0  0.5878149384460869  0.0371848963972639  0.3385311642741016  1.0000
  C   C42       1.0  0.4121764397813052  0.9628145245773965  0.6614605974802145  1.0000
  I   I1        1.0  0.7577010029959013  0.19695299018237478  0.6265664357208747  1.0000
  I   I2        1.0  0.24227125653789733  0.8030478054138044  0.37344578624902164  1.0000
  I   I3        1.0  0.7714648688710001  0.8699811332672096  0.5051347648929436  1.0000
  I   I4        1.0  0.22852171880089858  0.1300173735489309  0.49486123655705677  1.0000
  I   I5        1.0  0.4244487998312819  0.12121191190122718  0.8539980716261723  1.0000
  I   I6        1.0  0.5755702499432404  0.8787817594236029  0.1460126733003264  1.0000
  O   O1        1.0  0.9126360004513503  0.4010733717342416  0.17862748959764468  1.0000
  O   O2        1.0  0.08736160275319088  0.5989261884471092  0.8213741808849306  1.0000
  O   O3        1.0  0.06764060572034229  0.2905485949849194  0.29433189692594647  1.0000
  O   O4        1.0  0.9323549674836188  0.7094489882751629  0.7056702516422033  1.0000
  O   O5        1.0  0.33492395147543863  0.383874034608624  0.33105251091802756  1.0000
  O   O6        1.0  0.6650852620297626  0.6161084657212399  0.6689423158880672  1.0000
  O   O7        1.0  0.29532618515879966  0.3735974213058029  0.1325437690067233  1.0000
  O   O8        1.0  0.7046504682329485  0.6264111640534367  0.867458427689982  1.0000
  O   O9        1.0  0.011308844814088628  0.6322463854214675  0.06121867214137919  1.0000
  O   O10       1.0  0.9886749031773905  0.3677691596304555  0.9387844014839715  1.0000
  O   O11       1.0  0.04633636835065857  0.5974657232652306  0.2557680699331469  1.0000
  O   O12       1.0  0.953682589165922  0.4025179057825099  0.7442369472416954  1.0000
  O   O13       1.0  0.26530776192051064  0.666146618383216  0.08162650206246269  1.0000
  O   O14       1.0  0.7346845740945868  0.3338540136273878  0.9183790469039719  1.0000
  O   O15       1.0  0.43941640556932526  0.5396161827177224  0.23006427158954068  1.0000
  O   O16       1.0  0.5605829841176727  0.4603863676129052  0.7699380153156312  1.0000
