data_image0
_chemical_formula_structural       CdH12C16N10O6
_chemical_formula_sum              "Cd1 H12 C16 N10 O6"
_cell_length_a       7.729481313033233
_cell_length_b       7.451637152185205
_cell_length_c       9.714374655259698
_cell_angle_alpha    83.45057140602056
_cell_angle_beta     65.78476909233974
_cell_angle_gamma    80.43348786632912

_space_group_name_H-M_alt    "P 1"
_space_group_IT_number       1

loop_
  _space_group_symop_operation_xyz
  'x, y, z'

loop_
  _atom_site_type_symbol
  _atom_site_label
  _atom_site_symmetry_multiplicity
  _atom_site_fract_x
  _atom_site_fract_y
  _atom_site_fract_z
  _atom_site_occupancy
  Cd  Cd1       1.0  0.5000241733024067  0.4999894822664998  0.4999963675074993  1.0000
  H   H1        1.0  0.6882257239306493  0.4738098488907739  0.9610833421029312  1.0000
  H   H2        1.0  0.31177696092856155  0.5262013655020965  0.038914234452455794  1.0000
  H   H3        1.0  0.5960532746197483  0.2606685875273698  0.020319864368865098  1.0000
  H   H4        1.0  0.40394005339664546  0.7393479923192742  0.9796811079138124  1.0000
  H   H5        1.0  0.6317294480891105  0.3549528430289115  0.838014752900477  1.0000
  H   H6        1.0  0.3682571980206147  0.6450704906090577  0.16198765657971143  1.0000
  H   H7        1.0  0.18347998088136558  0.8378253455337942  0.7638776111174721  1.0000
  H   H8        1.0  0.8165131323184622  0.16218977553382527  0.2361019226477198  1.0000
  H   H9        1.0  0.4313930727395314  0.0441690392341201  0.7171726359022728  1.0000
  H   H10       1.0  0.5685922278430692  0.9558351696816914  0.2828308011900446  1.0000
  H   H11       1.0  0.014795150140315598  0.4919725410593613  0.8528601571734595  1.0000
  H   H12       1.0  0.9851957181225752  0.5080317348263037  0.14714365078385322  1.0000
  C   C1        1.0  0.25558678248982136  0.24076303274295438  0.43731922125971306  1.0000
  C   C2        1.0  0.7444284791284799  0.7592074279791065  0.5626914602654052  1.0000
  C   C3        1.0  0.9384219848285014  0.2705537161395526  0.46828397285447904  1.0000
  C   C4        1.0  0.06159998397697553  0.7293990906671154  0.531730324575932  1.0000
  C   C5        1.0  0.6911338342773159  0.3392911993641051  0.9245664760336821  1.0000
  C   C6        1.0  0.3088663681732128  0.6607268171100527  0.07543229387321301  1.0000
  C   C7        1.0  0.8921539640265759  0.24451226511583707  0.8645535246103719  1.0000
  C   C8        1.0  0.10783737899165394  0.7554919720214031  0.1354398434520476  1.0000
  C   C9        1.0  0.9482408074480656  0.0578721741959569  0.8363445812413629  1.0000
  C   C10       1.0  0.051753464462244325  0.9421402907198982  0.16364925106477562  1.0000
  C   C11       1.0  0.14033755378830642  0.9816927624178716  0.7865308090625902  1.0000
  C   C12       1.0  0.8596408278760489  0.018305845261004105  0.2134587238020558  1.0000
  C   C13       1.0  0.27901901923259215  0.0914745284607221  0.7589768899358305  1.0000
  C   C14       1.0  0.7209881861257441  0.9085462601193584  0.241012313685566  1.0000
  C   C15       1.0  0.03942075004816557  0.34672736463288345  0.8363587849282155  1.0000
  C   C16       1.0  0.960574781140465  0.65328647381547  0.1636335181266445  1.0000
  N   N1        1.0  0.4121801776708691  0.2744794830131099  0.40652578262256617  1.0000
  N   N2        1.0  0.5878447391362085  0.7255142441946916  0.5934717317641471  1.0000
  N   N3        1.0  0.09311295160274813  0.184021315348005  0.4762028254131891  1.0000
  N   N4        1.0  0.9069352417080334  0.8159372115391577  0.5237999598241386  1.0000
  N   N5        1.0  0.7894335367119181  0.33322045181706267  0.4655851084275041  1.0000
  N   N6        1.0  0.2105895267502475  0.6667228438974105  0.5344368888124009  1.0000
  N   N7        1.0  0.8085209642877584  0.9376754838014135  0.8556223012124348  1.0000
  N   N8        1.0  0.19145165371725162  0.062349037264525  0.14437703714300198  1.0000
  N   N9        1.0  0.22745566464001832  0.27353349183083964  0.7828518363180025  1.0000
  N   N10       1.0  0.7725380070327004  0.7264735078707787  0.21714264919981466  1.0000
  O   O1        1.0  0.8504632618372195  0.77160861529714  0.8804895831355067  1.0000
  O   O2        1.0  0.14951469517266952  0.2283982331735217  0.11951275641423821  1.0000
  O   O3        1.0  0.6571160140177524  0.005320616465851901  0.8440401861325312  1.0000
  O   O4        1.0  0.34286660292644194  0.994699963051758  0.15596779910769948  1.0000
  O   O5        1.0  0.35812065911236585  0.3787968087627434  0.7553892431272542  1.0000
  O   O6        1.0  0.6418745035995738  0.6212075076632144  0.24461223300507126  1.0000
