data_image0
_chemical_formula_structural       Si4Ag4H56C48N12O8
_chemical_formula_sum              "Si4 Ag4 H56 C48 N12 O8"
_cell_length_a       9.6953832096544
_cell_length_b       13.259577001643189
_cell_length_c       13.178484620952494
_cell_angle_alpha    113.88043468865678
_cell_angle_beta     90.0047256542815
_cell_angle_gamma    111.42279142593144

_space_group_name_H-M_alt    "P 1"
_space_group_IT_number       1

loop_
  _space_group_symop_operation_xyz
  'x, y, z'

loop_
  _atom_site_type_symbol
  _atom_site_label
  _atom_site_symmetry_multiplicity
  _atom_site_fract_x
  _atom_site_fract_y
  _atom_site_fract_z
  _atom_site_occupancy
  Si  Si1       1.0  0.6357035301492074  0.3630391465383554  0.891121101777621  1.0000
  Si  Si2       1.0  0.2728262854059623  0.6368448354143655  0.6085419081393226  1.0000
  Si  Si3       1.0  0.3642834144806317  0.636952989885579  0.10886739200376641  1.0000
  Si  Si4       1.0  0.7271773929384294  0.36316014424060944  0.39146531009726004  1.0000
  Ag  Ag1       1.0  0.10304642115060153  0.10094809224429471  0.601730978619706  1.0000
  Ag  Ag2       1.0  0.001803203042421005  0.8990912250131302  0.898044149369241  1.0000
  Ag  Ag3       1.0  0.8969542392965622  0.8990549771071276  0.39826941512419006  1.0000
  Ag  Ag4       1.0  0.9981979169181086  0.1009065717913984  0.1019609957138883  1.0000
  H   H1        1.0  0.09890754492847272  0.34944122823675644  0.7271757937794164  1.0000
  H   H2        1.0  0.7495790580682852  0.6510552281055626  0.7732558966548738  1.0000
  H   H3        1.0  0.901087163797044  0.6505581877412399  0.27282012376043957  1.0000
  H   H4        1.0  0.25042873159944895  0.3489497229976309  0.2267497926375341  1.0000
  H   H5        1.0  0.9372770788138638  0.45194774137445404  0.8297697552983861  1.0000
  H   H6        1.0  0.485647520455423  0.5482962221738392  0.6703105287166409  1.0000
  H   H7        1.0  0.06270842401121975  0.5480497653192345  0.17021933796971206  1.0000
  H   H8        1.0  0.5143595232024794  0.45170517225955115  0.32969603497674166  1.0000
  H   H9        1.0  0.5930517324146862  0.09871763351785032  0.7476052336384528  1.0000
  H   H10       1.0  0.4937605894780433  0.9013597296523134  0.7524131976420068  1.0000
  H   H11       1.0  0.4069376063325764  0.9012772293397548  0.252385852971166  1.0000
  H   H12       1.0  0.5062354919539303  0.09863624080525571  0.24758970941275038  1.0000
  H   H13       1.0  0.7681598375252319  0.012032966388709099  0.6479086926731128  1.0000
  H   H14       1.0  0.755363353997815  0.9883042221855689  0.8525072609579495  1.0000
  H   H15       1.0  0.23183878418922194  0.9879639590507667  0.35209762659116706  1.0000
  H   H16       1.0  0.24463845592399033  0.011697019799633807  0.147490894536638  1.0000
  H   H17       1.0  0.07857707534641631  0.12779197844839274  0.8539003502761419  1.0000
  H   H18       1.0  0.9506718026438253  0.8720956294104173  0.6457251202865777  1.0000
  H   H19       1.0  0.9214198641924797  0.8722077716572517  0.14611391275276733  1.0000
  H   H20       1.0  0.04933443603887613  0.12790828292414602  0.3542725703688063  1.0000
  H   H21       1.0  0.2973083827915275  0.2921598016849529  0.8428201621463954  1.0000
  H   H22       1.0  0.005047743910864893  0.7075970427251762  0.6567112496423917  1.0000
  H   H23       1.0  0.702684987085462  0.7078307434377963  0.1571790879751589  1.0000
  H   H24       1.0  0.9949593108423471  0.2924105656406156  0.3432932105964781  1.0000
  H   H25       1.0  0.5857166245188523  0.16230690097911804  0.9593074588721039  1.0000
  H   H26       1.0  0.4233964539149611  0.8374807343957188  0.5405322395166293  1.0000
  H   H27       1.0  0.4142850160848966  0.8376816204823003  0.04067885116415232  1.0000
  H   H28       1.0  0.57661101130914  0.16252150387018827  0.4594716212723569  1.0000
  H   H29       1.0  0.35213370872135397  0.9968876393109344  0.9563524252596453  1.0000
  H   H30       1.0  0.35515034133469914  0.0028632706187394987  0.5433129464882285  1.0000
  H   H31       1.0  0.6478700276260269  0.003109201662312001  0.0436493074298525  1.0000
  H   H32       1.0  0.6448590263799477  0.9971407108869035  0.45668856604891783  1.0000
  H   H33       1.0  0.7976246580704397  0.41647187558166376  0.06595752343060468  1.0000
  H   H34       1.0  0.3820435313482876  0.5836442604976144  0.43401087305136343  1.0000
  H   H35       1.0  0.20236741520445645  0.5835202042483235  0.9340279125728942  1.0000
  H   H36       1.0  0.6179628235207559  0.41636607481147797  0.5659961801261915  1.0000
  H   H37       1.0  0.6921908167467592  0.5081358404347897  0.09367095974282338  1.0000
  H   H38       1.0  0.1849992084602548  0.4919139572683165  0.4058647719462413  1.0000
  H   H39       1.0  0.307803775792415  0.4918571525686772  0.9063155952748617  1.0000
  H   H40       1.0  0.8150050977531933  0.5080964062528113  0.5941438101018549  1.0000
  H   H41       1.0  0.8515816175612728  0.5370997560563212  0.02611763864928204  1.0000
  H   H42       1.0  0.3151046089472943  0.46288945149988364  0.4736796684729115  1.0000
  H   H43       1.0  0.14840999911708522  0.4628914102604329  0.97386667826639  1.0000
  H   H44       1.0  0.6849017459217491  0.5371208838092089  0.5263273847046435  1.0000
  H   H45       1.0  0.536984911933473  0.5097526782130615  0.8849942097492729  1.0000
  H   H46       1.0  0.027358070253704705  0.4902545049911283  0.6144098209343555  1.0000
  H   H47       1.0  0.4630101072235322  0.49024942272993866  0.1150020074971181  1.0000
  H   H48       1.0  0.9726443424297033  0.5097458790555367  0.38559027302936505  1.0000
  H   H49       1.0  0.512323314482387  0.39577723761047423  0.7463439372715611  1.0000
  H   H50       1.0  0.11637612910183764  0.6041887772195269  0.7530958312948997  1.0000
  H   H51       1.0  0.4876683323550495  0.6042284346179728  0.2536521701195937  1.0000
  H   H52       1.0  0.8836211409243758  0.39581163554880305  0.24690579164981588  1.0000
  H   H53       1.0  0.694384874137853  0.5108647526013003  0.8173909336137087  1.0000
  H   H54       1.0  0.18333597431821153  0.48895634239549696  0.682219819424219  1.0000
  H   H55       1.0  0.30560851384051096  0.4891320203899881  0.18260697745177618  1.0000
  H   H56       1.0  0.816664825287937  0.5110449415680096  0.31778062930252565  1.0000
  C   C1        1.0  0.9858251539713482  0.29801503808450763  0.7344574293788567  1.0000
  C   C2        1.0  0.6877738513654776  0.7023969729296909  0.7658770591566083  1.0000
  C   C3        1.0  0.014168537432439753  0.7019844059356473  0.26554001699472  1.0000
  C   C4        1.0  0.3122315652030281  0.29760529354825144  0.23412833050290524  1.0000
  C   C5        1.0  0.8941137294439514  0.3538650324672191  0.7913448283223232  1.0000
  C   C6        1.0  0.5403397207818516  0.6464071247808792  0.7087689169157871  1.0000
  C   C7        1.0  0.10587604488165439  0.6461307020951993  0.20864508417978564  1.0000
  C   C8        1.0  0.4596637722779064  0.3535933566489008  0.2912365278002298  1.0000
  C   C9        1.0  0.749742595332826  0.2842048031187261  0.800385765127956  1.0000
  C   C10       1.0  0.4654764954907194  0.7159226785417092  0.6995689068919974  1.0000
  C   C11       1.0  0.2502451093189749  0.7157909178473008  0.1996033830493502  1.0000
  C   C12       1.0  0.5345276003306338  0.28407694494953273  0.3004384762931522  1.0000
  C   C13       1.0  0.704399077061268  0.15904062274497488  0.7460127774665892  1.0000
  C   C14       1.0  0.5449572787333565  0.8411103440144247  0.7540675055037696  1.0000
  C   C15       1.0  0.295595742798966  0.8409569521005411  0.2539801374623423  1.0000
  C   C16       1.0  0.4550405870483801  0.1588891968792154  0.2459352915116355  1.0000
  C   C17       1.0  0.8021274877442932  0.10926166295664795  0.6904567160362803  1.0000
  C   C18       1.0  0.6923606336963816  0.891057762479548  0.8098504509922577  1.0000
  C   C19       1.0  0.19786876496018393  0.8907387778538409  0.3095464357421562  1.0000
  C   C20       1.0  0.307644615688865  0.10894623364174551  0.1901518260906272  1.0000
  C   C21       1.0  0.1928889865446592  0.13733038457704083  0.874578085173468  1.0000
  C   C22       1.0  0.055424364400501296  0.8624521684262589  0.6249952743635417  1.0000
  C   C23       1.0  0.8071097953469888  0.8626647972829461  0.12543058226899717  1.0000
  C   C24       1.0  0.9445857633361144  0.1375553976214832  0.37500689256952313  1.0000
  C   C25       1.0  0.3167076735466665  0.2301682634200405  0.8699802208998265  1.0000
  C   C26       1.0  0.08640081752968616  0.7695912127786928  0.6295733880756417  1.0000
  C   C27       1.0  0.6832855641773959  0.7698240810267619  0.13001973863732252  1.0000
  C   C28       1.0  0.9136087775060061  0.23041735056900592  0.3704344843727513  1.0000
  C   C29       1.0  0.4628184023820268  0.24228999456783384  0.8994318904299377  1.0000
  C   C30       1.0  0.22041172706844497  0.7574708341824137  0.6001691462828731  1.0000
  C   C31       1.0  0.5371775558575396  0.7576995389790685  0.10056088970419816  1.0000
  C   C32       1.0  0.7795993699098033  0.24253867038091675  0.3998413740134126  1.0000
  C   C33       1.0  0.47558156617969155  0.15772559179349344  0.9335196466340676  1.0000
  C   C34       1.0  0.3177538679188317  0.8420234884657349  0.5661338594913445  1.0000
  C   C35       1.0  0.5244194025641564  0.8422657123557972  0.06647231393466065  1.0000
  C   C36       1.0  0.6822568906036536  0.15798327538802687  0.43387330350463327  1.0000
  C   C37       1.0  0.34647331127094816  0.06543842632261491  0.9328073907978053  1.0000
  C   C38       1.0  0.28088122144790634  0.9342924115454423  0.5668014369848464  1.0000
  C   C39       1.0  0.6535302467978639  0.9345539303615742  0.06719333276956259  1.0000
  C   C40       1.0  0.7191296412032173  0.0657124972396943  0.4332019590017566  1.0000
  C   C41       1.0  0.7549813133247554  0.4656991746267282  0.03345839056417079  1.0000
  C   C42       1.0  0.2899710570105968  0.5343217455842011  0.46629701402711293  1.0000
  C   C43       1.0  0.24501089910913273  0.5342911198153502  0.9665271004221836  1.0000
  C   C44       1.0  0.7100342665245732  0.4656885898947679  0.5337100391872626  1.0000
  C   C45       1.0  0.587580003162067  0.4515316225928317  0.8281474793391581  1.0000
  C   C46       1.0  0.13604811580974305  0.5483765686691557  0.671375477612486  1.0000
  C   C47       1.0  0.4124095418880529  0.5484677802984024  0.17184767398636314  1.0000
  C   C48       1.0  0.8639522412119974  0.45162382965340003  0.32862538082332554  1.0000
  N   N1        1.0  0.9422098597482174  0.1777076621398451  0.6855685082378358  1.0000
  N   N2        1.0  0.7641356957331382  0.8226817146321256  0.8147989945571581  1.0000
  N   N3        1.0  0.05778757045518315  0.8222910070489964  0.3144354628850722  1.0000
  N   N4        1.0  0.23586808673989884  0.17732140995423154  0.1852044566700499  1.0000
  N   N5        1.0  0.20688774399573623  0.05483851722170392  0.9036994113704253  1.0000
  N   N6        1.0  0.15188722570599827  0.9449394334738201  0.5958806756899832  1.0000
  N   N7        1.0  0.793110295975332  0.9451593079647369  0.09630726262005848  1.0000
  N   N8        1.0  0.8481215602652482  0.0550654477787873  0.40412119157337406  1.0000
  N   N9        1.0  0.34930077432436235  0.27387953193254333  0.53871452150306  1.0000
  N   N10       1.0  0.075589328545668  0.7261649313020159  0.9612343983235406  1.0000
  N   N11       1.0  0.6507086003963494  0.726124463509244  0.4612877554325294  1.0000
  N   N12       1.0  0.9244107110385114  0.2738327681193979  0.03876539600728528  1.0000
  O   O1        1.0  0.3114960363194826  0.16067977351453075  0.5025469610192346  1.0000
  O   O2        1.0  0.15012853870152315  0.8394626947123601  0.9972291802815293  1.0000
  O   O3        1.0  0.688514244588248  0.8393260350175783  0.49745678969357243  1.0000
  O   O4        1.0  0.8498715639372777  0.16053513013432766  0.002777493635313992  1.0000
  O   O5        1.0  0.2747252923611185  0.3178506206541912  0.6089087363511538  1.0000
  O   O6        1.0  0.9572943409175282  0.6814921728240864  0.8906323191993906  1.0000
  O   O7        1.0  0.725273270387966  0.6821523793562678  0.39108783547415277  1.0000
  O   O8        1.0  0.042706887260884285  0.3185099689080816  0.10936619102140809  1.0000
