data_image0
_chemical_formula_structural       Zn4H46C59N4O20
_chemical_formula_sum              "Zn4 H46 C59 N4 O20"
_cell_length_a       9.778501048030279
_cell_length_b       11.05369856977533
_cell_length_c       22.20684325859041
_cell_angle_alpha    90.05065051270977
_cell_angle_beta     89.26349711190713
_cell_angle_gamma    89.99948825988132

_space_group_name_H-M_alt    "P 1"
_space_group_IT_number       1

loop_
  _space_group_symop_operation_xyz
  'x, y, z'

loop_
  _atom_site_type_symbol
  _atom_site_label
  _atom_site_symmetry_multiplicity
  _atom_site_fract_x
  _atom_site_fract_y
  _atom_site_fract_z
  _atom_site_occupancy
  Zn  Zn1       1.0  0.6560706820569918  0.4992685084991992  0.493377370361479  1.0000
  Zn  Zn2       1.0  0.3713048912673287  0.5001719138677958  0.5014784844423588  1.0000
  Zn  Zn3       1.0  0.34162612597125264  0.5185237819101047  0.9963694883960627  1.0000
  Zn  Zn4       1.0  0.6269652567104769  0.5102701300978867  0.9985595294488832  1.0000
  H   H1        1.0  0.1614012083428307  0.3730744243996825  0.4363326043669247  1.0000
  H   H2        1.0  0.10880966049857216  0.6223032104645442  0.6348431237443961  1.0000
  H   H3        1.0  0.1191867290438111  0.7420346529664387  0.5811331392456225  1.0000
  H   H4        1.0  0.8608397810503586  0.7353286772695001  0.5706116894011827  1.0000
  H   H5        1.0  0.8529596364789853  0.6140956282490252  0.6236319456332423  1.0000
  H   H6        1.0  0.7171236324755766  0.88502503048624  0.5307625491680099  1.0000
  H   H7        1.0  0.2237660174108882  0.8891914657148379  0.4294396611910827  1.0000
  H   H8        1.0  0.17468004406986637  0.8881359882436329  0.5069919334846205  1.0000
  H   H9        1.0  0.1780531481248318  0.11552997607797978  0.5089639310819507  1.0000
  H   H10       1.0  0.2274354657295135  0.11699853321491101  0.43115885373302376  1.0000
  H   H11       1.0  0.6791382374454213  0.31808298943910535  0.8625025497231817  1.0000
  H   H12       1.0  0.7270711805605145  0.332770111507088  0.6405395024208643  1.0000
  H   H13       1.0  0.2750971957742294  0.5246352722569299  0.19244942342569965  1.0000
  H   H14       1.0  0.8152523573624177  0.4508862596989972  0.18832577575133058  1.0000
  H   H15       1.0  0.8116525018906555  0.611870636117857  0.1927120067752099  1.0000
  H   H16       1.0  0.8089490293235285  0.5978804998981746  0.3066367544270888  1.0000
  H   H17       1.0  0.8105011984951459  0.43712273888854747  0.3007116756398531  1.0000
  H   H18       1.0  0.8497671246136206  0.3921041800346644  0.069430621184182  1.0000
  H   H19       1.0  0.8568376077579244  0.6081185448625845  0.8624333572461322  1.0000
  H   H20       1.0  0.8520560980671091  0.736531100301228  0.9113645911616857  1.0000
  H   H21       1.0  0.11302014525873717  0.7386397615404621  0.9113176612836398  1.0000
  H   H22       1.0  0.11142640161648387  0.6108385841177935  0.8620089965766907  1.0000
  H   H23       1.0  0.27561563906729697  0.8983297766073335  0.962016615049734  1.0000
  H   H24       1.0  0.7812186757799182  0.899817609785558  0.0510431094750032  1.0000
  H   H25       1.0  0.8213519440990352  0.9122642971670064  0.9727367100472009  1.0000
  H   H26       1.0  0.8126603758302264  0.1392064832451538  0.9809515807875967  1.0000
  H   H27       1.0  0.7660932355298015  0.12713592500711002  0.058397344685204196  1.0000
  H   H28       1.0  0.8968660098207194  0.24838464815522343  0.426602105063786  1.0000
  H   H29       1.0  0.7869323538571037  0.3662029533006931  0.4027073283701199  1.0000
  H   H30       1.0  0.9540087278819342  0.349216347132618  0.3697488651298145  1.0000
  H   H31       1.0  0.817768490209616  0.15859165642323353  0.5023525013116554  1.0000
  H   H32       1.0  0.739405725151222  0.19830162356780798  0.5711122749343787  1.0000
  H   H33       1.0  0.8250673586969056  0.05541821523994629  0.5638281591451102  1.0000
  H   H34       1.0  0.20974867407622355  0.4233451793710474  0.3325796941413515  1.0000
  H   H35       1.0  0.21395573938423235  0.5804592643039329  0.3441079490904855  1.0000
  H   H36       1.0  0.1467230511087081  0.5216765488020699  0.2755643419002638  1.0000
  H   H37       1.0  0.049251447878354795  0.3188951718640283  0.1120925292777741  1.0000
  H   H38       1.0  0.19702189921957106  0.3072003001208899  0.06373670433004719  1.0000
  H   H39       1.0  0.18414986880558357  0.4290947801689385  0.113836281600328  1.0000
  H   H40       1.0  0.17939725791158165  0.18506543978287487  0.9895154801400493  1.0000
  H   H41       1.0  0.24125286453013214  0.19503974281215625  0.915093965487749  1.0000
  H   H42       1.0  0.15578101753619933  0.060941618056176594  0.9394029466353754  1.0000
  H   H43       1.0  0.34034834536353736  0.5903934521985903  0.6410144045302103  1.0000
  H   H44       1.0  0.31461249315560014  0.5898580526656333  0.8467287614579888  1.0000
  H   H45       1.0  0.827540074004332  0.1632147302538414  0.8577034275284204  1.0000
  H   H46       1.0  0.8770678077836677  0.17830289919659495  0.6515865647510637  1.0000
  C   C1        1.0  0.5110259544275236  0.7338234274086516  0.500122545565965  1.0000
  C   C2        1.0  0.5323032257196373  0.49263847381954673  0.6166504133764903  1.0000
  C   C3        1.0  0.5078877003958979  0.26450227840282997  0.5023927738288592  1.0000
  C   C4        1.0  0.4984623854463022  0.5023406012112162  0.37991745485411604  1.0000
  C   C5        1.0  0.4826578399070127  0.7486656437330127  0.9875608869711172  1.0000
  C   C6        1.0  0.49912432974684845  0.493702839462877  0.8776853408479043  1.0000
  C   C7        1.0  0.48270724730401326  0.27829977955921953  0.9951377071011506  1.0000
  C   C8        1.0  0.494320160338013  0.5268772347074561  0.1154109549044904  1.0000
  C   C9        1.0  0.07579930290980737  0.5636597514456342  0.5405226617531369  1.0000
  C   C10       1.0  0.952932604551563  0.42413204097399426  0.458489033709249  1.0000
  C   C11       1.0  0.9341239247224703  0.5605044353733531  0.5345540235765682  1.0000
  C   C12       1.0  0.09550360717418019  0.4279916709859678  0.465319449404447  1.0000
  C   C13       1.0  0.07093323590376599  0.6546621356327549  0.5914133086097023  1.0000
  C   C14       1.0  0.9094075167604739  0.6507128583125878  0.5847006350011199  1.0000
  C   C15       1.0  0.5085424483608634  0.8684222248838509  0.5035829878479774  1.0000
  C   C16       1.0  0.5105051578771764  0.12964861640476505  0.5061988833818631  1.0000
  C   C17       1.0  0.3922838763847806  0.9363453619838822  0.4912910857070614  1.0000
  C   C18       1.0  0.6291288098354642  0.06210625656120782  0.5213616004009154  1.0000
  C   C19       1.0  0.39413292890515084  0.06254188555418952  0.49275511636527364  1.0000
  C   C20       1.0  0.6250228269485019  0.9354213618901357  0.5194706203127808  1.0000
  C   C21       1.0  0.2433004877309273  0.9303555606320092  0.47352981904901276  1.0000
  C   C22       1.0  0.245262126910994  0.07341097658014921  0.47487303476471954  1.0000
  C   C23       1.0  0.5052842889737618  0.4789997204511991  0.8113529245913825  1.0000
  C   C24       1.0  0.6060459430013693  0.4043573000316415  0.7815506500498158  1.0000
  C   C25       1.0  0.4099074496914169  0.5427073605017014  0.7774613273558799  1.0000
  C   C26       1.0  0.6886773183291551  0.3219009563661714  0.8136112223279355  1.0000
  C   C27       1.0  0.778833427131367  0.24401904703024974  0.7850652468715039  1.0000
  C   C28       1.0  0.5248306005111301  0.4813008235012148  0.6830949505973365  1.0000
  C   C29       1.0  0.4187524645553537  0.5431598034645975  0.7132733695613211  1.0000
  C   C30       1.0  0.6177363583904665  0.4069813491112697  0.7170943294243983  1.0000
  C   C31       1.0  0.7152631115080509  0.32950813130289464  0.6892975636225174  1.0000
  C   C32       1.0  0.7934842198924698  0.24875451798025242  0.7216014631353714  1.0000
  C   C33       1.0  0.4933543204518215  0.5259419976303124  0.18260125470956007  1.0000
  C   C34       1.0  0.4903626017687797  0.5119145603243213  0.312841958089038  1.0000
  C   C35       1.0  0.6131282800153385  0.5254414147173279  0.21574284065518867  1.0000
  C   C36       1.0  0.3659590928703692  0.5145639363515359  0.27987909064199806  1.0000
  C   C37       1.0  0.6107589233105627  0.5189873022950381  0.27848017332672004  1.0000
  C   C38       1.0  0.3712636976606659  0.5218591168909726  0.2167561686004618  1.0000
  C   C39       1.0  0.7678336832028094  0.5283945208690994  0.21156380523703427  1.0000
  C   C40       1.0  0.7656176283750609  0.5202416510963064  0.2825714402078106  1.0000
  C   C41       1.0  0.9119926057897131  0.5668273557389014  0.9559669453810358  1.0000
  C   C42       1.0  0.05255073320653738  0.4421833433923794  0.0378633432173672  1.0000
  C   C43       1.0  0.05452551651930548  0.5673238832135397  0.9566210663876334  1.0000
  C   C44       1.0  0.9091059469722393  0.443323796852198  0.0363486971059572  1.0000
  C   C45       1.0  0.9025130314497075  0.6496395821825587  0.9023492330559577  1.0000
  C   C46       1.0  0.06497982564675198  0.6507730351950088  0.9025698365139974  1.0000
  C   C47       1.0  0.48718033803448424  0.8832531200731426  0.9839705317419741  1.0000
  C   C48       1.0  0.4793523561414473  0.14435902603832323  0.9871560448162668  1.0000
  C   C49       1.0  0.6040886587714026  0.9515488173294319  0.9944211976113948  1.0000
  C   C50       1.0  0.36093523715489073  0.07634863978460521  0.9713690404162847  1.0000
  C   C51       1.0  0.5983321804892013  0.0775793875255246  0.9969144315134174  1.0000
  C   C52       1.0  0.3680805203381467  0.949634830416656  0.971662041665148  1.0000
  C   C53       1.0  0.7550090078760405  0.9468588460146637  0.009211490397909498  1.0000
  C   C54       1.0  0.7479121266832889  0.08949851947181033  0.013385793845891697  1.0000
  C   C55       1.0  0.8934999062896052  0.34316875802783653  0.4116550603552582  1.0000
  C   C56       1.0  0.7600921161407611  0.12163737335549028  0.5408841589725809  1.0000
  C   C57       1.0  0.2264088370375106  0.5101108737174515  0.3095023351288972  1.0000
  C   C58       1.0  0.12342664099145396  0.36987402339914166  0.0847785715937519  1.0000
  C   C59       1.0  0.22713413702224727  0.13235075086368653  0.9530232278228324  1.0000
  N   N1        1.0  0.16008450962714696  0.4985179279578916  0.5059231644904756  1.0000
  N   N2        1.0  0.8689600338107297  0.49350778572409837  0.4941004360535644  1.0000
  N   N3        1.0  0.8362506016432218  0.5065984903677433  0.9956796415174693  1.0000
  N   N4        1.0  0.12845006126433836  0.5077012098251715  0.9969042227762158  1.0000
  O   O1        1.0  0.6253410649767871  0.680406828813652  0.5076570162012145  1.0000
  O   O2        1.0  0.3971225587647708  0.6822265778411635  0.4894533763443292  1.0000
  O   O3        1.0  0.42190698525654813  0.5298185062328216  0.5902072726899945  1.0000
  O   O4        1.0  0.6413282381581735  0.46938864936304736  0.5872523145201923  1.0000
  O   O5        1.0  0.39448887977108166  0.3169010286754954  0.5142449983173307  1.0000
  O   O6        1.0  0.6183447822995872  0.31715995173605194  0.48615043127530555  1.0000
  O   O7        1.0  0.6158247723720363  0.5214615439358069  0.4028431605130152  1.0000
  O   O8        1.0  0.3903932564486751  0.4753613599380344  0.40975726567814513  1.0000
  O   O9        1.0  0.36453739691149417  0.7002881107179065  0.9927280128909715  1.0000
  O   O10       1.0  0.5967189380658835  0.6928570344423052  0.9862210037545296  1.0000
  O   O11       1.0  0.6069154629998861  0.47906671772680925  0.9080067705179077  1.0000
  O   O12       1.0  0.3829412422427652  0.5251597052514969  0.901662433045473  1.0000
  O   O13       1.0  0.5977028834857235  0.32526032685147044  0.0079953483957311  1.0000
  O   O14       1.0  0.3710262647147288  0.33708857485904536  0.9893554271651226  1.0000
  O   O15       1.0  0.3798861713996117  0.5230822590673797  0.0885817218658929  1.0000
  O   O16       1.0  0.611688243941529  0.5295183193967645  0.08975147845256258  1.0000
  O   O17       1.0  0.321633375186522  0.6076938439274997  0.6852821370810247  1.0000
  O   O18       1.0  0.3075290382420943  0.608466439930723  0.8022724586108013  1.0000
  O   O19       1.0  0.8553340030883587  0.16008948328028796  0.8154307690454631  1.0000
  O   O20       1.0  0.8848497528622231  0.17015268567761413  0.6951001696091055  1.0000
