data_image0
_chemical_formula_structural       Sr4H16C20N8O20
_chemical_formula_sum              "Sr4 H16 C20 N8 O20"
_cell_length_a       6.179367103487073
_cell_length_b       9.276587030113074
_cell_length_c       12.040406293001318
_cell_angle_alpha    90.00003778271545
_cell_angle_beta     90.00003076234884
_cell_angle_gamma    99.5222790228049

_space_group_name_H-M_alt    "P 1"
_space_group_IT_number       1

loop_
  _space_group_symop_operation_xyz
  'x, y, z'

loop_
  _atom_site_type_symbol
  _atom_site_label
  _atom_site_symmetry_multiplicity
  _atom_site_fract_x
  _atom_site_fract_y
  _atom_site_fract_z
  _atom_site_occupancy
  Sr  Sr1       1.0  0.23568931027773488  0.007301882496314198  0.37831367991670095  1.0000
  Sr  Sr2       1.0  0.7356905047194003  0.007303170342247301  0.12168619602601888  1.0000
  Sr  Sr3       1.0  0.7643091192342624  0.9926971756219772  0.6216870168201323  1.0000
  Sr  Sr4       1.0  0.26431142665907  0.9926969932207754  0.8783136701748189  1.0000
  H   H1        1.0  0.9785382325680202  0.7483891877967749  0.2367963186377365  1.0000
  H   H2        1.0  0.47853715093453536  0.7483888769334113  0.26320399660638566  1.0000
  H   H3        1.0  0.021463436553517592  0.2516098827409862  0.7632043780995513  1.0000
  H   H4        1.0  0.5214599210296242  0.25161126800041694  0.7367958695937771  1.0000
  H   H5        1.0  0.1504760298444623  0.8469450878552749  0.15521841759863964  1.0000
  H   H6        1.0  0.6504753696153286  0.8469444083442281  0.3447818569423545  1.0000
  H   H7        1.0  0.8495256392776155  0.1530539826829056  0.8447831096754042  1.0000
  H   H8        1.0  0.34952332215360116  0.15305574279933148  0.6552180092580285  1.0000
  H   H9        1.0  0.1332647431376088  0.5925904910971909  0.7958562012509699  1.0000
  H   H10       1.0  0.6332644248303865  0.59259185585924  0.7041434180504208  1.0000
  H   H11       1.0  0.8667336863733154  0.4074085670202622  0.20414283441235165  1.0000
  H   H12       1.0  0.3667342669385434  0.40740829528431977  0.2958564481499621  1.0000
  H   H13       1.0  0.3132847830268872  0.59866957219716  0.45800799376510765  1.0000
  H   H14       1.0  0.8132845164528747  0.5986718665188062  0.041992200767694485  1.0000
  H   H15       1.0  0.6867182436414083  0.40132841152422566  0.5419918724353321  1.0000
  H   H16       1.0  0.18671391305858984  0.40132719159906566  0.9580076654323829  1.0000
  C   C1        1.0  0.19652952867540566  0.2846800461422135  0.5132784589244037  1.0000
  C   C2        1.0  0.6965295772439359  0.284681695772818  0.9867210230112274  1.0000
  C   C3        1.0  0.8034724027030578  0.7153201174208162  0.4867214072764339  1.0000
  C   C4        1.0  0.3034688522675211  0.715317362345054  0.013278843188849997  1.0000
  C   C5        1.0  0.19906738790581358  0.41953574972586677  0.579285401957385  1.0000
  C   C6        1.0  0.6990657309715971  0.41953732660470416  0.9207141484600708  1.0000
  C   C7        1.0  0.8009361632779672  0.5804644200473135  0.42071529478042874  1.0000
  C   C8        1.0  0.30093134099256263  0.5804628183291172  0.07928571774009187  1.0000
  C   C9        1.0  0.2573004035586095  0.5634197030603828  0.5402169970608881  1.0000
  C   C10       1.0  0.75729879734822  0.5634213193248244  0.9597834722336739  1.0000
  C   C11       1.0  0.7427015278198538  0.4365804605026398  0.4597828691399427  1.0000
  C   C12       1.0  0.24269989442070994  0.43657883181873547  0.040216393966709084  1.0000
  C   C13       1.0  0.21911354289683518  0.6517575729351532  0.6285246652739713  1.0000
  C   C14       1.0  0.7191134418397738  0.6517591063857536  0.8714758379187939  1.0000
  C   C15       1.0  0.7808897460294731  0.3482415038123391  0.3714760314635369  1.0000
  C   C16       1.0  0.2808868697339264  0.34824105096753744  0.12852402828181647  1.0000
  C   C17       1.0  0.23238277115806483  0.8128180986010135  0.6305005545225624  1.0000
  C   C18       1.0  0.7323859071447245  0.8128196424787999  0.8694992027395113  1.0000
  C   C19       1.0  0.7676137762916966  0.1871798602818586  0.369500142213738  1.0000
  C   C20       1.0  0.2676157619762733  0.18717942805854185  0.1305006634610137  1.0000
  N   N1        1.0  0.1339535266696572  0.4189716794400552  0.6871139800693555  1.0000
  N   N2        1.0  0.6339536118018642  0.4189742468515546  0.8128855521539574  1.0000
  N   N3        1.0  0.8660497622561041  0.5810273973070182  0.31288588613139  1.0000
  N   N4        1.0  0.36604534222453833  0.581026997317693  0.18711431404674522  1.0000
  N   N5        1.0  0.1449849878691722  0.5600287474072727  0.7141189197029829  1.0000
  N   N6        1.0  0.6449847756829427  0.5600301945692435  0.7858806864555131  1.0000
  N   N7        1.0  0.855018301056596  0.43997032933980035  0.28588094649776946  1.0000
  N   N8        1.0  0.3550139160859871  0.4399699565743092  0.21411917974486974  1.0000
  O   O1        1.0  0.2696527929576717  0.2959427726606165  0.415297558934945  1.0000
  O   O2        1.0  0.7696523195778229  0.2959440170131842  0.0847024714326921  1.0000
  O   O3        1.0  0.730345898810718  0.704057378482524  0.5847014767286821  1.0000
  O   O4        1.0  0.23034637219110726  0.7040561341303758  0.915297394767691  1.0000
  O   O5        1.0  0.12168271596559779  0.15977505418773316  0.5578541555438077  1.0000
  O   O6        1.0  0.6216840642079332  0.1597755720652643  0.9421452430209666  1.0000
  O   O7        1.0  0.8783178578650278  0.8402261961908337  0.4421448801203524  1.0000
  O   O8        1.0  0.3783159851082942  0.8402234922623392  0.05785462317933108  1.0000
  O   O9        1.0  0.35375662445202494  0.8839021321573598  0.5566700240344458  1.0000
  O   O10       1.0  0.8537658109983894  0.8839015892518276  0.9433298023444362  1.0000
  O   O11       1.0  0.6462323484877501  0.11609798172737837  0.44332901162783844  1.0000
  O   O12       1.0  0.1462418128262044  0.1160953200726595  0.05666923331961018  1.0000
  O   O13       1.0  0.11792838771980742  0.8686413355662735  0.7014375277940698  1.0000
  O   O14       1.0  0.6179319561242593  0.868644993984624  0.7985647176545069  1.0000
  O   O15       1.0  0.8820660154113182  0.13135443105632308  0.29856483001489653  1.0000
  O   O16       1.0  0.3820704997702292  0.13135735563061957  0.20143680962046764  1.0000
  O   O17       1.0  0.026853142769027748  0.8492187123429956  0.20703891160665214  1.0000
  O   O18       1.0  0.5268540350651421  0.8492179868010579  0.2929613300719466  1.0000
  O   O19       1.0  0.973145548999902  0.15078143880056416  0.7929609545937307  1.0000
  O   O20       1.0  0.47314491896125327  0.15078325736818948  0.7070385361287489  1.0000
