data_image0
_chemical_formula_structural       Al4H35C64BrO20
_chemical_formula_sum              "Al4 H35 C64 Br1 O20"
_cell_length_a       6.676867425634214
_cell_length_b       16.48916429153982
_cell_length_c       19.87901386167043
_cell_angle_alpha    70.73016038518087
_cell_angle_beta     90.35185121140748
_cell_angle_gamma    90.2001518670814

_space_group_name_H-M_alt    "P 1"
_space_group_IT_number       1

loop_
  _space_group_symop_operation_xyz
  'x, y, z'

loop_
  _atom_site_type_symbol
  _atom_site_label
  _atom_site_symmetry_multiplicity
  _atom_site_fract_x
  _atom_site_fract_y
  _atom_site_fract_z
  _atom_site_occupancy
  Al  Al1       1.0  0.12205105726274468  0.5009760834732475  0.49936256801015605  1.0000
  Al  Al2       1.0  0.6220494841416838  0.4993545547776819  0.5005072460663771  1.0000
  Al  Al3       1.0  0.6166271280564075  0.9996477446186914  0.00022202799364391855  1.0000
  Al  Al4       1.0  0.11699410682440708  0.0015594302996931038  0.9987470753553969  1.0000
  H   H1        1.0  0.551100512028661  0.7059158177271101  0.3157066637456227  1.0000
  H   H2        1.0  0.5528549001693506  0.8210315302171126  0.19459736891916907  1.0000
  H   H3        1.0  0.190756748716332  0.7977618084824201  0.18479241511980868  1.0000
  H   H4        1.0  0.18884796219445124  0.6823745612215077  0.3058772444483326  1.0000
  H   H5        1.0  0.5938469437925137  0.5793428984854928  0.6776064375477306  1.0000
  H   H6        1.0  0.15805498273251567  0.6945068699874072  0.5939608253873419  1.0000
  H   H7        1.0  0.31578903795686125  0.8034457891584951  0.6396075114793405  1.0000
  H   H8        1.0  0.30953157162822004  0.8878109856444922  0.7220110467724937  1.0000
  H   H9        1.0  0.1503686721477422  0.922339805694392  0.8215098162127322  1.0000
  H   H10       1.0  0.5828002636166261  0.8114794985990487  0.9031185575276272  1.0000
  H   H11       1.0  0.458365284184012  0.6006932231115057  0.7870264937355603  1.0000
  H   H12       1.0  0.09934076139946768  0.19725452804552646  0.08880417706787826  1.0000
  H   H13       1.0  0.6505950708617617  0.0769043851247631  0.18144206765549603  1.0000
  H   H14       1.0  0.803550076888598  0.10978660339929289  0.28349707181193656  1.0000
  H   H15       1.0  0.7980527279104804  0.1895498615555695  0.3694540076963762  1.0000
  H   H16       1.0  0.6434140544045304  0.29902804601048427  0.41285305948423473  1.0000
  H   H17       1.0  0.09345820849564747  0.42128202759492694  0.321193046604087  1.0000
  H   H18       1.0  0.05874512013711808  0.2876849475147836  0.6772364173438278  1.0000
  H   H19       1.0  0.05551794656729919  0.17275761325260672  0.7981292280153699  1.0000
  H   H20       1.0  0.6808760045835242  0.2169129851902198  0.8245165934748119  1.0000
  H   H21       1.0  0.6841176725537466  0.33172541687829243  0.7035858925645472  1.0000
  H   H22       1.0  0.6269597641935221  0.672093036517026  0.9733713635767888  1.0000
  H   H23       1.0  0.378669606346051  0.6287874455657346  0.06978282231710863  1.0000
  H   H24       1.0  0.0254444547049957  0.5979246541650695  0.044381631870528834  1.0000
  H   H25       1.0  0.9262699060411137  0.609601054781912  0.9202871896479157  1.0000
  H   H26       1.0  0.1738787678200779  0.6557089827170939  0.8229856724003215  1.0000
  H   H27       1.0  0.666270807889262  0.35515584433046843  0.20605081822900229  1.0000
  H   H28       1.0  0.4373897247624327  0.4764581444312697  0.1908197598126408  1.0000
  H   H29       1.0  0.5743957320637988  0.6233109743727355  0.1759323867836855  1.0000
  H   H30       1.0  0.9431954479475237  0.644927637972593  0.17418020053089123  1.0000
  H   H31       1.0  0.17147447998400614  0.5221895947941702  0.19138698908003712  1.0000
  H   H32       1.0  0.3750514216017748  0.604449812971204  0.5036379713524113  1.0000
  H   H33       1.0  0.8728024823138014  0.396523570767812  0.495100531198645  1.0000
  H   H34       1.0  0.3637387991707399  0.8988560893684581  0.9904044384429086  1.0000
  H   H35       1.0  0.8658204670018462  0.1048192924902054  0.004333206055683506  1.0000
  C   C1        1.0  0.36664493206679777  0.41399691980592485  0.4219196680893448  1.0000
  C   C2        1.0  0.3742247507371203  0.38327207069916364  0.6122094685438955  1.0000
  C   C3        1.0  0.8747932666592533  0.5849691599763888  0.5791536275870899  1.0000
  C   C4        1.0  0.8689612673439198  0.6182701190864819  0.387949072940579  1.0000
  C   C5        1.0  0.6897889583855985  0.7265258696390547  0.2863207056598967  1.0000
  C   C6        1.0  0.6906467692924422  0.7897602134063816  0.21957437620685036  1.0000
  C   C7        1.0  0.8716231460603081  0.814875327595381  0.18299205480504097  1.0000
  C   C8        1.0  0.052168722771313  0.7770986360011989  0.2142767216925209  1.0000
  C   C9        1.0  0.05114716713392651  0.7137780860313896  0.2809861588175907  1.0000
  C   C10       1.0  0.8697839022176124  0.6878111517823341  0.3170747526859473  1.0000
  C   C11       1.0  0.7153812598781568  0.623526992458011  0.678082548411773  1.0000
  C   C12       1.0  0.8743349172899854  0.6337408536320198  0.6303610062686079  1.0000
  C   C13       1.0  0.0339790880588566  0.6888049380376559  0.63065289918611  1.0000
  C   C14       1.0  0.03376768579538239  0.7376821528230549  0.676535228225838  1.0000
  C   C15       1.0  0.87219292479557  0.7273406304610861  0.7256677705837905  1.0000
  C   C16       1.0  0.7148210614432386  0.6675197275607517  0.7277531323133177  1.0000
  C   C17       1.0  0.19153393589424894  0.7969317830798629  0.6764791177624405  1.0000
  C   C18       1.0  0.18792387517812156  0.8434476350011407  0.7219118711358022  1.0000
  C   C19       1.0  0.0277257357629992  0.8343602444043653  0.7716416222420864  1.0000
  C   C20       1.0  0.8688771601601245  0.7749908691224405  0.7735361348688348  1.0000
  C   C21       1.0  0.711050755697414  0.7621163426680652  0.8246468361050251  1.0000
  C   C22       1.0  0.5644948232190927  0.6946282190662031  0.8311785524636125  1.0000
  C   C23       1.0  0.5673090409050089  0.6516937270569229  0.7824371432916524  1.0000
  C   C24       1.0  0.026466892255207597  0.8796882275609118  0.8200870769572078  1.0000
  C   C25       1.0  0.8648547431239206  0.8715024746915391  0.866157187966522  1.0000
  C   C26       1.0  0.70700787027544  0.8152166375200663  0.8670798779519232  1.0000
  C   C27       1.0  0.21768794246971612  0.18961018611474154  0.12823210250403605  1.0000
  C   C28       1.0  0.372533595128992  0.13152572885626776  0.13166957912856253  1.0000
  C   C29       1.0  0.5288002454573828  0.1210189525228529  0.18080937173564146  1.0000
  C   C30       1.0  0.5275258068098337  0.1657824968502268  0.22976229517122  1.0000
  C   C31       1.0  0.36966700733570684  0.22558243445069337  0.2265388495003792  1.0000
  C   C32       1.0  0.2167574360367297  0.2397605448261046  0.17301526897614394  1.0000
  C   C33       1.0  0.6821620681162345  0.15431838770753353  0.2824654837589691  1.0000
  C   C34       1.0  0.6789699660828815  0.1981711768774659  0.32987675106859643  1.0000
  C   C35       1.0  0.5220529386451958  0.25795166354181737  0.3281807895793279  1.0000
  C   C36       1.0  0.3671865694219463  0.27191673277667416  0.275368432060617  1.0000
  C   C37       1.0  0.21480277382804047  0.3345198739425329  0.2702349577009003  1.0000
  C   C38       1.0  0.0719617082294093  0.35543748461196856  0.2115489286642217  1.0000
  C   C39       1.0  0.0746475983025405  0.30762889170738117  0.16632582759874034  1.0000
  C   C40       1.0  0.5218678867872979  0.3061780387773894  0.3744694241493038  1.0000
  C   C41       1.0  0.3663128454580046  0.3634385196152153  0.3719853143822648  1.0000
  C   C42       1.0  0.21223722358467967  0.37616070536525825  0.32151532087797824  1.0000
  C   C43       1.0  0.19355605396285105  0.27151596380572574  0.7101257550017268  1.0000
  C   C44       1.0  0.19174311615181233  0.20827113168973452  0.7768017551523416  1.0000
  C   C45       1.0  0.3679699990005502  0.1887665398006675  0.8177828303701704  1.0000
  C   C46       1.0  0.5460127331502704  0.23298851677677135  0.791627130605342  1.0000
  C   C47       1.0  0.5478518918480262  0.2962330005972547  0.7249034453222267  1.0000
  C   C48       1.0  0.37171012073412163  0.31563645129732265  0.6838997828758269  1.0000
  C   C49       1.0  0.3651248091242323  0.12052009951620592  0.8891754651243959  1.0000
  C   C50       1.0  0.3717771998966412  0.08200304748024931  0.0809926090565583  1.0000
  C   C51       1.0  0.8712613497154036  0.8817855450261546  0.11072378295988734  1.0000
  C   C52       1.0  0.8633470289684693  0.9200614551780787  0.9173867996808058  1.0000
  C   C53       1.0  0.41768030371184744  0.6693825847396511  0.890217136663317  1.0000
  C   C54       1.0  0.4724642997277257  0.6606554181337145  0.9608257911183887  1.0000
  C   C55       1.0  0.3320925735308648  0.63543671722708  0.015557686073876217  1.0000
  C   C56       1.0  0.1346027495688205  0.6176057705415446  0.0014249928412653195  1.0000
  C   C57       1.0  0.0794342755831536  0.6240429193633049  0.9319949729857558  1.0000
  C   C58       1.0  0.21932274276151986  0.6495754174376528  0.8771904353341855  1.0000
  C   C59       1.0  0.9347307190082929  0.4292955904685769  0.20097727393542197  1.0000
  C   C60       1.0  0.726884259732742  0.4184112783659657  0.19983056648065664  1.0000
  C   C61       1.0  0.5981326253062206  0.48747721241629444  0.19089243539117015  1.0000
  C   C62       1.0  0.674429977507607  0.5691743618089191  0.18215635751881368  1.0000
  C   C63       1.0  0.8814787068122312  0.5813416546805427  0.1817695091846617  1.0000
  C   C64       1.0  0.0101632884122012  0.511901537211557  0.19160485993808868  1.0000
  Br  Br1       1.0  0.8971180925110146  0.3357190324304824  0.08599509228126584  1.0000
  O   O1        1.0  0.5453379219825436  0.4111999547786952  0.5868680290734646  1.0000
  O   O2        1.0  0.19756114202171193  0.43904600832720314  0.43681208537137206  1.0000
  O   O3        1.0  0.0392583833019842  0.5933743218382902  0.4162418845149889  1.0000
  O   O4        1.0  0.20568844432001748  0.40723433468661335  0.5817276680515067  1.0000
  O   O5        1.0  0.04453389861401999  0.5664870255090904  0.5590186615939318  1.0000
  O   O6        1.0  0.5359015376126661  0.42851787616704223  0.4457438128947403  1.0000
  O   O7        1.0  0.37299966469757345  0.5520009547289819  0.4917804709859724  1.0000
  O   O8        1.0  0.7050086592848642  0.5658827958822884  0.5588798287758296  1.0000
  O   O9        1.0  0.6990451181681363  0.5899190163804348  0.4144487025627728  1.0000
  O   O10       1.0  0.8723206170814066  0.4485726668179879  0.5075485687900356  1.0000
  O   O11       1.0  0.202755993105832  0.06885459089564701  0.05629797183377861  1.0000
  O   O12       1.0  0.5333443706811634  0.0962705606639034  0.919787047205411  1.0000
  O   O13       1.0  0.6935130421990436  0.9380314541298275  0.9377762891071559  1.0000
  O   O14       1.0  0.5407304053596674  0.057216637265462084  0.06580708755438283  1.0000
  O   O15       1.0  0.7008591302830209  0.9050684466229341  0.08186246758280914  1.0000
  O   O16       1.0  0.19385936996462758  0.0921701742899046  0.9140408931678866  1.0000
  O   O17       1.0  0.3658727021331529  0.9487366926701952  0.005939308201064416  1.0000
  O   O18       1.0  0.0408588069882825  0.9094621913391663  0.08365154629856877  1.0000
  O   O19       1.0  0.0330810737123812  0.938575798090618  0.9380636313742277  1.0000
  O   O20       1.0  0.8663393576322133  0.051850307668061604  0.9932821509370345  1.0000
