data_image0
_chemical_formula_structural       Zn4H24C16N16O16
_chemical_formula_sum              "Zn4 H24 C16 N16 O16"
_cell_length_a       6.346022997054898
_cell_length_b       7.137278259916888
_cell_length_c       18.5811934540494
_cell_angle_alpha    90.00022904241021
_cell_angle_beta     90.00005204859417
_cell_angle_gamma    108.20182010131317

_space_group_name_H-M_alt    "P 1"
_space_group_IT_number       1

loop_
  _space_group_symop_operation_xyz
  'x, y, z'

loop_
  _atom_site_type_symbol
  _atom_site_label
  _atom_site_symmetry_multiplicity
  _atom_site_fract_x
  _atom_site_fract_y
  _atom_site_fract_z
  _atom_site_occupancy
  Zn  Zn1       1.0  0.5136872036926762  0.7291004245623403  0.2924737776232291  1.0000
  Zn  Zn2       1.0  0.986298900295516  0.27090447631917414  0.7924769042819976  1.0000
  Zn  Zn3       1.0  0.48630130694770907  0.2709122267355184  0.7075258795649546  1.0000
  Zn  Zn4       1.0  0.01368980387154302  0.7290829706782564  0.2075243674226002  1.0000
  H   H1        1.0  0.8272589827649386  0.9853872275013916  0.240344431852769  1.0000
  H   H2        1.0  0.6727319413079513  0.01461398897318131  0.7403481460272945  1.0000
  H   H3        1.0  0.17273827637068007  0.014614922071565704  0.759652534435894  1.0000
  H   H4        1.0  0.32724596270508516  0.9853869538243604  0.2596504347931656  1.0000
  H   H5        1.0  0.9033898872747272  0.9106098582536859  0.351152123379059  1.0000
  H   H6        1.0  0.5966159850565731  0.08939697618838242  0.8511580815020425  1.0000
  H   H7        1.0  0.09660785573738911  0.08938931954244113  0.6488453810859696  1.0000
  H   H8        1.0  0.40339333235672836  0.910607966591073  0.1488474956476296  1.0000
  H   H9        1.0  0.03919394059875  0.0003532463176228  0.4348219147867881  1.0000
  H   H10       1.0  0.46081920984718056  0.9996489225321811  0.9348261502081814  1.0000
  H   H11       1.0  0.960818512320408  0.9996516517617596  0.5651766660419995  1.0000
  H   H12       1.0  0.539179984815263  0.00034133997012020137  0.06517888875011833  1.0000
  H   H13       1.0  0.5225283181717447  0.7763153664342898  0.6068276813029527  1.0000
  H   H14       1.0  0.9775002597927412  0.22367771690461075  0.10682661336391423  1.0000
  H   H15       1.0  0.4774823927908399  0.2236762144919666  0.3931768194795638  1.0000
  H   H16       1.0  0.022536135416551535  0.7763194279762903  0.8931741201768592  1.0000
  H   H17       1.0  0.17051293176149335  0.5969360637952834  0.5421238957612646  1.0000
  H   H18       1.0  0.32951390522730156  0.4030802787585517  0.042124671839332  1.0000
  H   H19       1.0  0.8295037405844852  0.4030717390891355  0.45787629960608467  1.0000
  H   H20       1.0  0.6705090381626068  0.5969274347823802  0.9578706799218469  1.0000
  H   H21       1.0  0.18725425679654967  0.5895854888796779  0.40492011155597407  1.0000
  H   H22       1.0  0.31273588276044967  0.41043145878667536  0.9049233987635293  1.0000
  H   H23       1.0  0.8127457120694714  0.4104240343294095  0.5950779310958795  1.0000
  H   H24       1.0  0.6872362340662054  0.589566601544192  0.0950751820538329  1.0000
  C   C1        1.0  0.5187839273015484  0.7661350145622663  0.5480994753733058  1.0000
  C   C2        1.0  0.9812299337139835  0.23388274669403594  0.048102729625938416  1.0000
  C   C3        1.0  0.48122188682536665  0.23388183762620682  0.4518996436421858  1.0000
  C   C4        1.0  0.018774022292177603  0.7661118952892141  0.9518958511936902  1.0000
  C   C5        1.0  0.32174430957874744  0.6662328689627021  0.5123153377656281  1.0000
  C   C6        1.0  0.17827014312049985  0.33377141824589546  0.012318113994908201  1.0000
  C   C7        1.0  0.6782643497231575  0.3337617060354248  0.4876832430546756  1.0000
  C   C8        1.0  0.8217396581560265  0.6662305527334028  0.9876842340811792  1.0000
  C   C9        1.0  0.3320256798505028  0.6620211137087751  0.4380208617902144  1.0000
  C   C10       1.0  0.1679738671168494  0.33797832394978405  0.9380272226769648  1.0000
  C   C11       1.0  0.6679720631578194  0.33797806408068715  0.5619755663176846  1.0000
  C   C12       1.0  0.8320253856182092  0.6620163850619109  0.06197835446332081  1.0000
  C   C13       1.0  0.7091055417854051  0.8399860737508292  0.44068019622715593  1.0000
  C   C14       1.0  0.7908934898959358  0.16001011638384458  0.9406857839498386  1.0000
  C   C15       1.0  0.2909010658671747  0.16001149533916972  0.5593156937023097  1.0000
  C   C16       1.0  0.20910564666925782  0.8399756995657557  0.05931172050516411  1.0000
  N   N1        1.0  0.5218951711147144  0.747339833473035  0.4017143540182603  1.0000
  N   N2        1.0  0.9781038765250332  0.2526781065770508  0.9017190647613589  1.0000
  N   N3        1.0  0.47810696553639076  0.25267558864628376  0.598284764995576  1.0000
  N   N4        1.0  0.021892840682319555  0.7473225683000067  0.09828274513316161  1.0000
  N   N5        1.0  0.7085373736994782  0.8526131886642005  0.5138041417633732  1.0000
  N   N6        1.0  0.7914837942849645  0.14738180365571205  0.013807205309625202  1.0000
  N   N7        1.0  0.2914749630801268  0.14738281640640596  0.48619497723714755  1.0000
  N   N8        1.0  0.2085315618742172  0.8526052637293731  0.9861892227916942  1.0000
  N   N9        1.0  0.8999394025538195  0.9202225928841518  0.4061959573254015  1.0000
  N   N10       1.0  0.6000689090284154  0.07978192919184585  0.9062019017765127  1.0000
  N   N11       1.0  0.10006201793979133  0.07977801499112053  0.5938031616769736  1.0000
  N   N12       1.0  0.39993558895149317  0.9202141875672825  0.09380475172277873  1.0000
  N   N13       1.0  0.3268104057230091  0.37284392437450026  0.2188490340291196  1.0000
  N   N14       1.0  0.1731861462213972  0.6271617140460111  0.7188493814523512  1.0000
  N   N15       1.0  0.6731843179114277  0.6271641911104738  0.7811516995136714  1.0000
  N   N16       1.0  0.8268074354516699  0.3728390054811258  0.2811513520845992  1.0000
  O   O1        1.0  0.8102028923313398  0.8484018286954794  0.25288334664297457  1.0000
  O   O2        1.0  0.6897834167400987  0.1515996100589518  0.7528861995784126  1.0000
  O   O3        1.0  0.189784418269376  0.15159898012515782  0.7471141578216988  1.0000
  O   O4        1.0  0.31020546163534146  0.8484011764499685  0.24711399577930146  1.0000
  O   O5        1.0  0.3754207637320165  0.43234519347106487  0.2852850780080801  1.0000
  O   O6        1.0  0.12457149468097137  0.5676568882713655  0.7852858575324079  1.0000
  O   O7        1.0  0.6245817987229643  0.5676628103620517  0.7147140410001357  1.0000
  O   O8        1.0  0.8754057512471933  0.432333686791509  0.21471326145857014  1.0000
  O   O9        1.0  0.22883357369180868  0.19399181668010365  0.20857666774821845  1.0000
  O   O10       1.0  0.2711634478680764  0.8060151692503226  0.7085789337894397  1.0000
  O   O11       1.0  0.7711658532402552  0.8060162318230866  0.7914246039738018  1.0000
  O   O12       1.0  0.7288291079964394  0.19398704735107952  0.29142502881988014  1.0000
  O   O13       1.0  0.3792590574269213  0.4971082002573085  0.16912520525789185  1.0000
  O   O14       1.0  0.12073660242115379  0.5028953475807966  0.6691248080201931  1.0000
  O   O15       1.0  0.6207215563222022  0.5029001161863607  0.830876066461457  1.0000
  O   O16       1.0  0.8792695213644067  0.49710519330268715  0.3308732346257203  1.0000
