data_image0
_chemical_formula_structural       Zn8H48C48O64
_chemical_formula_sum              "Zn8 H48 C48 O64"
_cell_length_a       5.7995910102141
_cell_length_b       19.614751802023875
_cell_length_c       19.61490699061821
_cell_angle_alpha    89.99824245997236
_cell_angle_beta     90.00065476327993
_cell_angle_gamma    90.0022397862269

_space_group_name_H-M_alt    "P 1"
_space_group_IT_number       1

loop_
  _space_group_symop_operation_xyz
  'x, y, z'

loop_
  _atom_site_type_symbol
  _atom_site_label
  _atom_site_symmetry_multiplicity
  _atom_site_fract_x
  _atom_site_fract_y
  _atom_site_fract_z
  _atom_site_occupancy
  Zn  Zn1       1.0  0.2500008463543466  0.7081996656828053  0.2917931430964061  1.0000
  Zn  Zn2       1.0  0.7500390349917437  0.2918024328076783  0.7082040941430776  1.0000
  Zn  Zn3       1.0  0.9999985328877301  0.2082061099323695  0.2082029238810179  1.0000
  Zn  Zn4       1.0  0.5000007417689787  0.7918029680167039  0.7917910916524065  1.0000
  Zn  Zn5       1.0  0.7500314468390242  0.7559974300042144  0.24400920161459544  1.0000
  Zn  Zn6       1.0  0.25002395340894873  0.24401282567875884  0.7559895649754013  1.0000
  Zn  Zn7       1.0  0.49998974430168625  0.2559915077422943  0.2559915172851817  1.0000
  Zn  Zn8       1.0  0.9999957358918437  0.744009922727372  0.7440086161379044  1.0000
  H   H1        1.0  0.43970053614935983  0.5840975102215182  0.2737315591385396  1.0000
  H   H2        1.0  0.9039440046897055  0.4872167360353787  0.3574064270811448  1.0000
  H   H3        1.0  0.4319655957143667  0.44595951366117254  0.2126918251466066  1.0000
  H   H4        1.0  0.7498150065034678  0.37790864847843153  0.2359716274780652  1.0000
  H   H5        1.0  0.1170092281488166  0.5168985248620076  0.2560949405185298  1.0000
  H   H6        1.0  0.5335694794698967  0.46466145264304953  0.3379082124296602  1.0000
  H   H7        1.0  0.9397402366835408  0.41590271108120186  0.7262637793421476  1.0000
  H   H8        1.0  0.4038882691240104  0.5127611473058025  0.6426020442296974  1.0000
  H   H9        1.0  0.9319292538200797  0.5540508139666469  0.7872958392883049  1.0000
  H   H10       1.0  0.2497541521601079  0.6220980357736539  0.7640184714555788  1.0000
  H   H11       1.0  0.6170377584843508  0.4831010106056866  0.7439054095621174  1.0000
  H   H12       1.0  0.03352090766369291  0.5353585267314215  0.6620816548467161  1.0000
  H   H13       1.0  0.18969021993245153  0.22627542437570725  0.08409870662736552  1.0000
  H   H14       1.0  0.6539674045098921  0.1425859191540937  0.9872261492223374  1.0000
  H   H15       1.0  0.1819290671301133  0.2872973446156735  0.945963174939877  1.0000
  H   H16       1.0  0.4997865842108737  0.2640274426622895  0.8779102234626209  1.0000
  H   H17       1.0  0.8669757907292919  0.24389569820527876  0.0168996864603699  1.0000
  H   H18       1.0  0.2835817957511324  0.16208474536288975  0.9646597246988975  1.0000
  H   H19       1.0  0.6897083962309412  0.7737346410682238  0.9158993433431705  1.0000
  H   H20       1.0  0.15386064498920152  0.8573900831490845  0.012754444843075401  1.0000
  H   H21       1.0  0.6819443154841168  0.7126998852394877  0.05403484861722771  1.0000
  H   H22       1.0  0.9997799008232633  0.735972965759032  0.12208837980898579  1.0000
  H   H23       1.0  0.36699610264783206  0.7560899138857664  0.9830974421756835  1.0000
  H   H24       1.0  0.7835576449202151  0.8379192718782844  0.035339666785319  1.0000
  H   H25       1.0  0.31029691596445014  0.9159087363075006  0.7737383059801176  1.0000
  H   H26       1.0  0.8461182102798404  0.0127556209161668  0.8574093478794609  1.0000
  H   H27       1.0  0.3180585228493484  0.054046148049643306  0.7126933838279969  1.0000
  H   H28       1.0  0.00020999849576950003  0.12209324013508653  0.7359756172851064  1.0000
  H   H29       1.0  0.6330116917250663  0.9831087728400189  0.75608951641793  1.0000
  H   H30       1.0  0.2164628560127895  0.0353347598791842  0.8379105064322941  1.0000
  H   H31       1.0  0.8102687061916639  0.0841027285534608  0.2262514904521211  1.0000
  H   H32       1.0  0.34618350640655393  0.9872710445359085  0.1426081013576095  1.0000
  H   H33       1.0  0.8180685414213755  0.9459613283581308  0.2873081651134726  1.0000
  H   H34       1.0  0.5002394815803015  0.8779095283432877  0.26402484217558  1.0000
  H   H35       1.0  0.13297720324398196  0.016900634460014902  0.24391649623952114  1.0000
  H   H36       1.0  0.7164378083622722  0.9646679686072446  0.16209273351677211  1.0000
  H   H37       1.0  0.5603203801282817  0.2737341819233947  0.58410812241776  1.0000
  H   H38       1.0  0.09612751743059529  0.3573939872909405  0.48722972405452225  1.0000
  H   H39       1.0  0.5680435857860787  0.2126955529260712  0.4459580215725651  1.0000
  H   H40       1.0  0.2502024436328227  0.23596295412810528  0.37791091403193633  1.0000
  H   H41       1.0  0.8830079345398474  0.2560876136470114  0.5169039371753996  1.0000
  H   H42       1.0  0.4664536421010865  0.33790095134308734  0.4646539511521297  1.0000
  H   H43       1.0  0.0602910204637084  0.7262499104439825  0.41590121016489684  1.0000
  H   H44       1.0  0.5961941122646834  0.6425996984317806  0.5127460834143774  1.0000
  H   H45       1.0  0.0680809780247387  0.7873003556790081  0.5540278858670434  1.0000
  H   H46       1.0  0.750225395870089  0.7640355778707785  0.6220863239272134  1.0000
  H   H47       1.0  0.3830075982215035  0.7439032824520312  0.48310089354752966  1.0000
  H   H48       1.0  0.9664874541973987  0.6620873447573742  0.5353368908641231  1.0000
  C   C1        1.0  0.8920213963324315  0.6031502605643484  0.2621270929722428  1.0000
  C   C2        1.0  0.9991264189511784  0.5363751459516521  0.36014304021095  1.0000
  C   C3        1.0  0.4018355440109361  0.404089274064404  0.2490158099116826  1.0000
  C   C4        1.0  0.177973811342504  0.3663845006060242  0.2300554251411526  1.0000
  C   C5        1.0  0.09395082002887989  0.5613435083187001  0.2895218568459867  1.0000
  C   C6        1.0  0.38787566471444274  0.43093724008944895  0.3228765452719245  1.0000
  C   C7        1.0  0.39203506434544283  0.3968524662433452  0.7378670623483927  1.0000
  C   C8        1.0  0.4992158420100098  0.46362984384370537  0.6398494430960399  1.0000
  C   C9        1.0  0.9018154012413788  0.5959059192058406  0.7509732809461342  1.0000
  C   C10       1.0  0.6779731501880448  0.6336086045396102  0.7699527812200131  1.0000
  C   C11       1.0  0.594003260888975  0.4386537205239804  0.7104722964706625  1.0000
  C   C12       1.0  0.8878715905351912  0.5690832822043747  0.6771186151664637  1.0000
  C   C13       1.0  0.6419318573209268  0.23787769906049044  0.1031460421232637  1.0000
  C   C14       1.0  0.7490937581093888  0.1398536331967648  0.03639594690097431  1.0000
  C   C15       1.0  0.1518047885348466  0.25097209108438534  0.9040945040472437  1.0000
  C   C16       1.0  0.9279428080306005  0.2699419806097509  0.8663890174349262  1.0000
  C   C17       1.0  0.8439176383114955  0.21047462802820863  0.0613464574380913  1.0000
  C   C18       1.0  0.1378804891401728  0.17710831373198493  0.9309338743376117  1.0000
  C   C19       1.0  0.14197899077371556  0.762132322327048  0.89684164785497  1.0000
  C   C20       1.0  0.24919427576717376  0.8601448860347886  0.9636242291258271  1.0000
  C   C21       1.0  0.6518160694828339  0.7490247891460768  0.09590545550758381  1.0000
  C   C22       1.0  0.42795492438780514  0.7300448488181532  0.13360271218396494  1.0000
  C   C23       1.0  0.3439458317361854  0.7895168343251273  0.9386541607926305  1.0000
  C   C24       1.0  0.6379125439669551  0.8228797380600523  0.069068076920999  1.0000
  C   C25       1.0  0.8579978552286038  0.8968575559226649  0.7621294895130575  1.0000
  C   C26       1.0  0.7508379400172771  0.963618447286315  0.8601516884040096  1.0000
  C   C27       1.0  0.34820202741767053  0.09590915551929409  0.7490217957069378  1.0000
  C   C28       1.0  0.5720751074163886  0.1336099223748448  0.7300564335509989  1.0000
  C   C29       1.0  0.6560489578608256  0.9386658226381784  0.7895245025955404  1.0000
  C   C30       1.0  0.3621164407144947  0.0690655511788023  0.8228777943048087  1.0000
  C   C31       1.0  0.3580141521894261  0.10314885474637246  0.2378579215103613  1.0000
  C   C32       1.0  0.2507123919201604  0.0363714242322359  0.1398486105099295  1.0000
  C   C33       1.0  0.8481861823399298  0.9040920428749502  0.2509793468022323  1.0000
  C   C34       1.0  0.0720431239893031  0.866388071626197  0.2699468213131979  1.0000
  C   C35       1.0  0.15601042745703347  0.061348950235419905  0.21047751041387391  1.0000
  C   C36       1.0  0.8620789024180199  0.9309373380095355  0.1771239056562663  1.0000
  C   C37       1.0  0.10807084671883872  0.2621308131398338  0.6031506947924826  1.0000
  C   C38       1.0  0.0008581227919464  0.3601390831214744  0.5363702054160626  1.0000
  C   C39       1.0  0.5981559251691949  0.24903126732007771  0.4041036340508485  1.0000
  C   C40       1.0  0.8220180191397832  0.23004641417355745  0.3664100185211296  1.0000
  C   C41       1.0  0.9060884716514153  0.2895215955142093  0.5613467030145074  1.0000
  C   C42       1.0  0.6120795207409984  0.32287025988521384  0.43093568866585497  1.0000
  C   C43       1.0  0.6080386667406259  0.7378487353281571  0.39684503650280334  1.0000
  C   C44       1.0  0.500756955372701  0.6398417697657877  0.46363535454192834  1.0000
  C   C45       1.0  0.0982039223465208  0.7509833439441637  0.5959063377131102  1.0000
  C   C46       1.0  0.3220527094294781  0.7699672259342875  0.6336068384313337  1.0000
  C   C47       1.0  0.406047554861061  0.7104716074637524  0.4386582067236874  1.0000
  C   C48       1.0  0.11213918609342238  0.6771185121967633  0.5690733116118807  1.0000
  O   O1        1.0  0.9316784321067572  0.6681072437707982  0.260166940554825  1.0000
  O   O2        1.0  0.7073665167896764  0.5737715169473036  0.2479971574882001  1.0000
  O   O3        1.0  0.2943315423954261  0.6025131041006233  0.2941823098398899  1.0000
  O   O4        1.0  0.014827396632576  0.5691281661604322  0.41205136970724254  1.0000
  O   O5        1.0  0.24328568594962974  0.4119877930162447  0.3635787948325131  1.0000
  O   O6        1.0  0.5936995830630921  0.3588177949075657  0.25121872982575166  1.0000
  O   O7        1.0  0.18959783240542552  0.3007131260890006  0.226845119136982  1.0000
  O   O8        1.0  0.0021032528737663  0.4021296685912432  0.22136883458649237  1.0000
  O   O9        1.0  0.4316594812062819  0.3318954332340383  0.7398263310225134  1.0000
  O   O10       1.0  0.207369073314247  0.42623059648671113  0.7519953451922704  1.0000
  O   O11       1.0  0.7943542444694813  0.3974788024274575  0.7058196678422348  1.0000
  O   O12       1.0  0.5150620919737819  0.4309033233785655  0.5879292569361354  1.0000
  O   O13       1.0  0.7432566936952653  0.5880397180688635  0.6364255563111741  1.0000
  O   O14       1.0  0.0936320406743505  0.6411840185426456  0.7487861284967323  1.0000
  O   O15       1.0  0.6894886913820599  0.6992729758460215  0.7731621073601858  1.0000
  O   O16       1.0  0.5020464883320486  0.5978817885999845  0.7786122580624593  1.0000
  O   O17       1.0  0.681632575488834  0.23985197715818168  0.16810534790062096  1.0000
  O   O18       1.0  0.45729679503510573  0.25201184810475047  0.0737688720110299  1.0000
  O   O19       1.0  0.04428586750886861  0.2058223441305743  0.10252710215859652  1.0000
  O   O20       1.0  0.7646662021799173  0.0879637034420497  0.0691861168301671  1.0000
  O   O21       1.0  0.9932688018506682  0.1364135877566355  0.9119860914028237  1.0000
  O   O22       1.0  0.34365524214353377  0.24878676920833703  0.8588247052593233  1.0000
  O   O23       1.0  0.9395563812501706  0.2731544136438302  0.8007266833378779  1.0000
  O   O24       1.0  0.752050622350481  0.27862061344998773  0.9021302766819161  1.0000
  O   O25       1.0  0.18164593955520303  0.7601778778976824  0.8318829876261519  1.0000
  O   O26       1.0  0.957341287783386  0.7479946952463904  0.9262275463336423  1.0000
  O   O27       1.0  0.5443112078085336  0.7941819554017114  0.8974755476291562  1.0000
  O   O28       1.0  0.2650361194921588  0.9120701746171566  0.9309024278874745  1.0000
  O   O29       1.0  0.4932812476734371  0.8635775682106726  0.0880231958435189  1.0000
  O   O30       1.0  0.8436495682114254  0.7512128471467818  0.141168264643774  1.0000
  O   O31       1.0  0.43951712379719515  0.7268376483785844  0.19927018408745312  1.0000
  O   O32       1.0  0.2520567869767163  0.7213769201949775  0.09787104613001671  1.0000
  O   O33       1.0  0.8183597116406889  0.8319001231232406  0.7601701739831271  1.0000
  O   O34       1.0  0.0426765105200886  0.9262380683145537  0.7480087878632133  1.0000
  O   O35       1.0  0.4556960003827868  0.8974863975567614  0.7941789040642179  1.0000
  O   O36       1.0  0.7350304862961606  0.9308830129777873  0.9120698196895987  1.0000
  O   O37       1.0  0.5067476277907091  0.08801731863230339  0.8635799583192708  1.0000
  O   O38       1.0  0.15634669340916932  0.1411800574223321  0.7512185907912183  1.0000
  O   O39       1.0  0.560461309438338  0.1992773168225099  0.726849171603611  1.0000
  O   O40       1.0  0.7479556809608711  0.0978690994275766  0.7213735815088215  1.0000
  O   O41       1.0  0.3183846378181059  0.1681150043515061  0.2398196501233087  1.0000
  O   O42       1.0  0.542635850234241  0.0737657024562992  0.2519862090576055  1.0000
  O   O43       1.0  0.9556884056275123  0.10253032313580948  0.2058297441396064  1.0000
  O   O44       1.0  0.2346589747699852  0.06906079021391061  0.0879064639534874  1.0000
  O   O45       1.0  0.006714839082668799  0.9119880744197739  0.13642256267080205  1.0000
  O   O46       1.0  0.6563454941900773  0.8588178949333884  0.2487910708058223  1.0000
  O   O47       1.0  0.06047770115503682  0.8007205427677135  0.2731489453700462  1.0000
  O   O48       1.0  0.2479356321060138  0.9021360339771222  0.2786195700427783  1.0000
  O   O49       1.0  0.0684191585535672  0.2601703470035872  0.6681119641701585  1.0000
  O   O50       1.0  0.29269616907428303  0.24800368325931293  0.5737613357978333  1.0000
  O   O51       1.0  0.7057288820461949  0.2941770104608636  0.6025251732435067  1.0000
  O   O52       1.0  0.9850505306880635  0.4120572605011149  0.5690967164674634  1.0000
  O   O53       1.0  0.7567385919424368  0.3635718795185597  0.4119783017756903  1.0000
  O   O54       1.0  0.4063416801500778  0.2512026835566629  0.3588310715782228  1.0000
  O   O55       1.0  0.8104916067342033  0.22683599592729561  0.3007482530824745  1.0000
  O   O56       1.0  0.9979563963054902  0.22136821507797322  0.4021230874685031  1.0000
  O   O57       1.0  0.5683899356032782  0.739811800243416  0.3318856704295001  1.0000
  O   O58       1.0  0.7926548997500474  0.751987694178098  0.4262355380133299  1.0000
  O   O59       1.0  0.2056944052501919  0.7058184559569867  0.3974759907393094  1.0000
  O   O60       1.0  0.4847914429507015  0.5879093267705783  0.43093701370209214  1.0000
  O   O61       1.0  0.2567436162635488  0.636420100300718  0.588035782598233  1.0000
  O   O62       1.0  0.9063495581580767  0.7487935815414701  0.6411753685136433  1.0000
  O   O63       1.0  0.3104602500747973  0.7731739412130879  0.6992741722806671  1.0000
  O   O64       1.0  0.4979529333648713  0.778621975919954  0.5978622544667047  1.0000
