data_image0
_chemical_formula_structural       KCuH10C16S6N6
_chemical_formula_sum              "K1 Cu1 H10 C16 S6 N6"
_cell_length_a       7.86328733903392
_cell_length_b       8.458622319539117
_cell_length_c       8.840667432534026
_cell_angle_alpha    79.01253196780783
_cell_angle_beta     77.21301889418199
_cell_angle_gamma    74.36470081867935

_space_group_name_H-M_alt    "P 1"
_space_group_IT_number       1

loop_
  _space_group_symop_operation_xyz
  'x, y, z'

loop_
  _atom_site_type_symbol
  _atom_site_label
  _atom_site_symmetry_multiplicity
  _atom_site_fract_x
  _atom_site_fract_y
  _atom_site_fract_z
  _atom_site_occupancy
  K   K1        1.0  0.499992636555433  2.3107825982053646e-06  0.9999933043673366  1.0000
  Cu  Cu1       1.0  0.4999977654990957  1.297525763291465e-06  0.5000033816224629  1.0000
  H   H1        1.0  0.0915081341321552  0.8799327138421023  0.994606087197958  1.0000
  H   H2        1.0  0.9084897268061594  0.12006277448305272  0.005398572124185811  1.0000
  H   H3        1.0  0.5206724964691744  0.41369825927387194  0.7237593695294533  1.0000
  H   H4        1.0  0.4793267211235062  0.5863033405136379  0.2762429907501626  1.0000
  H   H5        1.0  0.2027858592944226  0.6190347464347499  0.4761377383215829  1.0000
  H   H6        1.0  0.7972252370461487  0.38096640790414693  0.5238602515203539  1.0000
  H   H7        1.0  0.9764569897031024  0.7176471653236621  0.45078488816411516  1.0000
  H   H8        1.0  0.023550999719887465  0.2823567351834059  0.5492087299833983  1.0000
  H   H9        1.0  0.07729195761199036  0.7863652170943143  0.5818742969056669  1.0000
  H   H10       1.0  0.9227120969083983  0.2136449499577395  0.41812023087108935  1.0000
  C   C1        1.0  0.29357767613522867  0.8116479688370364  0.7925822827541679  1.0000
  C   C2        1.0  0.7064207396689212  0.18835121342220165  0.20742058776127686  1.0000
  C   C3        1.0  0.41697962582523473  0.6790173242321133  0.7157484742492598  1.0000
  C   C4        1.0  0.5830153424118976  0.3209795180401614  0.2842565108379133  1.0000
  C   C5        1.0  0.18317452633849013  0.7800148290839817  0.9351256110794849  1.0000
  C   C6        1.0  0.8168227688318975  0.21997692670200317  0.06488197667889051  1.0000
  C   C7        1.0  0.4289257229429565  0.5147463034549135  0.7818554514646434  1.0000
  C   C8        1.0  0.571077204433827  0.48525038340357457  0.21814244135580194  1.0000
  C   C9        1.0  0.3184411656054919  0.4804483010373347  0.9274345651715944  1.0000
  C   C10       1.0  0.6815564985284012  0.5195546718342499  0.0725656092608062  1.0000
  C   C11       1.0  0.19559799887462498  0.6139293813417268  0.005132944381244911  1.0000
  C   C12       1.0  0.8044022827236857  0.38606738305807653  0.9948665527750791  1.0000
  C   C13       1.0  0.16472796920281488  0.8556947902220245  0.3443165075459688  1.0000
  C   C14       1.0  0.8352757599625066  0.14430431416472797  0.6556808750386338  1.0000
  C   C15       1.0  0.10172401029129219  0.737613782179942  0.4704960289266679  1.0000
  C   C16       1.0  0.8982705033165813  0.26239178243950795  0.5295043323294307  1.0000
  S   S1        1.0  0.286184158322122  0.017178274212447792  0.7053225471368307  1.0000
  S   S2        1.0  0.7138113320744919  0.9828221461786771  0.2946840680322396  1.0000
  S   S3        1.0  0.5515156004747508  0.7287396005648862  0.5357132985377575  1.0000
  S   S4        1.0  0.4484778317155431  0.27126470711687023  0.4642897132719098  1.0000
  S   S5        1.0  0.16784783027650002  0.3605425790856034  0.1697230199330875  1.0000
  S   S6        1.0  0.8321516495332657  0.6394517677859216  0.8302769874590795  1.0000
  N   N1        1.0  0.3140801118178301  0.32889415121952953  0.010540833117644904  1.0000
  N   N2        1.0  0.6859217341413737  0.6711012787012651  0.989459710256362  1.0000
  N   N3        1.0  0.10217418038802609  0.5604609051617048  0.1451756273548668  1.0000
  N   N4        1.0  0.8978237241587335  0.4395347375837561  0.854824473449149  1.0000
  N   N5        1.0  0.21535180555911632  0.9516610218725817  0.2430730183501382  1.0000
  N   N6        1.0  0.7846625067201244  0.04833777234892271  0.7569179468909155  1.0000
