data_image0
_chemical_formula_structural       Zn8H31C56Br3O33
_chemical_formula_sum              "Zn8 H31 C56 Br3 O33"
_cell_length_a       18.450549671375818
_cell_length_b       18.461012347883738
_cell_length_c       18.417864180317594
_cell_angle_alpha    89.61181600957576
_cell_angle_beta     120.06934091547704
_cell_angle_gamma    119.91600420450554

_space_group_name_H-M_alt    "P 1"
_space_group_IT_number       1

loop_
  _space_group_symop_operation_xyz
  'x, y, z'

loop_
  _atom_site_type_symbol
  _atom_site_label
  _atom_site_symmetry_multiplicity
  _atom_site_fract_x
  _atom_site_fract_y
  _atom_site_fract_z
  _atom_site_occupancy
  Zn  Zn1       1.0  0.420991152677388  0.5520092457098829  0.9564365025929292  1.0000
  Zn  Zn2       1.0  0.5881275278677409  0.5467758846513393  0.12925582705604918  1.0000
  Zn  Zn3       1.0  0.5857418694505155  0.5386714788911249  0.9558825047658744  1.0000
  Zn  Zn4       1.0  0.40687676499854325  0.37107108088314084  0.9541809429015162  1.0000
  Zn  Zn5       1.0  0.5936774580800801  0.9637971380929929  0.5416061834745634  1.0000
  Zn  Zn6       1.0  0.4112199541254925  0.9532124802303134  0.5418182222255227  1.0000
  Zn  Zn7       1.0  0.41357062452694054  0.9581341437025092  0.369210711095228  1.0000
  Zn  Zn8       1.0  0.583110043481625  0.12922794855473543  0.5419884733108162  1.0000
  H   H1        1.0  0.9017433104227875  0.32163846734174933  0.6926998682638299  1.0000
  H   H2        1.0  0.39133087161599883  0.13415268997420782  0.03570156782952683  1.0000
  H   H3        1.0  0.29231692673349846  0.1341198623825903  0.030390174688648068  1.0000
  H   H4        1.0  0.09683467739464663  0.7838234050746212  0.1828884715172309  1.0000
  H   H5        1.0  0.08821479317986558  0.903084542093609  0.4370480630084971  1.0000
  H   H6        1.0  0.9035392789648854  0.7129198597283593  0.3745500619600648  1.0000
  H   H7        1.0  0.8965666355643548  0.8031044278823031  0.34491084269917854  1.0000
  H   H8        1.0  0.3950432920164034  0.7161578327091648  0.08629976168895585  1.0000
  H   H9        1.0  0.395667769409016  0.8103833478868269  0.18254497492339541  1.0000
  H   H10       1.0  0.7085948750046925  0.8322665071453061  0.47091671124121615  1.0000
  H   H11       1.0  0.6045027311804178  0.7356002100602128  0.4623657912554507  1.0000
  H   H12       1.0  0.2578201753688916  0.05190053838781951  0.6103890775230312  1.0000
  H   H13       1.0  0.7087462028331187  0.7375837901926232  0.37263508040021515  1.0000
  H   H14       1.0  0.605626807538357  0.6411434888924815  0.3653564104586096  1.0000
  H   H15       1.0  0.07853077433455984  0.2563916505296363  0.801941296671707  1.0000
  H   H16       1.0  0.5826976085902232  0.662408379855634  0.7534437254563715  1.0000
  H   H17       1.0  0.33878805309348803  0.8028983055165996  0.70275372036339  1.0000
  H   H18       1.0  0.6561001710049438  0.44438477898312817  0.8855393799600151  1.0000
  H   H19       1.0  0.6493584861978335  0.2724557766879132  0.7021119053039088  1.0000
  H   H20       1.0  0.8293037779932392  0.6598688149508621  0.03970195229292267  1.0000
  H   H21       1.0  0.11543605907658618  0.8389095226490397  0.5413624846364372  1.0000
  H   H22       1.0  0.0396179032224424  0.4435551943761454  0.7181878670526346  1.0000
  H   H23       1.0  0.31423831161995247  0.01903610485669561  0.7033375547591021  1.0000
  H   H24       1.0  0.44922216337219134  0.9262651009496925  0.8286883828249358  1.0000
  H   H25       1.0  0.47017626144389635  0.748459898862514  0.9308872492751166  1.0000
  H   H26       1.0  0.25754807654752904  0.1492065916999152  0.7070470864850124  1.0000
  H   H27       1.0  0.6181447539581271  0.4168197672117984  0.31861544926432833  1.0000
  H   H28       1.0  0.6105437543346638  0.32124159313504924  0.41405788659020704  1.0000
  H   H29       1.0  0.3868104189437603  0.037536607020619804  0.1333699445730332  1.0000
  H   H30       1.0  0.9255254010661317  0.17029546885409994  0.6737293144740593  1.0000
  H   H31       1.0  0.2867441816791184  0.03654352332861781  0.12708522618407153  1.0000
  C   C1        1.0  0.5087405499327032  0.366576127777286  0.13857166753957978  1.0000
  C   C2        1.0  0.408470055279132  0.7536035536790425  0.814021715092416  1.0000
  C   C3        1.0  0.42217545713270255  0.20857537486792677  0.7675138658927666  1.0000
  C   C4        1.0  0.5098235257303114  0.6349168697624847  0.8573392067734459  1.0000
  C   C5        1.0  0.5025244057940909  0.2984928750873905  0.8157884657455768  1.0000
  C   C6        1.0  0.5852028728022136  0.3323467742193102  0.8078725887827576  1.0000
  C   C7        1.0  0.5838421346912026  0.2780438681996388  0.751066357681566  1.0000
  C   C8        1.0  0.5014406362771169  0.18794181939143334  0.7033303643884352  1.0000
  C   C9        1.0  0.4220252438562184  0.1557360333369928  0.714608489356266  1.0000
  C   C10       1.0  0.31685100616778783  0.07546429340739992  0.682036170895394  1.0000
  C   C11       1.0  0.3169559066798442  0.1370546784848798  0.7408628376005454  1.0000
  C   C12       1.0  0.11609398526087493  0.32487794380357843  0.8039689401372316  1.0000
  C   C13       1.0  0.4424389574504488  0.2171269893501417  0.1599240704992297  1.0000
  C   C14       1.0  0.5062629419945069  0.30904721258112033  0.19538064603627  1.0000
  C   C15       1.0  0.5673144323522621  0.34515145098480826  0.2887596860898896  1.0000
  C   C16       1.0  0.5004998643900791  0.6412411402175808  0.1363745688841077  1.0000
  C   C17       1.0  0.5631363156397884  0.2915976912250074  0.34223451940815164  1.0000
  C   C18       1.0  0.498372625898277  0.19847542138393245  0.3057919350282745  1.0000
  C   C19       1.0  0.4390516501196942  0.1633798460659861  0.21364823164890367  1.0000
  C   C20       1.0  0.360293848997884  0.0786049353820317  0.1356070504118776  1.0000
  C   C21       1.0  0.3636806561649877  0.13940291649837636  0.07480676735488603  1.0000
  C   C22       1.0  0.9466194607606582  0.754026707752246  0.28153641622908054  1.0000
  C   C23       1.0  0.46192744701947674  0.7337865315261639  0.7855272379750036  1.0000
  C   C24       1.0  0.8898752359682688  0.7129095327709437  0.19015596739026805  1.0000
  C   C25       1.0  0.9484341893865534  0.7266761191365064  0.1557292900358931  1.0000
  C   C26       1.0  0.0558163733612175  0.7765684672834255  0.2120808676636159  1.0000
  C   C27       1.0  0.11006951847297601  0.815946094333093  0.3032365364383765  1.0000
  C   C28       1.0  0.5003972331271597  0.35560262019588157  0.8688310782764931  1.0000
  C   C29       1.0  0.052610263955649744  0.8041085348553595  0.33659553327221664  1.0000
  C   C30       1.0  0.05722927325713558  0.8322696898911418  0.4170317244859164  1.0000
  C   C31       1.0  0.9357621093615479  0.7707506120182261  0.3547098940585016  1.0000
  C   C32       1.0  0.5600527992953844  0.7199741330748923  0.286152624558575  1.0000
  C   C33       1.0  0.5012480701938387  0.6978107196421632  0.19402946933038823  1.0000
  C   C34       1.0  0.505538398597011  0.6876443094379071  0.7959763949739128  1.0000
  C   C35       1.0  0.44193200358079576  0.7320810097763586  0.15805574829355606  1.0000
  C   C36       1.0  0.44222062449196653  0.7848733262193833  0.2120240592206031  1.0000
  C   C37       1.0  0.5017690139707441  0.8067963642591851  0.3052819692437653  1.0000
  C   C38       1.0  0.5602968888494431  0.7728999412524759  0.3402504126402307  1.0000
  C   C39       1.0  0.6352316297654141  0.7686839736674784  0.4250174011072687  1.0000
  C   C40       1.0  0.7776449268730941  0.6548288754936848  0.13444821949404678  1.0000
  C   C41       1.0  0.6353224196006408  0.7091349574235226  0.36377751551783893  1.0000
  C   C42       1.0  0.5005974928655235  0.1318463162685148  0.6460331237623366  1.0000
  C   C43       1.0  0.5016306022990378  0.8635058728448828  0.36201099054181896  1.0000
  C   C44       1.0  0.51018708242961  0.866237164392203  0.637091256982245  1.0000
  C   C45       1.0  0.5484902482981511  0.6977770702212923  0.7485460867115351  1.0000
  C   C46       1.0  0.49523841686004033  0.1415797828564536  0.36310626177515104  1.0000
  C   C47       1.0  0.22384121907493448  0.8676624147235191  0.36014005196021515  1.0000
  C   C48       1.0  0.7769688512406248  0.14675361655373112  0.6197357171474493  1.0000
  C   C49       1.0  0.2273660041790535  0.3771348171130741  0.8589386163686257  1.0000
  C   C50       1.0  0.9438902603150011  0.2921988925408884  0.7038957181395419  1.0000
  C   C51       1.0  0.8893923791009685  0.20411235011883386  0.6678620222153384  1.0000
  C   C52       1.0  0.055254499387992  0.35245696238223456  0.7567241897037961  1.0000
  C   C53       1.0  0.5492620965944682  0.7531260020684557  0.69590001805242  1.0000
  C   C54       1.0  0.5086624792637695  0.8029772777882588  0.6884993812924451  1.0000
  C   C55       1.0  0.46452756810904827  0.7898260074814873  0.7349169733836762  1.0000
  C   C56       1.0  0.4143643858259551  0.8212432543180981  0.7584455122376357  1.0000
  Br  Br1       1.0  0.26051733084550943  0.6458103501943885  0.7511822613850685  1.0000
  Br  Br2       1.0  0.30489379717464254  0.09487730560021392  0.8363510942628452  1.0000
  Br  Br3       1.0  0.6055183580969865  0.7546643331251772  0.6325450405616307  1.0000
  O   O1        1.0  0.500767546108456  0.5013675494864458  0.9992482853045461  1.0000
  O   O2        1.0  0.43851913973696804  0.058419983354177404  0.32371590081179863  1.0000
  O   O3        1.0  0.2672406167872766  0.8929839672708014  0.44358410154120537  1.0000
  O   O4        1.0  0.44406134997586116  0.32715451931711204  0.055008782190114326  1.0000
  O   O5        1.0  0.7305165331269593  0.18372267851798096  0.6065326302021461  1.0000
  O   O6        1.0  0.2680407955043265  0.8822282278078719  0.3207912913636193  1.0000
  O   O7        1.0  0.7362678452976396  0.06372339737281861  0.5959677879487515  1.0000
  O   O8        1.0  0.5853024800890128  0.9082279051123482  0.6311359709285329  1.0000
  O   O9        1.0  0.5494932670181784  0.1801330614944163  0.4467499749975872  1.0000
  O   O10       1.0  0.43198242376106316  0.04933299154570392  0.6143590617659385  1.0000
  O   O11       1.0  0.44676637235446753  0.8923955788466034  0.3231294739927932  1.0000
  O   O12       1.0  0.44799056235353163  0.6281612681371416  0.05297140095927231  1.0000
  O   O13       1.0  0.4776125814783115  0.6400553423976663  0.9033460872698172  1.0000
  O   O14       1.0  0.5529174172936778  0.6101539199180906  0.17550295162806157  1.0000
  O   O15       1.0  0.5794608390333876  0.43756065624342716  0.9103342331757674  1.0000
  O   O16       1.0  0.7314291688584689  0.6361625524249278  0.17187954680749573  1.0000
  O   O17       1.0  0.2659289798777351  0.33356171175584853  0.8925829857619761  1.0000
  O   O18       1.0  0.7326550823130377  0.6249232182038614  0.049492340569457886  1.0000
  O   O19       1.0  0.2778968774371294  0.46005617671607996  0.8700460187707294  1.0000
  O   O20       1.0  0.6683620385654551  0.4160448701342148  0.8507732991839988  1.0000
  O   O21       1.0  0.6649410291861245  0.3180940171521769  0.7469186863862021  1.0000
  O   O22       1.0  0.9043053100772199  0.6919882845037366  0.06890480378420692  1.0000
  O   O23       1.0  0.42262231986737925  0.3231496307782109  0.8707209782672649  1.0000
  O   O24       1.0  0.10595402951160085  0.8086283334316138  0.4911334699104658  1.0000
  O   O25       1.0  0.09482092140253676  0.43758447732862754  0.7581585543061351  1.0000
  O   O26       1.0  0.4816594410588237  0.9115672562501447  0.8088261032425521  1.0000
  O   O27       1.0  0.4514853098166115  0.7869665704914585  0.9016803288168732  1.0000
  O   O28       1.0  0.5744678462093517  0.4499978101818983  0.17782183728203896  1.0000
  O   O29       1.0  0.546097809144925  0.5904436169559805  0.8610678325999999  1.0000
  O   O30       1.0  0.5001028708241365  0.0006138348849021002  0.49984824351376744  1.0000
  O   O31       1.0  0.5713379389465203  0.1712693401734526  0.6319893205074721  1.0000
  O   O32       1.0  0.5573052924844505  0.878865471304991  0.445676439793438  1.0000
  O   O33       1.0  0.43509776563971764  0.8727767044775804  0.6051397199069655  1.0000
