data_image0
_chemical_formula_structural       Cs4H8C20N12O20
_chemical_formula_sum              "Cs4 H8 C20 N12 O20"
_cell_length_a       4.235761561801902
_cell_length_b       14.047255500248752
_cell_length_c       15.022369670019224
_cell_angle_alpha    89.99997364843075
_cell_angle_beta     89.99982082304264
_cell_angle_gamma    94.65047894204173

_space_group_name_H-M_alt    "P 1"
_space_group_IT_number       1

loop_
  _space_group_symop_operation_xyz
  'x, y, z'

loop_
  _atom_site_type_symbol
  _atom_site_label
  _atom_site_symmetry_multiplicity
  _atom_site_fract_x
  _atom_site_fract_y
  _atom_site_fract_z
  _atom_site_occupancy
  Cs  Cs1       1.0  0.5746514205023273  0.19256004155636924  0.4245705373796085  1.0000
  Cs  Cs2       1.0  0.42534996907791367  0.30743974849117  0.9245715882775513  1.0000
  Cs  Cs3       1.0  0.42534988282825736  0.8074404437483691  0.575429493906384  1.0000
  Cs  Cs4       1.0  0.5746509641649808  0.6925593083514342  0.07542844300891718  1.0000
  H   H1        1.0  0.967344047960573  0.7813704316712203  0.2668880575118209  1.0000
  H   H2        1.0  0.032654457001605436  0.7186284589362443  0.7668881623629177  1.0000
  H   H3        1.0  0.03265507900440671  0.21863076574733498  0.7331119737749816  1.0000
  H   H4        1.0  0.9673439297842419  0.28136988155777937  0.2331125345987672  1.0000
  H   H5        1.0  0.29785646025693074  0.9506956187154713  0.054575608263462506  1.0000
  H   H6        1.0  0.7021446216660294  0.5493041494233848  0.5545765249893932  1.0000
  H   H7        1.0  0.7021428517518801  0.04930629293415478  0.9454244230231055  1.0000
  H   H8        1.0  0.2978588580301746  0.45069562376752964  0.4454235062957892  1.0000
  C   C1        1.0  0.07693578995594662  0.0295483470564974  0.2631095812932358  1.0000
  C   C2        1.0  0.9230646871526104  0.4704501365996803  0.7631107879064629  1.0000
  C   C3        1.0  0.9230631519651881  0.9704521361309942  0.7368904499938012  1.0000
  C   C4        1.0  0.07693406972467898  0.5295496323567334  0.23688924338081557  1.0000
  C   C5        1.0  0.9935181960545378  0.9318509888211393  0.29280070315002854  1.0000
  C   C6        1.0  0.006480016970371608  0.5681478818552604  0.7928015612905523  1.0000
  C   C7        1.0  0.006480930921682701  0.06815020859818328  0.7071973311149549  1.0000
  C   C8        1.0  0.9935161934461121  0.4318511707523313  0.2071998013458796  1.0000
  C   C9        1.0  0.029972952289853076  0.852553459551039  0.2397429391312969  1.0000
  C   C10       1.0  0.9700282198931377  0.6474454540519472  0.7397442426001177  1.0000
  C   C11       1.0  0.9700263597189646  0.14744845209858679  0.7602570921552783  1.0000
  C   C12       1.0  0.029970351936555104  0.3525536006731471  0.2602564543613326  1.0000
  C   C13       1.0  0.21058157030441296  0.9458273926922373  0.122925050987952  1.0000
  C   C14       1.0  0.7894209179567396  0.554171610761692  0.622925888452194  1.0000
  C   C15       1.0  0.7894175566643112  0.05417380472657379  0.8770743146249131  1.0000
  C   C16       1.0  0.2105825617357127  0.44582816242896667  0.37707480850693287  1.0000
  C   C17       1.0  0.19936787668382291  0.029073335213801992  0.1723601961021757  1.0000
  C   C18       1.0  0.8006361692640455  0.4709259345907668  0.6723615107745431  1.0000
  C   C19       1.0  0.8006312502811497  0.9709278622047602  0.8276398351846268  1.0000
  C   C20       1.0  0.19936694034071684  0.5290724101377576  0.3276391861850527  1.0000
  N   N1        1.0  0.13033852750951522  0.8578211663814271  0.15487945144030135  1.0000
  N   N2        1.0  0.8696612393393437  0.6421778103772339  0.6548808459179584  1.0000
  N   N3        1.0  0.869662960872418  0.14218003315489366  0.8451192484975821  1.0000
  N   N4        1.0  0.1303395088522095  0.35782053223378085  0.3451205167166195  1.0000
  N   N5        1.0  0.8739487786755193  0.9137507349938542  0.381261504050201  1.0000
  N   N6        1.0  0.1260531605618738  0.5862480718769943  0.8812629143753838  1.0000
  N   N7        1.0  0.12604997820551486  0.0862490339628224  0.618737861563133  1.0000
  N   N8        1.0  0.8739434199423003  0.41375240919273887  0.11873844826057928  1.0000
  N   N9        1.0  0.3196531328612124  0.11705977036233146  0.1300838378427116  1.0000
  N   N10       1.0  0.6803488429198765  0.38293881561082793  0.630085296577974  1.0000
  N   N11       1.0  0.6803507169226819  0.8829414312907243  0.869916193442002  1.0000
  N   N12       1.0  0.3196546367838237  0.6170609575806051  0.3699134033593339  1.0000
  O   O1        1.0  0.050064548330794906  0.10295941170544148  0.3090064642343364  1.0000
  O   O2        1.0  0.9499399494764585  0.39703832665246347  0.8090076785355507  1.0000
  O   O3        1.0  0.9499343935903399  0.897041071482043  0.6909935670527005  1.0000
  O   O4        1.0  0.05006297508820981  0.6029593038452459  0.1909923527503423  1.0000
  O   O5        1.0  0.9501287657562258  0.8402496042762733  0.4202859551466176  1.0000
  O   O6        1.0  0.049872918881099765  0.659749886810388  0.9202860699984967  1.0000
  O   O7        1.0  0.04987253758186232  0.1597508810289767  0.5797127447915003  1.0000
  O   O8        1.0  0.95013056081136  0.34024988638027753  0.079714626960623  1.0000
  O   O9        1.0  0.6967735277542034  0.9703407663632712  0.4153314281656648  1.0000
  O   O10       1.0  0.303223489879322  0.5296587242994804  0.9153320403909219  1.0000
  O   O11       1.0  0.3032252291268307  0.02965900259340509  0.5846679374476693  1.0000
  O   O12       1.0  0.6967752669942158  0.4703410446566777  0.08466865657029389  1.0000
  O   O13       1.0  0.44957089088717334  0.18185768753389905  0.17683537864449764  1.0000
  O   O14       1.0  0.5504309282871063  0.31814229094304375  0.6768349830027773  1.0000
  O   O15       1.0  0.5504305974835118  0.818143512001647  0.8231653183151977  1.0000
  O   O16       1.0  0.44956764355383433  0.6818567637828181  0.323163716936854  1.0000
  O   O17       1.0  0.2932822535609034  0.12268012863493279  0.0470996036429341  1.0000
  O   O18       1.0  0.7067186658063633  0.37731994751090514  0.5471003757930432  1.0000
  O   O19       1.0  0.7067192348172782  0.877321070901132  0.9528997619688865  1.0000
  O   O20       1.0  0.2932800910709189  0.6226798214455085  0.4528996554942283  1.0000
