data_image0
_chemical_formula_structural       Co2Si2H48C40N16F12
_chemical_formula_sum              "Co2 Si2 H48 C40 N16 F12"
_cell_length_a       7.929067799
_cell_length_b       11.953906027
_cell_length_c       12.594
_cell_angle_alpha    90.0
_cell_angle_beta     90.0
_cell_angle_gamma    90.0

_space_group_name_H-M_alt    "P 1"
_space_group_IT_number       1

loop_
  _space_group_symop_operation_xyz
  'x, y, z'

loop_
  _atom_site_type_symbol
  _atom_site_label
  _atom_site_symmetry_multiplicity
  _atom_site_fract_x
  _atom_site_fract_y
  _atom_site_fract_z
  _atom_site_occupancy
  Co  Co1       1.0  0.7449702978633823  0.2500011287733059  0.2499984119421939  1.0000
  Co  Co2       1.0  0.2550337632697576  0.7500000401333226  0.7499999999999998  1.0000
  Si  Si1       1.0  0.2466330279388771  0.2500002922266589  0.2499992059711005  1.0000
  Si  Si2       1.0  0.753365988465049  0.7499950208534472  0.7500047641734183  1.0000
  H   H1        1.0  0.0174080993502699  0.0713457172972269  0.1996784182944253  1.0000
  H   H2        1.0  0.5244929297394163  0.800967481120722  0.5759488645386667  1.0000
  H   H3        1.0  0.017396748709529692  0.4286565402493778  0.3003184055899624  1.0000
  H   H4        1.0  0.5244941909217218  0.699030089505989  0.9240543115769384  1.0000
  H   H5        1.0  0.9826010065120909  0.9286596343426297  0.8003184055899624  1.0000
  H   H6        1.0  0.4755060866645023  0.1990278319593841  0.4240511354613332  1.0000
  H   H7        1.0  0.9825972229651754  0.5713421190173094  0.6996847705256497  1.0000
  H   H8        1.0  0.4755123925760216  0.3009710794006395  0.0759425123074493  1.0000
  H   H9        1.0  0.4961087607922962  0.0783208432361207  0.13084722883913  1.0000
  H   H10       1.0  0.0026762288503406  0.8710592149947801  0.5869302842623441  1.0000
  H   H11       1.0  0.496102454880777  0.42167974121719  0.3691511831030638  1.0000
  H   H12       1.0  0.0026762288503406  0.6289425383651661  0.9130681276798496  1.0000
  H   H13       1.0  0.5038978227054471  0.9216803256705077  0.8691495950452576  1.0000
  H   H14       1.0  0.9973177428243574  0.1289277326188554  0.4130641575353309  1.0000
  H   H15       1.0  0.5038978227054471  0.5783172449562031  0.6308504049547423  1.0000
  H   H16       1.0  0.9973227875535784  0.3710720152878082  0.08693107829125069  1.0000
  H   H17       1.0  0.638409221401588  0.8861530261383879  0.03983484198824529  1.0000
  H   H18       1.0  0.1367575643806163  0.9573163762666752  0.3975670954422768  1.0000
  H   H19       1.0  0.6384029154900688  0.6138462175816102  0.4601683341273598  1.0000
  H   H20       1.0  0.1367537808337005  0.542687050186565  0.1024329045577232  1.0000
  H   H21       1.0  0.361594839731552  0.1138447965816525  0.9601691281562665  1.0000
  H   H22       1.0  0.8632401908410043  0.04267559062684261  0.6024289344132113  1.0000
  H   H23       1.0  0.36159105618463616  0.3861532782317241  0.5398340479593458  1.0000
  H   H24       1.0  0.8632439743879132  0.4573291765597035  0.8975686835000829  1.0000
  H   H25       1.0  0.9331790555420907  0.8107634423517639  0.02681356201365759  1.0000
  H   H26       1.0  0.4229311799330233  0.9669885285940296  0.3193616007622708  1.0000
  H   H27       1.0  0.9331740108128699  0.689234128274947  0.4731864379863423  1.0000
  H   H28       1.0  0.4229362246622372  0.5330065323927471  0.1806383992377292  1.0000
  H   H29       1.0  0.0668275279556596  0.1892352169149305  0.973188820073048  1.0000
  H   H30       1.0  0.57705522464785  0.0330034382994882  0.6806360171510233  1.0000
  H   H31       1.0  0.0668275279556596  0.31076620408503436  0.5268111799269519  1.0000
  H   H32       1.0  0.5770615305593765  0.4670046750736461  0.8193623947911703  1.0000
  H   H33       1.0  0.22904205715444445  0.808533208992074  0.08572494838811909  1.0000
  H   H34       1.0  0.7195536908789675  0.9068943636928282  0.3119668095918726  1.0000
  H   H35       1.0  0.22903953478983394  0.6914618519946956  0.4142750516118809  1.0000
  H   H36       1.0  0.7195574744258764  0.5931015338405956  0.1880300142925222  1.0000
  H   H37       1.0  0.7709645263433058  0.1914687964612014  0.9142806098141988  1.0000
  H   H38       1.0  0.2804364972488216  0.0931093148537414  0.6880268381769098  1.0000
  H   H39       1.0  0.7709620039786955  0.3085317879921092  0.5857162140701888  1.0000
  H   H40       1.0  0.2804377584311268  0.406902981252621  0.8119739558519894  1.0000
  H   H41       1.0  0.1953331765173374  0.9360078600858799  0.1679228203906646  1.0000
  H   H42       1.0  0.6967653878173152  0.8291942380684391  0.4393719231380047  1.0000
  H   H43       1.0  0.1953205646942919  0.5639897105408309  0.3320755915515292  1.0000
  H   H44       1.0  0.6967641266350098  0.670805005651566  0.06062648880418919  1.0000
  H   H45       1.0  0.8046683622511921  0.0639949819140426  0.8320803557249477  1.0000
  H   H46       1.0  0.3032361509512143  0.17081195011807182  0.5606217246307779  1.0000
  H   H47       1.0  0.8046683622511921  0.4360047659926282  0.6679188502461456  1.0000
  H   H48       1.0  0.303244979227351  0.3291961632550624  0.9393750992536098  1.0000
  C   C1        1.0  0.8941227619335166  0.047640494974089606  0.1702572653644623  1.0000
  C   C2        1.0  0.4000596388392665  0.8304181058123349  0.5539066222010476  1.0000
  C   C3        1.0  0.8941151948396922  0.45236092602587524  0.3297419406066382  1.0000
  C   C4        1.0  0.400057116474656  0.6695819744543173  0.9460941718278517  1.0000
  C   C5        1.0  0.1058825603819287  0.9523623470258329  0.8297411465777387  1.0000
  C   C6        1.0  0.5999393775646524  0.16957553417447713  0.4460902016833401  1.0000
  C   C7        1.0  0.10587877683501287  0.547637733240812  0.6702588534222612  1.0000
  C   C8        1.0  0.5999444222938735  0.33042337718554654  0.05390185802762908  1.0000
  C   C9        1.0  0.6249990699568713  0.0480319988046674  0.13063760520883247  1.0000
  C   C10       1.0  0.1306118230103408  0.8710725997411259  0.5565642369382218  1.0000
  C   C11       1.0  0.6249927640453521  0.4519694221952904  0.3693608067333685  1.0000
  C   C12       1.0  0.1306118230103408  0.6289291536188202  0.9434389391773832  1.0000
  C   C13       1.0  0.3750087747231773  0.9519708431952552  0.8693584246466555  1.0000
  C   C14       1.0  0.8693808874820519  0.1289185306057448  0.4434325869461658  1.0000
  C   C15       1.0  0.3750049911762616  0.5480292370713968  0.6306431634111503  1.0000
  C   C16       1.0  0.8693884545758832  0.3710812173009259  0.0565618548515161  1.0000
  C   C17       1.0  0.692665284145086  0.9527756010692272  0.08691916785770808  1.0000
  C   C18       1.0  0.19407073303044334  0.9125243226240728  0.4629839606161638  1.0000
  C   C19       1.0  0.6926589782335668  0.5472236426507777  0.4130808321422919  1.0000
  C   C20       1.0  0.1940719942127487  0.5874765941892264  0.0370168334127357  1.0000
  C   C21       1.0  0.3073375158057488  0.0472255678374012  0.9130808321422919  1.0000
  C   C22       1.0  0.8059244998265669  0.08746513462950391  0.5370120692393171  1.0000
  C   C23       1.0  0.3073349934411381  0.4527750166159166  0.5869191678577081  1.0000
  C   C24       1.0  0.8059320669203911  0.4125371229171009  0.9629839606161639  1.0000
  C   C25       1.0  0.9835380649643994  0.8723274197109419  0.08212640940130458  1.0000
  C   C26       1.0  0.4790046063774369  0.9134010235096497  0.3798078450055583  1.0000
  C   C27       1.0  0.983530497870575  0.6276684778224748  0.4178751786565016  1.0000
  C   C28       1.0  0.4790046063774369  0.5865973836637082  0.1201921549944416  1.0000
  C   C29       1.0  0.0164710408979545  0.1276712395557453  0.917875972685408  1.0000
  C   C30       1.0  0.5209906264795734  0.0865959626637434  0.6201881848499298  1.0000
  C   C31       1.0  0.016467257351045792  0.3723276718042783  0.5821248213434983  1.0000
  C   C32       1.0  0.5209969323910926  0.4134113141627438  0.8798078450055584  1.0000
  C   C33       1.0  0.1439084680476412  0.872809270579353  0.11462998253136189  1.0000
  C   C34       1.0  0.6398482304111255  0.8803289883851448  0.3774194060663801  1.0000
  C   C35       1.0  0.14390090095381675  0.6271874635007109  0.38536922343973146  1.0000
  C   C36       1.0  0.6398482304111255  0.6196677456949189  0.12257900587581358  1.0000
  C   C37       1.0  0.8560981154501022  0.1271918983272755  0.8853747816420494  1.0000
  C   C38       1.0  0.3601470024458776  0.1196730170681306  0.6225750357313018  1.0000
  C   C39       1.0  0.8560955930854917  0.3728078495793953  0.614624424329044  1.0000
  C   C40       1.0  0.360153308357404  0.3803367693982977  0.8774233762108921  1.0000
  N   N1        1.0  0.7525361305086236  0.106156932899907  0.18197872002540544  1.0000
  N   N2        1.0  0.2607771874848623  0.8205117204239514  0.6122931554708586  1.0000
  N   N3        1.0  0.7525285634147991  0.3938453246467049  0.3180181038589822  1.0000
  N   N4        1.0  0.2607784486671675  0.6794883598427008  0.8877084325869474  1.0000
  N   N5        1.0  0.2474679306245164  0.8938467456466626  0.8180157217722692  1.0000
  N   N6        1.0  0.739218045372148  0.1794835926561547  0.38770366841352905  1.0000
  N   N7        1.0  0.2474654082599059  0.6061524980733425  0.6819858662855295  1.0000
  N   N8        1.0  0.7392243512836671  0.3205186648904572  0.11228997935524629  1.0000
  N   N9        1.0  0.8628050829459184  0.9531629221665768  0.1128966174368742  1.0000
  N   N10       1.0  0.3643467395201654  0.8857832725206195  0.4617913292043809  1.0000
  N   N11       1.0  0.8627987770343921  0.5468388311933623  0.3871002064475134  1.0000
  N   N12       1.0  0.3643480007024706  0.6142184808393267  0.038210258853425196  1.0000
  N   N13       1.0  0.1371977170049163  0.04683741019340461  0.8871010004764202  1.0000
  N   N14       1.0  0.6356484933368378  0.11421287710613372  0.5382070827378129  1.0000
  N   N15       1.0  0.1371951946403058  0.453160664619972  0.6128989995235798  1.0000
  N   N16       1.0  0.6356573216129746  0.3857893804404782  0.9617873590598691  1.0000
  F   F1        1.0  0.4626495942515021  0.2499994556800118  0.2499896776242636  1.0000
  F   F2        1.0  0.9695250683780898  0.7500000401333226  0.7500238208670779  1.0000
  F   F3        1.0  0.5373532056993326  0.7499883284802707  0.7499920597109764  1.0000
  F   F4        1.0  0.0304802539373554  0.250001965319953  0.2500174686358605  1.0000
  F   F5        1.0  0.2449997968544295  0.39119765451038563  0.22313482610766744  1.0000
  F   F6        1.0  0.7519030169917187  0.7782075565081712  0.8840265205653495  1.0000
  F   F7        1.0  0.2450048415836505  0.1088020933962781  0.2768643798634258  1.0000
  F   F8        1.0  0.7519446360077708  0.7217824851987161  0.6159853898681931  1.0000
  F   F9        1.0  0.7550030030964052  0.6087968220230664  0.7768723201524563  1.0000
  F   F10       1.0  0.24805942512536913  0.2217919393051631  0.11598062569477459  1.0000
  F   F11       1.0  0.7549966971848789  0.8911923831371809  0.7231380022232798  1.0000
  F   F12       1.0  0.24809726059450543  0.2782094816948018  0.3840233444497372  1.0000
