data_image0
_chemical_formula_structural       Zr6H20C62S12O58
_chemical_formula_sum              "Zr6 H20 C62 S12 O58"
_cell_length_a       16.599302833417067
_cell_length_b       16.350561395110212
_cell_length_c       16.437935199759877
_cell_angle_alpha    61.74712144504049
_cell_angle_beta     59.3213209113679
_cell_angle_gamma    59.84513529058907

_space_group_name_H-M_alt    "P 1"
_space_group_IT_number       1

loop_
  _space_group_symop_operation_xyz
  'x, y, z'

loop_
  _atom_site_type_symbol
  _atom_site_label
  _atom_site_symmetry_multiplicity
  _atom_site_fract_x
  _atom_site_fract_y
  _atom_site_fract_z
  _atom_site_occupancy
  Zr  Zr1       1.0  0.8944712706415672  0.896855356351665  0.5941515963209981  1.0000
  Zr  Zr2       1.0  0.11404894517381337  0.09864155133508487  0.3923245784825795  1.0000
  Zr  Zr3       1.0  0.10592996684859889  0.8912711610840988  0.6043208518534444  1.0000
  Zr  Zr4       1.0  0.8980631581737625  0.10890694879726232  0.38674232735742464  1.0000
  Zr  Zr5       1.0  0.11343165621321541  0.8885796020002132  0.38410622090565744  1.0000
  Zr  Zr6       1.0  0.8948558822242844  0.10724368653374242  0.6028412357368753  1.0000
  H   H1        1.0  0.08128216226921832  0.7470316853393514  0.5745329130348226  1.0000
  H   H2        1.0  0.09673171167793267  0.07908058690767918  0.24249146770697652  1.0000
  H   H3        1.0  0.08758845648706161  0.08113688553300583  0.582833757347963  1.0000
  H   H4        1.0  0.7479812527477916  0.08745734861299324  0.576593996898609  1.0000
  H   H5        1.0  0.0846581213161102  0.6522331469116549  0.8804161339674297  1.0000
  H   H6        1.0  0.8180738656895626  0.676907722487563  0.8749803391983806  1.0000
  H   H7        1.0  0.8825216169287415  0.3850837114906724  0.14773283667901896  1.0000
  H   H8        1.0  0.12995167142950242  0.37962441042699874  0.1722929219708931  1.0000
  H   H9        1.0  0.8394314835432866  0.3118188641770415  0.6304220126480545  1.0000
  H   H10       1.0  0.16232064681973674  0.5836056436778989  0.23875348487565873  1.0000
  H   H11       1.0  0.515189940023184  0.7436267018032937  0.07741471579977609  1.0000
  H   H12       1.0  0.7189528620029789  0.13398366202024894  0.8083798668157841  1.0000
  H   H13       1.0  0.15907729342916319  0.7642555667654066  0.9217684011237922  1.0000
  H   H14       1.0  0.7528864167880442  0.13174705295899258  0.1383544411270209  1.0000
  H   H15       1.0  0.47620640426189464  0.645183640711238  0.6265575362073009  1.0000
  H   H16       1.0  0.6550049160012819  0.4262529442888477  0.25995616758774537  1.0000
  H   H17       1.0  0.3017447800231565  0.1375157934746056  0.34527195738339606  1.0000
  H   H18       1.0  0.7174227108252326  0.8472478627392801  0.6302977428204741  1.0000
  H   H19       1.0  0.26016681802617087  0.5606635678268147  0.8708434216960159  1.0000
  H   H20       1.0  0.8083489952920857  0.37568562687198453  0.05581132650819153  1.0000
  C   C1        1.0  0.003159005071218195  0.7370427906701805  0.47347017450771034  1.0000
  C   C2        1.0  0.28612498457393093  0.9776858406770258  0.23291072595394982  1.0000
  C   C3        1.0  0.9980038593443512  0.27477057315255826  0.4966867965141476  1.0000
  C   C4        1.0  0.7303880525364832  0.0011292472929368559  0.7705769328177254  1.0000
  C   C5        1.0  0.9762279247287681  0.743898152172811  0.7693658928692103  1.0000
  C   C6        1.0  0.7360927410299495  0.9918081532328032  0.4858307443472966  1.0000
  C   C7        1.0  0.01032216374494514  0.2739766644971126  0.2393078269861562  1.0000
  C   C8        1.0  0.2854997929703416  0.9907484417563592  0.4874784551193942  1.0000
  C   C9        1.0  0.27074133456353894  0.7209102648267417  0.5038504345675039  1.0000
  C   C10       1.0  0.9940289876631352  0.005399699292773854  0.7690058241250103  1.0000
  C   C11       1.0  0.7316116187427112  0.2736947365564646  0.5010835386589677  1.0000
  C   C12       1.0  0.00445698230203108  0.00839050756297148  0.21626562848913983  1.0000
  C   C13       1.0  0.9184911718223103  0.43612346325541285  0.5457259695791097  1.0000
  C   C14       1.0  0.07618330889369683  0.5864290709617633  0.41256291386009286  1.0000
  C   C15       1.0  0.992137107390235  0.3692069885820287  0.49113119565326735  1.0000
  C   C16       1.0  0.0024690585010772145  0.6494497673993251  0.4708262873381416  1.0000
  C   C17       1.0  0.04390021241342612  0.5093172015403411  0.4375385441651646  1.0000
  C   C18       1.0  0.9494496998981676  0.5160503996420474  0.5133952609148128  1.0000
  C   C19       1.0  0.4247940463823382  0.9168750594000342  0.08222934150112601  1.0000
  C   C20       1.0  0.6004880758418877  0.049096343679735775  0.932757949519939  1.0000
  C   C21       1.0  0.3774321063014482  0.9746910642996197  0.14561982404364232  1.0000
  C   C22       1.0  0.6477384421243354  0.9952142343929108  0.8653229023669912  1.0000
  C   C23       1.0  0.521794077833384  0.016884369308449713  0.012567551177220155  1.0000
  C   C24       1.0  0.509413058155495  0.9416605747017498  0.005362714540389492  1.0000
  C   C25       1.0  0.07156263428900907  0.9518147253606059  0.8932345937817845  1.0000
  C   C26       1.0  0.9357539983983898  0.08400003168910065  0.07688360855047466  1.0000
  C   C27       1.0  0.9964590270421567  0.01131127099100116  0.8536441956685579  1.0000
  C   C28       1.0  0.005853528584061993  0.01636067402279909  0.12268581319626291  1.0000
  C   C29       1.0  0.9564392772800616  0.056587213836472305  0.9962286064784679  1.0000
  C   C30       1.0  0.04564206381063231  0.9747530607879327  0.9784104144478861  1.0000
  C   C31       1.0  0.40353923678481596  0.5820388178875859  0.5793019068763315  1.0000
  C   C32       1.0  0.5836326895495247  0.39808580540438493  0.44745350296191333  1.0000
  C   C33       1.0  0.35524061071618723  0.6275712988406352  0.5117316741271056  1.0000
  C   C34       1.0  0.6388895078496118  0.35864366100830836  0.5068306214323856  1.0000
  C   C35       1.0  0.5014021817725904  0.4832664219557472  0.4703123663572556  1.0000
  C   C36       1.0  0.4909360242750722  0.5013264895698555  0.5519899868117265  1.0000
  C   C37       1.0  0.024173965422391933  0.6241569278429465  0.9143611816375242  1.0000
  C   C38       1.0  0.8736939243011858  0.6377878030601138  0.9097556885364428  1.0000
  C   C39       1.0  0.8632045881251149  0.5605692830458936  0.9956481190750852  1.0000
  C   C40       1.0  0.9364440497340495  0.5076952565686667  0.04124562239940144  1.0000
  C   C41       1.0  0.93716915635558  0.41900663830512036  0.11962178457864081  1.0000
  C   C42       1.0  0.07868605921245127  0.41437105290865617  0.13318212881762292  1.0000
  C   C43       1.0  0.0805081678610264  0.5002483151283599  0.055938402525022496  1.0000
  C   C44       1.0  0.01454245477913222  0.5458107201729802  0.0030508828887648902  1.0000
  C   C45       1.0  0.9578431215408755  0.6666209035594903  0.8667755999887703  1.0000
  C   C46       1.0  0.008654904894605398  0.371399113749419  0.16204911030332883  1.0000
  C   C47       1.0  0.435586440180856  0.0515779544482484  0.4090533509849266  1.0000
  C   C48       1.0  0.6049237881287081  0.9123455041328372  0.5449655744495774  1.0000
  C   C49       1.0  0.38053538494355627  0.9874638897024608  0.4769058772673844  1.0000
  C   C50       1.0  0.655133824585192  0.9812260656942585  0.48211895654911535  1.0000
  C   C51       1.0  0.526183324181339  0.9380555253949721  0.51592794588791  1.0000
  C   C52       1.0  0.5184958955099079  0.021808489969032438  0.43382799559211804  1.0000
  C   C53       1.0  0.8189408994301531  0.43900458480524657  0.6277712061859191  1.0000
  C   C54       1.0  0.17976326328200543  0.5881343794023337  0.34593596146421396  1.0000
  C   C55       1.0  0.38595867429619785  0.8509918614851628  0.08298173116051555  1.0000
  C   C56       1.0  0.6160101676973608  0.1301351612409078  0.9363469634565434  1.0000
  C   C57       1.0  0.17562477473175886  0.8939358726043379  0.8372048525914694  1.0000
  C   C58       1.0  0.8576235306970476  0.17993171329788293  0.09710050200761347  1.0000
  C   C59       1.0  0.36538026466005374  0.6024994816392135  0.6751655066224062  1.0000
  C   C60       1.0  0.5933349567946847  0.34189133770069446  0.38986571107251694  1.0000
  C   C61       1.0  0.42586762429753827  0.14018198468868798  0.3203497744179985  1.0000
  C   C62       1.0  0.6166839374647207  0.8217369874793262  0.6315630338085614  1.0000
  S   S1        1.0  0.09550069704110337  0.40411359886641657  0.40311334843603674  1.0000
  S   S2        1.0  0.8970357396641685  0.6166433046492585  0.5537967728940602  1.0000
  S   S3        1.0  0.4333986651885695  0.05680685743944026  0.1135463906210603  1.0000
  S   S4        1.0  0.5969804330569985  0.9077538559544461  0.8998109375091234  1.0000
  S   S5        1.0  0.8999241199791969  0.10031042109170571  0.9129068822961415  1.0000
  S   S6        1.0  0.09929968351801205  0.9266779674877483  0.06460221378445408  1.0000
  S   S7        1.0  0.40953197080868625  0.5692139922632151  0.4222761546677632  1.0000
  S   S8        1.0  0.5871259111309826  0.41810060269870053  0.5956836311103544  1.0000
  S   S9        1.0  0.4321084395872033  0.8929789280952889  0.5653285034212132  1.0000
  S   S10       1.0  0.6076940925778515  0.07167833894007453  0.3894614697368156  1.0000
  S   S11       1.0  0.16351356526256927  0.5568817271386662  0.029003197910590507  1.0000
  S   S12       1.0  0.7504665939316767  0.5337828560152788  0.052078555778166634  1.0000
  O   O1        1.0  0.9324960010592066  0.7727575759338023  0.5446305371640676  1.0000
  O   O2        1.0  0.24983103573035953  0.048920659130537544  0.26852672057357563  1.0000
  O   O3        1.0  0.07236629651085012  0.23248081168951976  0.43270552227232884  1.0000
  O   O4        1.0  0.7619239573087313  0.9374518088918009  0.7280562898568802  1.0000
  O   O5        1.0  0.04808913929161923  0.7730424394448859  0.7375424772984404  1.0000
  O   O6        1.0  0.7702230844605893  0.06055221999665144  0.42066046986509065  1.0000
  O   O7        1.0  0.9410895457656351  0.2422187589714611  0.26845552808282497  1.0000
  O   O8        1.0  0.24819201701227894  0.9252033406843339  0.5559302427193559  1.0000
  O   O9        1.0  0.24315674947580126  0.7541603652068574  0.4313950423483775  1.0000
  O   O10       1.0  0.9244646565492686  0.07285113267528938  0.7355322962774055  1.0000
  O   O11       1.0  0.7671313580451055  0.23994188183738177  0.5686451734276619  1.0000
  O   O12       1.0  0.07102833455661545  0.9358170466932307  0.2497615204591953  1.0000
  O   O13       1.0  0.06226055401581463  0.9329054297178273  0.7344044097491323  1.0000
  O   O14       1.0  0.7702722931841278  0.2391342321292029  0.42860393565626964  1.0000
  O   O15       1.0  0.9337896186328793  0.07661290952184885  0.25681361480917536  1.0000
  O   O16       1.0  0.23246072963983266  0.761448862701279  0.5721346666533976  1.0000
  O   O17       1.0  0.9178905804346514  0.7738265014098714  0.7243546452955844  1.0000
  O   O18       1.0  0.24323298299420051  0.06371774090172269  0.42554643910695944  1.0000
  O   O19       1.0  0.083786255401435  0.22882361504783685  0.2691891342811701  1.0000
  O   O20       1.0  0.7672418471645487  0.9297625598513689  0.5588383176025788  1.0000
  O   O21       1.0  0.7649416586234281  0.07113978363557287  0.7353470523908073  1.0000
  O   O22       1.0  0.07307153381680125  0.7710268419719596  0.4067562522302595  1.0000
  O   O23       1.0  0.24879195161472015  0.911158055954793  0.2666781120958392  1.0000
  O   O24       1.0  0.9286827997904225  0.2395300665424926  0.5666894023135712  1.0000
  O   O25       1.0  0.8203016789715748  0.06324334923854737  0.5532155692861809  1.0000
  O   O26       1.0  0.0628549701804957  0.05766395585091996  0.5587244524408278  1.0000
  O   O27       1.0  0.06927593244681421  0.05597413448688829  0.3141385127354255  1.0000
  O   O28       1.0  0.06019063570433743  0.8186725947277865  0.5514132530229219  1.0000
  O   O29       1.0  0.13637326909729816  0.9493497075559175  0.4532906120568399  1.0000
  O   O30       1.0  0.9604963437778269  0.9578532450396934  0.44487466100719814  1.0000
  O   O31       1.0  0.960471256604542  0.1316991541363135  0.452941120683768  1.0000
  O   O32       1.0  0.9544605583844472  0.9574149183151943  0.627215559155083  1.0000
  O   O33       1.0  0.7875456211472738  0.36350846694382  0.6653509520902576  1.0000
  O   O34       1.0  0.7687609571526081  0.5119412290043855  0.6580519056616582  1.0000
  O   O35       1.0  0.2125558856722449  0.5837951683278674  0.25330936893136885  1.0000
  O   O36       1.0  0.2349015814032143  0.5879391366834027  0.3739649696760878  1.0000
  O   O37       1.0  0.4502205930847722  0.7587515667054489  0.07719424114769417  1.0000
  O   O38       1.0  0.30276610847271707  0.8793126324399835  0.08312953300956852  1.0000
  O   O39       1.0  0.6849851267723891  0.16805599560313314  0.8606539878304106  1.0000
  O   O40       1.0  0.5640448244880077  0.15930173018767846  0.00999944045359064  1.0000
  O   O41       1.0  0.20919119348022233  0.7952491738786945  0.8674702590674885  1.0000
  O   O42       1.0  0.22871260774033417  0.9403641659540296  0.7672983751813051  1.0000
  O   O43       1.0  0.7619246632685943  0.1922140614002714  0.12496507763155772  1.0000
  O   O44       1.0  0.8790610407604262  0.24932586346390184  0.08111848756686167  1.0000
  O   O45       1.0  0.4203466775374165  0.6313330989133304  0.6871410871143271  1.0000
  O   O46       1.0  0.2908835862593122  0.5858779619787952  0.7447507411996598  1.0000
  O   O47       1.0  0.6282991755575509  0.37185017758918093  0.29117788539400646  1.0000
  O   O48       1.0  0.563552151551903  0.27209077300881285  0.4365280351598315  1.0000
  O   O49       1.0  0.3454392357784002  0.17877849834088264  0.29687608948034244  1.0000
  O   O50       1.0  0.4928376083000216  0.17541364131399462  0.2715727730244952  1.0000
  O   O51       1.0  0.6822854233952713  0.7976907154935232  0.670033374051542  1.0000
  O   O52       1.0  0.5645315956177941  0.7720385977628437  0.6652966176186582  1.0000
  O   O53       1.0  0.25902187315163894  0.5217795088657198  0.9408387331995769  1.0000
  O   O54       1.0  0.19359062309110434  0.5138086230473249  0.11249817831388506  1.0000
  O   O55       1.0  0.11407453068731828  0.6634285189062723  0.9984925834639855  1.0000
  O   O56       1.0  0.7782720770975756  0.44560075101153973  0.016966353816457048  1.0000
  O   O57       1.0  0.6801284052320398  0.6173146364053534  0.008807004129117635  1.0000
  O   O58       1.0  0.7236804722281605  0.503330452432557  0.1586427961458768  1.0000
