data_image0
_chemical_formula_structural       Cu2H36C36N4Cl4O8
_chemical_formula_sum              "Cu2 H36 C36 N4 Cl4 O8"
_cell_length_a       4.907599433803651
_cell_length_b       10.687141490097973
_cell_length_c       16.741766432072158
_cell_angle_alpha    89.9997059009746
_cell_angle_beta     90.00018896298387
_cell_angle_gamma    94.80997838373335

_space_group_name_H-M_alt    "P 1"
_space_group_IT_number       1

loop_
  _space_group_symop_operation_xyz
  'x, y, z'

loop_
  _atom_site_type_symbol
  _atom_site_label
  _atom_site_symmetry_multiplicity
  _atom_site_fract_x
  _atom_site_fract_y
  _atom_site_fract_z
  _atom_site_occupancy
  Cu  Cu1       1.0  0.4999974715202455  0.5000023023118487  0.500000422769979  1.0000
  Cu  Cu2       1.0  4.376362141974477e-06  0.9999988379446235  1.3435301156000002e-06  1.0000
  H   H1        1.0  0.020034581980411314  0.6668523973310841  0.5148060005542305  1.0000
  H   H2        1.0  0.47996537377043325  0.8331486278817052  0.014806739116046698  1.0000
  H   H3        1.0  0.9799615629083718  0.3331475141986857  0.4851948449940124  1.0000
  H   H4        1.0  0.5200389231525904  0.1668512914464486  0.9851947037446679  1.0000
  H   H5        1.0  0.8947374678072676  0.8875162682517231  0.483899525351461  1.0000
  H   H6        1.0  0.6052478379350958  0.6124860607745005  0.9839008397789116  1.0000
  H   H7        1.0  0.1052571407605853  0.11248645836118241  0.5160995282658051  1.0000
  H   H8        1.0  0.394755957280438  0.38751104153632104  0.0160982138520396  1.0000
  H   H9        1.0  0.6868270667100234  0.065769482811632  0.4181293401252901  1.0000
  H   H10       1.0  0.8131550854304662  0.43423357359846904  0.9181309929546799  1.0000
  H   H11       1.0  0.31316754185782963  0.9342332438012731  0.5818697134919759  1.0000
  H   H12       1.0  0.1868446337635277  0.5657635248165889  0.0818668660572328  1.0000
  H   H13       1.0  0.1204102015503494  0.8041254266597379  0.2941564664424803  1.0000
  H   H14       1.0  0.3795789094839108  0.6958772070755757  0.7941595640579351  1.0000
  H   H15       1.0  0.8795842397914839  0.1958763609397849  0.7058437817933196  1.0000
  H   H16       1.0  0.6204252202013123  0.304121773248319  0.2058406841871587  1.0000
  H   H17       1.0  0.16311721579588584  0.5879709885933693  0.2994704989751185  1.0000
  H   H18       1.0  0.3368755219100308  0.912028791429094  0.7994722476983255  1.0000
  H   H19       1.0  0.836878929087014  0.4120289229409695  0.7005291519560544  1.0000
  H   H20       1.0  0.6631287750100442  0.0879711279013478  0.2005285978538538  1.0000
  H   H21       1.0  0.3180993952595514  0.3004538050090346  0.387651108190525  1.0000
  H   H22       1.0  0.1819003594064128  0.19954835126767992  0.8876492241046988  1.0000
  H   H23       1.0  0.6819011601145776  0.6995479884341477  0.612350931973829  1.0000
  H   H24       1.0  0.8181017322768795  0.8004506271014903  0.1123522187564916  1.0000
  H   H25       1.0  0.2581194532009405  0.3747498342575284  0.29487938451925544  1.0000
  H   H26       1.0  0.2418809237183979  0.12525021558529661  0.7948789971966335  1.0000
  H   H27       1.0  0.7418807677064336  0.6252500811702928  0.7051220583394908  1.0000
  H   H28       1.0  0.7581232059756573  0.8747487647317556  0.2051230429740727  1.0000
  H   H29       1.0  0.1964938881844702  0.5710938324691668  0.6567506437387607  1.0000
  H   H30       1.0  0.303509169670562  0.9289042324142684  0.1567514943060004  1.0000
  H   H31       1.0  0.8035037930105275  0.42890326398887874  0.3432490071977766  1.0000
  H   H32       1.0  0.6964952944843645  0.0710966259227064  0.8432499485532503  1.0000
  H   H33       1.0  0.15901192303547868  0.7348485526270992  0.6660020684800828  1.0000
  H   H34       1.0  0.34099326398313673  0.7651494435361741  0.1660034933985557  1.0000
  H   H35       1.0  0.8409918721859384  0.2651485496791608  0.3339981797679457  1.0000
  H   H36       1.0  0.6590089949291169  0.234850473844098  0.833997352152636  1.0000
  C   C1        1.0  0.6242998316151187  0.7433819371816882  0.4285852771058529  1.0000
  C   C2        1.0  0.8756891723706203  0.7566217572791203  0.928586379427344  1.0000
  C   C3        1.0  0.37569681496349727  0.2566207913791061  0.5714143738209359  1.0000
  C   C4        1.0  0.12431682808757928  0.2433762859884042  0.0714132715116591  1.0000
  C   C5        1.0  0.7259981128932865  0.8698595149202788  0.4419684135352711  1.0000
  C   C6        1.0  0.7739869469404397  0.6301440734102713  0.9419698331179873  1.0000
  C   C7        1.0  0.27399666290352803  0.1301441507037282  0.5580300427720033  1.0000
  C   C8        1.0  0.2260168482750871  0.3698530289005504  0.05802922051296381  1.0000
  C   C9        1.0  0.6116725247787614  0.9690663784837595  0.404910576366845  1.0000
  C   C10       1.0  0.8883074249913889  0.5309337329780347  0.9049130298160862  1.0000
  C   C11       1.0  0.3883197113115743  0.030934468165902698  0.5950872826352905  1.0000
  C   C12       1.0  0.1116965374501646  0.46906430834616947  0.0950848291963311  1.0000
  C   C13       1.0  0.3932242897902327  0.9446014528285503  0.3514245180695426  1.0000
  C   C14       1.0  0.10676538548983668  0.5554007434638635  0.8514260215464445  1.0000
  C   C15       1.0  0.6067721895564802  0.05540033672342301  0.6485751328587027  1.0000
  C   C16       1.0  0.8932367061757915  0.4445982349189919  0.1485718374635283  1.0000
  C   C17       1.0  0.29083741985908773  0.8226212508474763  0.3354030621137625  1.0000
  C   C18       1.0  0.20915022679242412  0.6773820048820198  0.8354054583864752  1.0000
  C   C19       1.0  0.7091570214797968  0.17738053675432752  0.6645965888135095  1.0000
  C   C20       1.0  0.7908498268683317  0.3226169715483849  0.1645929979310523  1.0000
  C   C21       1.0  0.4013130855142392  0.7210072454508776  0.3737510878137158  1.0000
  C   C22       1.0  0.09867527343341456  0.7789975953741574  0.8737524460339755  1.0000
  C   C23       1.0  0.5986798195154888  0.278997357224938  0.6262491604167195  1.0000
  C   C24       1.0  0.9013266510091427  0.22100044399303437  0.1262472049030663  1.0000
  C   C25       1.0  0.28879326433577285  0.5963059662751746  0.35398271498196016  1.0000
  C   C26       1.0  0.21120051216033886  0.9036962143804601  0.8539831749395859  1.0000
  C   C27       1.0  0.711201177009002  0.4036958213220672  0.646018130562375  1.0000
  C   C28       1.0  0.7888056555327125  0.0963027678936044  0.1460170733064956  1.0000
  C   C29       1.0  0.21310526614760758  0.3754444486022592  0.3594227301030273  1.0000
  C   C30       1.0  0.28688979991939334  0.12455604137421968  0.85942298589881  1.0000
  C   C31       1.0  0.7868908787382338  0.6245554629297915  0.6405775181366806  1.0000
  C   C32       1.0  0.7131102537590124  0.8754429350425073  0.140579054269935  1.0000
  C   C33       1.0  0.9045887899513048  0.3500060936953844  0.36928526748596374  1.0000
  C   C34       1.0  0.5954125920751991  0.1499935992911432  0.8692846572135837  1.0000
  C   C35       1.0  0.09541313449713577  0.6499919456672457  0.6307155780681555  1.0000
  C   C36       1.0  0.4045915376129726  0.8500053810304777  0.1307161883400525  1.0000
  N   N1        1.0  0.32512609431709194  0.49521529916629703  0.3938622030591077  1.0000
  N   N2        1.0  0.17487151631220849  0.0047858687025268  0.8938615494800146  1.0000
  N   N3        1.0  0.6748703850443363  0.5047864903742649  0.6061404344118273  1.0000
  N   N4        1.0  0.8251344841518744  0.9952121745604358  0.10613929607606559  1.0000
  Cl  Cl1       1.0  0.2454036418188181  0.06879966242606632  0.3057192390575452  1.0000
  Cl  Cl2       1.0  0.2545832447955192  0.43120404698487386  0.8057226371249868  1.0000
  Cl  Cl3       1.0  0.7545907995141832  0.9312021251803063  0.6942792172526495  1.0000
  Cl  Cl4       1.0  0.7454210521010225  0.5687958723638148  0.1942734299588977  1.0000
  O   O1        1.0  0.184647808512878  0.6681373362967661  0.5505095984766585  1.0000
  O   O2        1.0  0.31535216455272763  0.8318615381749764  0.0505095847678376  1.0000
  O   O3        1.0  0.8153457966723678  0.33185975625637815  0.4494912470749881  1.0000
  O   O4        1.0  0.6846546720738331  0.1681412001298028  0.9494918580894662  1.0000
  O   O5        1.0  0.7359976626027914  0.6509416639469306  0.4643326069577753  1.0000
  O   O6        1.0  0.7639918608230545  0.8490626964662129  0.9643327001915337  1.0000
  O   O7        1.0  0.26399524243282  0.349062938724316  0.5356688358897301  1.0000
  O   O8        1.0  0.23600989639347603  0.15093440388760374  0.0356681453640419  1.0000
