data_image0
_chemical_formula_structural       Al4H32C64N12O28
_chemical_formula_sum              "Al4 H32 C64 N12 O28"
_cell_length_a       6.627583835162424
_cell_length_b       21.615852376479
_cell_length_c       24.656747987829505
_cell_angle_alpha    109.6085404943618
_cell_angle_beta     87.62278722627514
_cell_angle_gamma    88.5005089036503

_space_group_name_H-M_alt    "P 1"
_space_group_IT_number       1

loop_
  _space_group_symop_operation_xyz
  'x, y, z'

loop_
  _atom_site_type_symbol
  _atom_site_label
  _atom_site_symmetry_multiplicity
  _atom_site_fract_x
  _atom_site_fract_y
  _atom_site_fract_z
  _atom_site_occupancy
  Al  Al1       1.0  0.1207652440413014  0.5003891408625804  0.5001966368591795  1.0000
  Al  Al2       1.0  0.6212580491167756  0.499448158023405  0.4998190557906027  1.0000
  Al  Al3       1.0  0.6690960336070403  0.00046859310064210094  0.0009479608913025998  1.0000
  Al  Al4       1.0  0.16924741363513363  0.0011035802204020576  0.9994769651050889  1.0000
  H   H1        1.0  0.1443633069168797  0.7866064556256303  0.9273208843497615  1.0000
  H   H2        1.0  0.3365259379371253  0.22542076238396896  0.06150447397632771  1.0000
  H   H3        1.0  0.1134239328757047  0.6045567675848601  0.7557277425291957  1.0000
  H   H4        1.0  0.4233072637981223  0.40315736030972726  0.23425889568891733  1.0000
  H   H5        1.0  0.17252711824460218  0.6757510206497912  0.8504905155461344  1.0000
  H   H6        1.0  0.3728880251593694  0.33545849901712893  0.13623575144458042  1.0000
  H   H7        1.0  0.7159361213037202  0.7188118511728019  0.5573369152325894  1.0000
  H   H8        1.0  0.32703814741373805  0.27904094096616205  0.45053544713852745  1.0000
  H   H9        1.0  0.8139493382420753  0.854801406912955  0.7239164232587215  1.0000
  H   H10       1.0  0.3086623249649065  0.1485978318358789  0.2775317757993037  1.0000
  H   H11       1.0  0.9891168840581199  0.5841933253023084  0.658896871997875  1.0000
  H   H12       1.0  0.4508786786819384  0.4168261132973468  0.3369152748805817  1.0000
  H   H13       1.0  0.6018505653668739  0.13399986568830258  0.9179466416684577  1.0000
  H   H14       1.0  0.10705302096739898  0.8694760311258846  0.08667153352774902  1.0000
  H   H15       1.0  0.5997824356288817  0.20427635011787262  0.8551001872436003  1.0000
  H   H16       1.0  0.10702491472634534  0.7972548141639988  0.14773186722567289  1.0000
  H   H17       1.0  0.22317001024121907  0.14564704281909263  0.8016937627785269  1.0000
  H   H18       1.0  0.7069131216303148  0.8558093336206555  0.19789418330857705  1.0000
  H   H19       1.0  0.2260896564038006  0.07784779822459609  0.8665378704671626  1.0000
  H   H20       1.0  0.7109348606803747  0.9243266232020417  0.13397372959950363  1.0000
  H   H21       1.0  0.5694740677807175  0.349113938706367  0.6964494553659719  1.0000
  H   H22       1.0  0.08661447612333718  0.6465412150895203  0.3030003537103099  1.0000
  H   H23       1.0  0.5554283390854309  0.41270264970753345  0.628110220008388  1.0000
  H   H24       1.0  0.0720800653949354  0.5843946527117438  0.37257643663669876  1.0000
  H   H25       1.0  0.18630950006564012  0.36518597406219294  0.5805078157469267  1.0000
  H   H26       1.0  0.6835358521528647  0.6329359022081178  0.41538821789955455  1.0000
  H   H27       1.0  0.19839635861628582  0.29817351064765774  0.6458740572819082  1.0000
  H   H28       1.0  0.6943299882754915  0.6989806538765464  0.3490864993727739  1.0000
  H   H29       1.0  0.35807020574800674  0.5464898064220947  0.5730360288404769  1.0000
  H   H30       1.0  0.8875798169357266  0.45361665891106634  0.42673383537808013  1.0000
  H   H31       1.0  0.43606013991218623  0.9647080978370537  0.9238165155581302  1.0000
  H   H32       1.0  0.9122840788660582  0.0110348336802772  0.074464596327509  1.0000
  C   C1        1.0  0.37244501335862173  0.563005543562653  0.43497795958919744  1.0000
  C   C2        1.0  0.8698771579202642  0.4360514202648247  0.5644965256415588  1.0000
  C   C3        1.0  0.393085367783705  0.3911267036322529  0.4279194136164223  1.0000
  C   C4        1.0  0.8469395784333502  0.6081305650856021  0.5732878652321531  1.0000
  C   C5        1.0  0.0976087077992602  0.7173482085906429  0.8428209001957896  1.0000
  C   C6        1.0  0.37788948955576257  0.29098568360670646  0.1478307607249789  1.0000
  C   C7        1.0  0.9695185637581928  0.8297572374734585  0.8764373275826359  1.0000
  C   C8        1.0  0.3838659099910089  0.17308763926453002  0.1209490397309807  1.0000
  C   C9        1.0  0.7632011469736923  0.7267150237426706  0.6008044936136515  1.0000
  C   C10       1.0  0.34878900645925626  0.27181348364272395  0.40481070207589903  1.0000
  C   C11       1.0  0.7621831396810138  0.7904287839662982  0.6407475646927807  1.0000
  C   C12       1.0  0.32219099912480686  0.20976774812086765  0.3641136970977569  1.0000
  C   C13       1.0  0.814334036257719  0.8033899998611884  0.6970622117324083  1.0000
  C   C14       1.0  0.3423882644191067  0.19758804814851064  0.30541169875876767  1.0000
  C   C15       1.0  0.8731140932948166  0.7514130467456326  0.7164071516591336  1.0000
  C   C16       1.0  0.39229195549858537  0.2487138876967308  0.2843069449056587  1.0000
  C   C17       1.0  0.8934808371469031  0.6863018048274085  0.6747485338651913  1.0000
  C   C18       1.0  0.4107369608251902  0.31331712211665774  0.32508314709545527  1.0000
  C   C19       1.0  0.9245094444630554  0.7612082362615665  0.7755681653060194  1.0000
  C   C20       1.0  0.40581219167334137  0.2401403930042392  0.22318892494755718  1.0000
  C   C21       1.0  0.022751547671056496  0.7079922983715647  0.787921747838574  1.0000
  C   C22       1.0  0.40042348456752563  0.29719947451085454  0.20618761654124276  1.0000
  C   C23       1.0  0.043181592305103295  0.6445225865767058  0.7444706835575304  1.0000
  C   C24       1.0  0.4190503587340544  0.36061847855668816  0.24863680708546806  1.0000
  C   C25       1.0  0.9751427819764373  0.633387648991544  0.690779432478564  1.0000
  C   C26       1.0  0.43219506627626453  0.3681691367780218  0.30551135989587413  1.0000
  C   C27       1.0  0.888872227747079  0.8200262184012316  0.8231816878775718  1.0000
  C   C28       1.0  0.41432660493618567  0.17885776585507782  0.17781052070393602  1.0000
  C   C29       1.0  0.0797503005329219  0.7779094545690486  0.8856053703790466  1.0000
  C   C30       1.0  0.3599866770378384  0.23026310268402034  0.10622578045441598  1.0000
  C   C31       1.0  0.8332289411048067  0.6755071069815272  0.6176628264686884  1.0000
  C   C32       1.0  0.39149414578334774  0.32291941485362236  0.38497593785469764  1.0000
  C   C33       1.0  0.7371546573022983  0.13759095652041967  0.8926948029196637  1.0000
  C   C34       1.0  0.23859664156311314  0.8653894019332925  0.11058980534448182  1.0000
  C   C35       1.0  0.7357841451223947  0.17618081349484538  0.8576386783924762  1.0000
  C   C36       1.0  0.23793301177821038  0.8256193466021031  0.1447379296251512  1.0000
  C   C37       1.0  0.9118924991403716  0.17954738421373415  0.8249859779011572  1.0000
  C   C38       1.0  0.40820443248880867  0.8213780903928622  0.17577912344456342  1.0000
  C   C39       1.0  0.08851774617456698  0.14333284073640584  0.8277305447488815  1.0000
  C   C40       1.0  0.5777959135130286  0.8581015049049299  0.17260552033373236  1.0000
  C   C41       1.0  0.0899018322244416  0.10565843071739076  0.8636454491508019  1.0000
  C   C42       1.0  0.5797799502780875  0.8961916990662427  0.1371402626628679  1.0000
  C   C43       1.0  0.9146847528696255  0.10272738709498697  0.8964569693039975  1.0000
  C   C44       1.0  0.4110890835251979  0.8998093478942976  0.10567944633699258  1.0000
  C   C45       1.0  0.8975791122349007  0.2868249940855491  0.7183862393469267  1.0000
  C   C46       1.0  0.4038007180953613  0.7103613362614496  0.2793165013558935  1.0000
  C   C47       1.0  0.9108867958318073  0.22107589714383374  0.7885173209219261  1.0000
  C   C48       1.0  0.41104783510887427  0.7783943696501368  0.21091542411983258  1.0000
  C   C49       1.0  0.7031014156537694  0.352382229501977  0.6703959614688983  1.0000
  C   C50       1.0  0.21543223432487923  0.6440305121242175  0.328356815010423  1.0000
  C   C51       1.0  0.6957111043079748  0.3879227341269029  0.6327616008093813  1.0000
  C   C52       1.0  0.20793049657566337  0.6091755810675822  0.3665207960724858  1.0000
  C   C53       1.0  0.8713068016033959  0.3936876044637501  0.6012916684880808  1.0000
  C   C54       1.0  0.37780665095206695  0.6041780235180739  0.39715124584891015  1.0000
  C   C55       1.0  0.052025919473642476  0.3608238576546157  0.6057759269325161  1.0000
  C   C56       1.0  0.5531800703378522  0.6367042986098639  0.3909652583225595  1.0000
  C   C57       1.0  0.05895305537737271  0.3239185395717996  0.6421763604017059  1.0000
  C   C58       1.0  0.5596842101115199  0.6731010870978268  0.3540120599365366  1.0000
  C   C59       1.0  0.8856484565692924  0.3208509651133867  0.6759814872255064  1.0000
  C   C60       1.0  0.392249468517022  0.6758550666507117  0.3214536715884719  1.0000
  C   C61       1.0  0.39120954210250847  0.1071426464043839  0.0739980348356895  1.0000
  C   C62       1.0  0.9476079273031245  0.8942388799531428  0.924846346281072  1.0000
  C   C63       1.0  0.41788186119324433  0.9394738804092878  0.06659814465454872  1.0000
  C   C64       1.0  0.9145847489241131  0.06267532045072965  0.9352461209700423  1.0000
  N   N1        1.0  0.08167780152462707  0.22187754773199939  0.7565254030645362  1.0000
  N   N2        1.0  0.5773659045004607  0.7772253665969515  0.24089508420029662  1.0000
  N   N3        1.0  0.0746624131365223  0.255318090744268  0.720851359653203  1.0000
  N   N4        1.0  0.5735085122630181  0.742704955894524  0.2757295632238623  1.0000
  N   N5        1.0  0.7380163823256325  0.29403676547355667  0.7564698788968656  1.0000
  N   N6        1.0  0.2526336185414735  0.703151291541971  0.2426340004756824  1.0000
  N   N7        1.0  0.7448599155281102  0.26053025313349565  0.7921568585626773  1.0000
  N   N8        1.0  0.2561644626531319  0.7378471106710619  0.2078116510445724  1.0000
  N   N9        1.0  0.7567823104775825  0.8746754039574326  0.8192770235454745  1.0000
  N   N10       1.0  0.4720192604888496  0.11724902871512201  0.18803317864327343  1.0000
  N   N11       1.0  0.7055704127090507  0.8462134817192178  0.6216221059422082  1.0000
  N   N12       1.0  0.2598211198105389  0.15612336263561843  0.38496804868434964  1.0000
  O   O1        1.0  0.5610910426613105  0.41452909551713185  0.4456572430837014  1.0000
  O   O2        1.0  0.021790046736171607  0.580415578334808  0.5588056995959221  1.0000
  O   O3        1.0  0.199036579395262  0.5498042841109553  0.45153639693799624  1.0000
  O   O4        1.0  0.699172722439421  0.456441738117377  0.5534572289352654  1.0000
  O   O5        1.0  0.22032418209218457  0.4200437516045952  0.4428331796006546  1.0000
  O   O6        1.0  0.6819038536797352  0.5843120602647431  0.5532182657980159  1.0000
  O   O7        1.0  0.0421064166562104  0.4502127521808319  0.5479468534326344  1.0000
  O   O8        1.0  0.542156453849195  0.5427429062814184  0.4467728732841606  1.0000
  O   O9        1.0  0.3651377687670845  0.5124981246121934  0.5354145841921607  1.0000
  O   O10       1.0  0.8773487292773012  0.48726868739106527  0.46453789978950516  1.0000
  O   O11       1.0  0.25030983355433983  0.9608536991111407  0.0547126411882743  1.0000
  O   O12       1.0  0.7440348072164228  0.0548025513853004  0.9572238183546061  1.0000
  O   O13       1.0  0.5632855008586689  0.0774832338013596  0.062222267820800405  1.0000
  O   O14       1.0  0.11191892388099227  0.9145492902669191  0.9477418454352886  1.0000
  O   O15       1.0  0.5926792270939529  0.9486860249291382  0.04761890192604311  1.0000
  O   O16       1.0  0.08368825656800989  0.038872007335989264  0.9437863718901837  1.0000
  O   O17       1.0  0.7727547752828344  0.9218873195063749  0.9386169894690043  1.0000
  O   O18       1.0  0.22785924094179677  0.08816023654065928  0.050187315806368794  1.0000
  O   O19       1.0  0.4264558683958199  0.9885115737179646  0.9649570293185051  1.0000
  O   O20       1.0  0.9142517038569832  0.0117620933113898  0.03535973271966951  1.0000
  O   O21       1.0  0.8375792369576514  0.9263038656600528  0.82132629520639  1.0000
  O   O22       1.0  0.5741475922701227  0.8646731316681269  0.81540986628103  1.0000
  O   O23       1.0  0.6362334399305211  0.11534746061106922  0.20956106721991566  1.0000
  O   O24       1.0  0.35510630184983677  0.0714192730419896  0.17261604693597124  1.0000
  O   O25       1.0  0.6536593786426862  0.8327134862882204  0.5713288500851661  1.0000
  O   O26       1.0  0.7139937500629046  0.9024429133147508  0.656839366615614  1.0000
  O   O27       1.0  0.24307980996416492  0.16882149683926437  0.4379463557375091  1.0000
  O   O28       1.0  0.22706890445509484  0.10244554936279117  0.348386811115553  1.0000
