data_image0
_chemical_formula_structural       Cu2H20C28N16O6
_chemical_formula_sum              "Cu2 H20 C28 N16 O6"
_cell_length_a       8.294272209502811
_cell_length_b       8.87649060365719
_cell_length_c       12.116691701737885
_cell_angle_alpha    69.05990786231833
_cell_angle_beta     70.17451028695149
_cell_angle_gamma    78.45136602511752

_space_group_name_H-M_alt    "P 1"
_space_group_IT_number       1

loop_
  _space_group_symop_operation_xyz
  'x, y, z'

loop_
  _atom_site_type_symbol
  _atom_site_label
  _atom_site_symmetry_multiplicity
  _atom_site_fract_x
  _atom_site_fract_y
  _atom_site_fract_z
  _atom_site_occupancy
  Cu  Cu1       1.0  0.23264077718035742  0.7719060574849337  0.1669673543957302  1.0000
  Cu  Cu2       1.0  0.7673525911943598  0.22809497718780145  0.8330352611835394  1.0000
  H   H1        1.0  0.18408224092546274  0.44480289302633486  0.23148563097099378  1.0000
  H   H2        1.0  0.8159204472777122  0.5551945399933232  0.768514091231303  1.0000
  H   H3        1.0  0.249725615541891  0.455026780404154  0.33694906754087833  1.0000
  H   H4        1.0  0.75027975508916  0.5449694496668587  0.6630503404083115  1.0000
  H   H5        1.0  0.21328186324309686  0.08925184730995282  0.31093534799710193  1.0000
  H   H6        1.0  0.7867148859812406  0.9107407253586288  0.6890645588359234  1.0000
  H   H7        1.0  0.3102867401284825  0.06308207925719242  0.4923496889846036  1.0000
  H   H8        1.0  0.6897196456961083  0.9369165864753202  0.5076438931945048  1.0000
  H   H9        1.0  0.11036997479270383  0.5901038322475075  0.6658104223742712  1.0000
  H   H10       1.0  0.8896380912601246  0.40989119022479076  0.3341911454307151  1.0000
  H   H11       1.0  0.022385809929637922  0.6395853981908957  0.47745526335500427  1.0000
  H   H12       1.0  0.9776136520416685  0.3604059606788682  0.5225501021457007  1.0000
  H   H13       1.0  0.25376070864246  0.0529942023508525  0.688910317279742  1.0000
  H   H14       1.0  0.746240556683759  0.9470044454603866  0.31108529444912836  1.0000
  H   H15       1.0  0.35111917740800885  0.9985290444762358  0.8762297582332436  1.0000
  H   H16       1.0  0.6488759002963674  0.0014804809720913995  0.12376776362172143  1.0000
  H   H17       1.0  0.39595103048129954  0.5020191986970919  0.9454558140890298  1.0000
  H   H18       1.0  0.6040470043274268  0.4979866891338531  0.05454856747714841  1.0000
  H   H19       1.0  0.3045220911858379  0.5346817408648549  0.7607169506472004  1.0000
  H   H20       1.0  0.6954829497251894  0.4653181117588048  0.23928736571191678  1.0000
  C   C1        1.0  0.1973610697809249  0.9827140614144485  0.3930169785133231  1.0000
  C   C2        1.0  0.8026365022551688  0.0172833521339086  0.6069855979417086  1.0000
  C   C3        1.0  0.24876296904774625  0.9638343442712343  0.4946373469750611  1.0000
  C   C4        1.0  0.7512412403889286  0.0361606705726913  0.5053626503561119  1.0000
  C   C5        1.0  0.22207951030659254  0.8213236410848952  0.5966351031785847  1.0000
  C   C6        1.0  0.7779272615449173  0.1786713819446604  0.4033642917291971  1.0000
  C   C7        1.0  0.14085531131489407  0.7014382159816819  0.5897982502673855  1.0000
  C   C8        1.0  0.8591503123361335  0.2985555871707107  0.41020420813128305  1.0000
  C   C9        1.0  0.08931741971844791  0.724826777871762  0.48766610490355333  1.0000
  C   C10       1.0  0.9106842359659879  0.2751682256864996  0.5123361442569561  1.0000
  C   C11       1.0  0.27477683514372586  0.7977710159753145  0.7058763345720963  1.0000
  C   C12       1.0  0.7252319033887247  0.20223006936119964  0.29412184176382533  1.0000
  C   C13       1.0  0.28966766643137026  0.9293277770029605  0.7395554106289025  1.0000
  C   C14       1.0  0.7103345417196465  0.0706745005537783  0.2604431588922509  1.0000
  C   C15       1.0  0.3396947551384245  0.9036489426733496  0.8429160649218161  1.0000
  C   C16       1.0  0.6603019681437915  0.09635695191494881  0.15708284493527458  1.0000
  C   C17       1.0  0.3623048601198917  0.6195943420426957  0.8845691950081545  1.0000
  C   C18       1.0  0.6376933973897253  0.3804091297198084  0.11543246408671591  1.0000
  C   C19       1.0  0.3118791924424329  0.6415309008089238  0.7821925437658095  1.0000
  C   C20       1.0  0.6881269923377786  0.3584701732419121  0.21780788439944126  1.0000
  C   C21       1.0  0.9532817135451024  0.7940197695226916  0.050083475451863535  1.0000
  C   C22       1.0  0.04671416098323529  0.20599460610555556  0.9499117678072863  1.0000
  C   C23       1.0  0.8331704941198909  0.7345289823263529  0.9253466653254704  1.0000
  C   C24       1.0  0.1668267643037069  0.2654841924605336  0.07464526608038818  1.0000
  C   C25       1.0  0.5176994708640806  0.7202673606335069  0.28488521557645174  1.0000
  C   C26       1.0  0.4822991250281489  0.279732485476302  0.7151131845144361  1.0000
  C   C27       1.0  0.6421905197736849  0.6628403671660126  0.44214969288299955  1.0000
  C   C28       1.0  0.3578035556853719  0.3371534053511667  0.5578521776090781  1.0000
  N   N1        1.0  0.11752628255793243  0.8640707900735265  0.39088570341608175  1.0000
  N   N2        1.0  0.8824703683098606  0.13592298597921373  0.6091180387615082  1.0000
  N   N3        1.0  0.37565603391144725  0.7502542596599115  0.9138591043616342  1.0000
  N   N4        1.0  0.6243405866829265  0.24975283986256624  0.08614281613704829  1.0000
  N   N5        1.0  0.827430524182269  0.787893549109235  0.013270746415123581  1.0000
  N   N6        1.0  0.17256564979267347  0.21213052743610925  0.9867177667551985  1.0000
  N   N7        1.0  0.05617778243959752  0.8115461176908456  0.09077457021444245  1.0000
  N   N8        1.0  0.9438191765373959  0.18845735617894385  0.909224091280251  1.0000
  N   N9        1.0  0.8219549468747187  0.6880765652446429  0.8485241942265702  1.0000
  N   N10       1.0  0.17804224779705896  0.3119244879066302  0.151474218905733  1.0000
  N   N11       1.0  0.6418202820586744  0.6688873771268222  0.3337264275195436  1.0000
  N   N12       1.0  0.3581814763136038  0.3311064214972533  0.6662728109993736  1.0000
  N   N13       1.0  0.4190602700932756  0.7685505997783795  0.2265841917246121  1.0000
  N   N14       1.0  0.5809333339762189  0.23144801417583952  0.7734181754922602  1.0000
  N   N15       1.0  0.659914983792106  0.6539811811843991  0.5369865158026172  1.0000
  N   N16       1.0  0.3400877390157931  0.34600292681549405  0.46301585278155233  1.0000
  O   O1        1.0  0.17831517205610234  0.5151178619126356  0.28099674021989773  1.0000
  O   O2        1.0  0.8216940378659103  0.48487838198683875  0.719000939391229  1.0000
  O   O3        1.0  0.0673195906907793  0.8842413489122907  0.29355637385553723  1.0000
  O   O4        1.0  0.9326721840360149  0.11574998540060483  0.7064507989153557  1.0000
  O   O5        1.0  0.42110522505528536  0.7279038195290114  0.013383689959368839  1.0000
  O   O6        1.0  0.5788872005403007  0.2721068980177891  0.98661991906949  1.0000
