data_image0
_chemical_formula_structural       Zn8H64C88O58
_chemical_formula_sum              "Zn8 H64 C88 O58"
_cell_length_a       17.780302727951792
_cell_length_b       18.655652985867608
_cell_length_c       23.250083154830126
_cell_angle_alpha    66.40171500548227
_cell_angle_beta     69.73406293919926
_cell_angle_gamma    89.9833815926996

_space_group_name_H-M_alt    "P 1"
_space_group_IT_number       1

loop_
  _space_group_symop_operation_xyz
  'x, y, z'

loop_
  _atom_site_type_symbol
  _atom_site_label
  _atom_site_symmetry_multiplicity
  _atom_site_fract_x
  _atom_site_fract_y
  _atom_site_fract_z
  _atom_site_occupancy
  Zn  Zn1       1.0  0.1193686002520664  0.5353139660673493  0.9435272272294954  1.0000
  Zn  Zn2       1.0  0.9740847304797812  0.5620986311957878  0.05029237514396811  1.0000
  Zn  Zn3       1.0  0.9787186102267144  0.3887036151056903  0.04845323225658402  1.0000
  Zn  Zn4       1.0  0.9349412973184954  0.5260592941672826  0.9386409403338477  1.0000
  Zn  Zn5       1.0  0.3850248625819789  0.9829382044871907  0.04894228513993692  1.0000
  Zn  Zn6       1.0  0.5297240373504694  0.1169814670324882  0.9387585215050365  1.0000
  Zn  Zn7       1.0  0.5233339229264473  0.9438926541325826  0.9399642230422458  1.0000
  Zn  Zn8       1.0  0.5700380357726544  0.969951070774236  0.05011293258290576  1.0000
  H   H1        1.0  0.1931195096240472  0.3046466467607872  0.9123739974133045  1.0000
  H   H2        1.0  0.12892672035652447  0.2313405805754201  0.9927730418950702  1.0000
  H   H3        1.0  0.2228517419379443  0.1461049098159037  0.9785620332258561  1.0000
  H   H4        1.0  0.292037534043331  0.22380847941350618  0.9036581797326946  1.0000
  H   H5        1.0  0.2158244979591686  0.13330211442185907  0.09200182735475691  1.0000
  H   H6        1.0  0.29107332114499945  0.18746701762871956  0.09894469971118981  1.0000
  H   H7        1.0  0.1355278546669396  0.2310338284587417  0.10082916414373247  1.0000
  H   H8        1.0  0.21710690533602414  0.2913241915492079  0.09436631561931827  1.0000
  H   H9        1.0  0.3059680017399558  0.3942180577852383  0.9051004551354895  1.0000
  H   H10       1.0  0.3104663641342711  0.39656627999405464  0.9787269923695165  1.0000
  H   H11       1.0  0.39322226517064246  0.2984273837980282  0.9901172891884116  1.0000
  H   H12       1.0  0.40003946940122154  0.3064852295067482  0.9104886867288402  1.0000
  H   H13       1.0  0.8915703417747238  0.7903308829024596  0.9193801230435525  1.0000
  H   H14       1.0  0.8703222802931236  0.7737882917384055  0.004360949951490155  1.0000
  H   H15       1.0  0.7920364185159697  0.8756706374235746  0.9866108196485117  1.0000
  H   H16       1.0  0.7984211451805621  0.8776175355509467  0.9082010363088387  1.0000
  H   H17       1.0  0.6950800662041559  0.7672850583690334  0.09500466009546224  1.0000
  H   H18       1.0  0.614958158650687  0.7110502238136788  0.09519879263589823  1.0000
  H   H19       1.0  0.7632631387954093  0.6579424295747031  0.10211495426962366  1.0000
  H   H20       1.0  0.6925574103853974  0.6133353239179299  0.083754913145498  1.0000
  H   H21       1.0  0.7920369403352295  0.7185166832096002  0.8956278850958911  1.0000
  H   H22       1.0  0.7199279936266124  0.6369399764139346  0.9619435182105749  1.0000
  H   H23       1.0  0.6219101597726393  0.7175511527220666  0.9805980465373878  1.0000
  H   H24       1.0  0.6872516408953474  0.7944875352270416  0.9045642200791663  1.0000
  H   H25       1.0  0.1593296213689754  0.8025502837691434  0.9390187716309413  1.0000
  H   H26       1.0  0.24002270371708784  0.7653822310162254  0.8949487910706185  1.0000
  H   H27       1.0  0.33629555487298995  0.853132014337433  0.892434937674935  1.0000
  H   H28       1.0  0.25546005933495053  0.8969661559444262  0.9276748039861432  1.0000
  H   H29       1.0  0.3934558177116543  0.7484553141578801  0.9681690601683287  1.0000
  H   H30       1.0  0.3415795007001918  0.7078425178756832  0.057207607991244844  1.0000
  H   H31       1.0  0.3071701135842417  0.6617938288051803  0.9596041037841303  1.0000
  H   H32       1.0  0.2647900029871053  0.6138980260792763  0.04899101231944072  1.0000
  H   H33       1.0  0.097833162814382  0.7362020971846592  0.06881549005673555  1.0000
  H   H34       1.0  0.1474583121036943  0.6658368164783609  0.11275658891901953  1.0000
  H   H35       1.0  0.22467758436590657  0.7702591273717728  0.10905064012090569  1.0000
  H   H36       1.0  0.18431303353540326  0.8405986773843708  0.05584090537637126  1.0000
  H   H37       1.0  0.8952014550645159  0.25676610648372383  0.9394755067302967  1.0000
  H   H38       1.0  0.8581819120817116  0.3370416571851891  0.8900665130888258  1.0000
  H   H39       1.0  0.7632954715102969  0.24985923612756267  0.8905866346999147  1.0000
  H   H40       1.0  0.8078926585291556  0.1708231682291839  0.9322395143261417  1.0000
  H   H41       1.0  0.6387947960078081  0.28915799950418375  0.9586935750812559  1.0000
  H   H42       1.0  0.606093602513461  0.24737720236051086  0.04803829968179937  1.0000
  H   H43       1.0  0.734533187664006  0.38487777185455496  0.9474467692232978  1.0000
  H   H44       1.0  0.6931293240393258  0.3499684405438614  0.03637572527578217  1.0000
  H   H45       1.0  0.8345351745185708  0.2024362810238927  0.06898087929221222  1.0000
  H   H46       1.0  0.7464150097231795  0.2350552962387127  0.10780176012875127  1.0000
  H   H47       1.0  0.6696739942675052  0.13252464681458062  0.10870325847226787  1.0000
  H   H48       1.0  0.7574316167216252  0.10848064058763641  0.06053250552279374  1.0000
  H   H49       1.0  0.5584502513303988  0.8192326628487763  0.2676449426512308  1.0000
  H   H50       1.0  0.19920397588168023  0.919153741994755  0.2498768244281921  1.0000
  H   H51       1.0  0.15537679830029555  0.8677161024983489  0.40431084129704714  1.0000
  H   H52       1.0  0.4372401621415065  0.7131675598244698  0.4255962136430471  1.0000
  H   H53       1.0  0.35513968247590094  0.7771674058752609  0.5844394326659172  1.0000
  H   H54       1.0  0.07442433521982389  0.6443614145465802  0.5641627637344372  1.0000
  H   H55       1.0  0.9530563403596588  0.5950844971761668  0.7175363908459645  1.0000
  H   H56       1.0  0.3104132471115832  0.6732739625671228  0.7416560092824726  1.0000
  H   H57       1.0  0.6819909754465316  0.9586029167421516  0.7322295942190282  1.0000
  H   H58       1.0  0.5815688218311125  0.30833660330520724  0.7290033217693975  1.0000
  H   H59       1.0  0.6394800743705673  0.3518487938805208  0.567304815924011  1.0000
  H   H60       1.0  0.7886551945868732  0.07302984575376571  0.5769978794090777  1.0000
  H   H61       1.0  0.7179476506502739  0.15308336497194125  0.41168509436865725  1.0000
  H   H62       1.0  0.8679826258570386  0.4307565438568304  0.41515688449636207  1.0000
  H   H63       1.0  0.9185900828142692  0.5439412272426623  0.2577061759469502  1.0000
  H   H64       1.0  0.8221539298468059  0.1975695027985012  0.2539046235585403  1.0000
  C   C1        1.0  0.14060756380778364  0.6425545011477851  0.002546625553591937  1.0000
  C   C2        1.0  0.9128969603498335  0.4112801371038018  0.17408178173453587  1.0000
  C   C3        1.0  0.14952623600188994  0.37109242427833783  0.9986148906028236  1.0000
  C   C4        1.0  0.8593661662888509  0.36069501405778237  0.9950295801845854  1.0000
  C   C5        1.0  0.08709346468685199  0.5924971302865673  0.8163731638524542  1.0000
  C   C6        1.0  0.8539924592208834  0.6348776646721177  0.9946759569430766  1.0000
  C   C7        1.0  0.3641766639461963  0.14920133478772613  0.9941919041786635  1.0000
  C   C8        1.0  0.5881268626266802  0.09156378282598611  0.8147059495271947  1.0000
  C   C9        1.0  0.3534908644191859  0.8707872111995271  0.997454725318889  1.0000
  C   C10       1.0  0.6390543111670438  0.8572346873620945  0.9959206048897401  1.0000
  C   C11       1.0  0.4203633474836509  0.9136061923849397  0.17461797903598622  1.0000
  C   C12       1.0  0.6461032703056375  0.13488626266531872  0.9973938599327141  1.0000
  C   C13       1.0  0.3830233546573254  0.8738788663136391  0.25069792262610263  1.0000
  C   C14       1.0  0.4300502894242158  0.8705801659607317  0.2891299814844503  1.0000
  C   C15       1.0  0.39502991998944037  0.8310802573866455  0.3600823090295863  1.0000
  C   C16       1.0  0.31078724723501233  0.8009485619524311  0.39312199396307795  1.0000
  C   C17       1.0  0.26332061752160735  0.8075302515719828  0.35382583641180804  1.0000
  C   C18       1.0  0.30021020358483236  0.8406383054888378  0.2830002000901289  1.0000
  C   C19       1.0  0.2735752794543629  0.7649973807817645  0.46477327764188914  1.0000
  C   C20       1.0  0.24004847967027843  0.7341988743291309  0.5264837990786475  1.0000
  C   C21       1.0  0.2017566527792525  0.6986577401816517  0.5980638104398112  1.0000
  C   C22       1.0  0.24777982810358173  0.6652528002309168  0.6385354318543932  1.0000
  C   C23       1.0  0.20931607618084064  0.6273388629786895  0.7092540500909837  1.0000
  C   C24       1.0  0.1262904793652666  0.6287722186156799  0.7403735345192999  1.0000
  C   C25       1.0  0.08073614075098587  0.664651650947647  0.7007823989064337  1.0000
  C   C26       1.0  0.11736056183241314  0.6963124495362009  0.6298990437551312  1.0000
  C   C27       1.0  0.6275010817585738  0.12948979399808278  0.7389339756296566  1.0000
  C   C28       1.0  0.6299094624019331  0.0841454274473818  0.7026431914550174  1.0000
  C   C29       1.0  0.6697765240014208  0.1187481922482192  0.6320141472425218  1.0000
  C   C30       1.0  0.7009174030106494  0.2008585662473052  0.5968304648508251  1.0000
  C   C31       1.0  0.6951308008542655  0.24671952362982807  0.6337278908195431  1.0000
  C   C32       1.0  0.6617977802049068  0.21017634328440946  0.704728328264011  1.0000
  C   C33       1.0  0.7372805228813419  0.23666728309112267  0.5252896317703701  1.0000
  C   C34       1.0  0.7680773792855576  0.26714680943933183  0.4634910536148028  1.0000
  C   C35       1.0  0.8035327240810233  0.30258864148729697  0.39190315212079696  1.0000
  C   C36       1.0  0.8349389205875043  0.255855164610061  0.35651911326006314  1.0000
  C   C37       1.0  0.8734051884311356  0.2918719520230865  0.28576404465201943  1.0000
  C   C38       1.0  0.8741790206207369  0.37314060169979507  0.24985213445287974  1.0000
  C   C39       1.0  0.8396101276812614  0.41937887841848465  0.284319118654615  1.0000
  C   C40       1.0  0.8076595889643415  0.38503255829240857  0.35526694405850634  1.0000
  C   C41       1.0  0.19104358516442227  0.2642872471414747  0.9629007981457323  1.0000
  C   C42       1.0  0.2536499828163699  0.20730481385186292  0.9570931187256095  1.0000
  C   C43       1.0  0.30849756568463954  0.21079198246323466  0.9954346759065872  1.0000
  C   C44       1.0  0.25319798306023245  0.19174344383020528  0.06934717263823843  1.0000
  C   C45       1.0  0.19974450222422752  0.25687728044272967  0.0707253082579342  1.0000
  C   C46       1.0  0.20995362723860467  0.31370347523413494  0.997730745571289  1.0000
  C   C47       1.0  0.2981060060266785  0.35657819228188  0.9577832441509742  1.0000
  C   C48       1.0  0.35668049323509626  0.2950036489383124  0.9613348322705022  1.0000
  C   C49       1.0  0.8421743975533929  0.7757671982881574  0.9686173503897494  1.0000
  C   C50       1.0  0.7847008677169711  0.8383188120103853  0.9618806745349532  1.0000
  C   C51       1.0  0.6955717897489677  0.7962436783389749  0.9948442106007535  1.0000
  C   C52       1.0  0.6799734906585827  0.7359265463234195  0.06828008244910683  1.0000
  C   C53       1.0  0.7314915169493972  0.6692834537214907  0.06720229178017692  1.0000
  C   C54       1.0  0.7937722779202331  0.6926036021536748  0.9944746328481172  1.0000
  C   C55       1.0  0.748267557602155  0.6968128007166853  0.948162514429207  1.0000
  C   C56       1.0  0.6836606572130606  0.7516528712985533  0.9547064618029566  1.0000
  C   C57       1.0  0.216182605724029  0.7792583264447757  0.9390180936668601  1.0000
  C   C58       1.0  0.2785103322342195  0.8404898444122464  0.9352437740207268  1.0000
  C   C59       1.0  0.2943871739299411  0.8083740902506236  0.001828854251506736  1.0000
  C   C60       1.0  0.3330484166846688  0.7325441295872538  0.008676112243399963  1.0000
  C   C61       1.0  0.2776693733414248  0.6716560186670151  0.005217197225931727  1.0000
  C   C62       1.0  0.19703812522488556  0.7018200108383896  0.004603590376078313  1.0000
  C   C63       1.0  0.1578489518621495  0.720139175787935  0.06638416537512645  1.0000
  C   C64       1.0  0.21335033411120458  0.7874427906174475  0.06212534776700826  1.0000
  C   C65       1.0  0.8397376141276356  0.281382625536395  0.936508402946643  1.0000
  C   C66       1.0  0.7798462748848037  0.22250716045315494  0.9350850650960681  1.0000
  C   C67       1.0  0.7017351278210029  0.1941480508378106  0.00013370811188906053  1.0000
  C   C68       1.0  0.6600803894515861  0.2667200326920777  0.0007597347382102866  1.0000
  C   C69       1.0  0.7200738627931144  0.3316034449030809  0.9951590314985597  1.0000
  C   C70       1.0  0.798985485202799  0.29969741813425094  0.9987599514041322  1.0000
  C   C71       1.0  0.7782117473191408  0.2223701332784032  0.06386971595085805  1.0000
  C   C72       1.0  0.7249145776898728  0.15806967663934302  0.06244226956462033  1.0000
  C   C73       1.0  0.5154403261262672  0.9170978777671833  0.2547736250964905  1.0000
  C   C74       1.0  0.2529578517745037  0.8316138154555902  0.24241800532324492  1.0000
  C   C75       1.0  0.1740742956348882  0.7732456639767803  0.38924208808364114  1.0000
  C   C76       1.0  0.44533706161121245  0.8258502683566321  0.40183625568347026  1.0000
  C   C77       1.0  0.3372862935463132  0.6657839001817292  0.6046060793918643  1.0000
  C   C78       1.0  0.06846662588953478  0.733954473134105  0.587107552653258  1.0000
  C   C79       1.0  0.9951741495723567  0.677503975564882  0.7338569141577979  1.0000
  C   C80       1.0  0.255284723361676  0.5777074520822723  0.7510793217143644  1.0000
  C   C81       1.0  0.5819461031806624  0.0010667555082193006  0.7380571982798899  1.0000
  C   C82       1.0  0.6713127823907428  0.25592650822189  0.7436471788657573  1.0000
  C   C83       1.0  0.730478515861698  0.3337338572004711  0.5963623332018599  1.0000
  C   C84       1.0  0.6741500148020947  0.0705593705751539  0.5923601427602563  1.0000
  C   C85       1.0  0.8323989568418995  0.16837984539334633  0.39597278259164176  1.0000
  C   C86       1.0  0.7719459601794156  0.4339660513060862  0.3933416664205823  1.0000
  C   C87       1.0  0.8279362649793143  0.5032767650321617  0.24584526929909606  1.0000
  C   C88       1.0  0.921663055260872  0.2447893840031909  0.24969773608007984  1.0000
  O   O1        1.0  0.0016784582365617004  0.5036666014164198  0.9940565307336089  1.0000
  O   O2        1.0  0.17241840182475704  0.6099655904979145  0.9627447130338282  1.0000
  O   O3        1.0  0.9412839780001079  0.48459984328498956  0.14700013800928247  1.0000
  O   O4        1.0  0.07637404431444848  0.34108938742332373  0.04003969452973177  1.0000
  O   O5        1.0  0.06533930898969938  0.6311295326840493  0.039085030195771434  1.0000
  O   O6        1.0  0.17534306376089148  0.44386479848305527  0.9573990095652151  1.0000
  O   O7        1.0  0.9136907937776185  0.366606930391221  0.1446607590363627  1.0000
  O   O8        1.0  0.9052231016776419  0.3342211057948602  0.02800765828018112  1.0000
  O   O9        1.0  0.012130353762898892  0.5636854109566299  0.8423225011224676  1.0000
  O   O10       1.0  0.8618637397984658  0.43363312545786675  0.9577331757646448  1.0000
  O   O11       1.0  0.13380817409962725  0.594725717147007  0.8466307624168865  1.0000
  O   O12       1.0  0.8881065008092008  0.6223936731449913  0.03724980769070651  1.0000
  O   O13       1.0  0.8672965616138344  0.6048280065788276  0.9522215557729651  1.0000
  O   O14       1.0  0.5020216574983323  0.0027095306524672026  0.9958332934192528  1.0000
  O   O15       1.0  0.33160897500155073  0.07647140413107677  0.03096591462640668  1.0000
  O   O16       1.0  0.5585125291013353  0.13717498105167888  0.842262064470937  1.0000
  O   O17       1.0  0.42366811349002376  0.88941405040935  0.9499905934722934  1.0000
  O   O18       1.0  0.43901262658565804  0.17413247708893914  0.9562450959031779  1.0000
  O   O19       1.0  0.3291865942588217  0.9002919760174777  0.0403602667627184  1.0000
  O   O20       1.0  0.5882885708981861  0.0176456570736292  0.8438784405153542  1.0000
  O   O21       1.0  0.5941306457043111  0.8663054813624882  0.9618825431982716  1.0000
  O   O22       1.0  0.49502061641985057  0.9107359331365217  0.14734459754375723  1.0000
  O   O23       1.0  0.6406312321869904  0.8950740582754477  0.030930645809498062  1.0000
  O   O24       1.0  0.3725050681626668  0.9460134465134901  0.14560356234454025  1.0000
  O   O25       1.0  0.6177667940881547  0.16268432925945578  0.9506435582960577  1.0000
  O   O26       1.0  0.6328251491045052  0.06269485150168212  0.04043079126212488  1.0000
  O   O27       1.0  0.5776241764372188  0.8748473146170851  0.2539365991325583  1.0000
  O   O28       1.0  0.5270994262057798  0.9887132742178292  0.2322847113195866  1.0000
  O   O29       1.0  0.1936986189286003  0.8765879401123371  0.23654502298120425  1.0000
  O   O30       1.0  0.2642583426599856  0.7822025585909458  0.22014335786101225  1.0000
  O   O31       1.0  0.12415252534314188  0.8198347688947081  0.41120092641136125  1.0000
  O   O32       1.0  0.1475603471298825  0.708583045586515  0.3973737538923957  1.0000
  O   O33       1.0  0.46409748258329125  0.753168362503139  0.4323641948297238  1.0000
  O   O34       1.0  0.4689160726139221  0.882633319152852  0.4075905349969134  1.0000
  O   O35       1.0  0.3867258657712683  0.735450304600576  0.5799671286201262  1.0000
  O   O36       1.0  0.3644075669817256  0.6078584607668562  0.5999679688566035  1.0000
  O   O37       1.0  0.0483062306526634  0.691592220046644  0.5572660805679206  1.0000
  O   O38       1.0  0.04687429571247747  0.7974970666939923  0.5802322953521186  1.0000
  O   O39       1.0  0.9336729753053064  0.6362250157422124  0.7322919959356541  1.0000
  O   O40       1.0  0.9828530007696372  0.725748136804512  0.7573523592876157  1.0000
  O   O41       1.0  0.3144862984561954  0.6169558898058369  0.7569196136603156  1.0000
  O   O42       1.0  0.24296093265471802  0.5059936882659599  0.7746960350548877  1.0000
  O   O43       1.0  0.6251126845830087  0.9402940893251711  0.7433751144884441  1.0000
  O   O44       1.0  0.5086361384742233  0.9900408851345263  0.7567695125017767  1.0000
  O   O45       1.0  0.6246094154102835  0.31324596933782084  0.7449217695817794  1.0000
  O   O46       1.0  0.7221499781649426  0.24507525454523463  0.7686813190639016  1.0000
  O   O47       1.0  0.6863651119620328  0.3822311063539273  0.5646135978877568  1.0000
  O   O48       1.0  0.7937251486399219  0.35980598164264416  0.5951509502203153  1.0000
  O   O49       1.0  0.7473640329618761  0.04894924044830159  0.5683522286760336  1.0000
  O   O50       1.0  0.616117544071578  0.05107229888925251  0.5828317133570593  1.0000
  O   O51       1.0  0.7599948249220037  0.12144895020380632  0.42026131249770066  1.0000
  O   O52       1.0  0.8911860588779704  0.14081668504724826  0.4051364070788567  1.0000
  O   O53       1.0  0.8189113464506474  0.45525270158879755  0.42102555377043427  1.0000
  O   O54       1.0  0.7059807193233283  0.45415923794659097  0.3987568266845187  1.0000
  O   O55       1.0  0.8738108529776268  0.5631152067324621  0.24368984938293908  1.0000
  O   O56       1.0  0.7757743445213806  0.5157604146833565  0.22219967708688415  1.0000
  O   O57       1.0  0.8788463779546306  0.1898509353154481  0.24359057208859272  1.0000
  O   O58       1.0  0.9949662380800817  0.2524360316355683  0.23122873633294463  1.0000
