data_image0
_chemical_formula_structural       Cu4H16C24S4Br4N8
_chemical_formula_sum              "Cu4 H16 C24 S4 Br4 N8"
_cell_length_a       3.775007294779078
_cell_length_b       8.432936303519902
_cell_length_c       23.978034567245704
_cell_angle_alpha    90.00022085943536
_cell_angle_beta     90.00046872643577
_cell_angle_gamma    91.92567978818306

_space_group_name_H-M_alt    "P 1"
_space_group_IT_number       1

loop_
  _space_group_symop_operation_xyz
  'x, y, z'

loop_
  _atom_site_type_symbol
  _atom_site_label
  _atom_site_symmetry_multiplicity
  _atom_site_fract_x
  _atom_site_fract_y
  _atom_site_fract_z
  _atom_site_occupancy
  Cu  Cu1       1.0  0.9364697020324402  0.9508764832322355  0.1873627313467026  1.0000
  Cu  Cu2       1.0  0.5635264350676722  0.5491206236405118  0.6873656664202556  1.0000
  Cu  Cu3       1.0  0.0635259995626782  0.049121271649838094  0.8126363207814647  1.0000
  Cu  Cu4       1.0  0.43647473244932666  0.4508795089802574  0.31263463685816356  1.0000
  H   H1        1.0  0.1786084458989805  0.006941856942624699  0.0688064282847662  1.0000
  H   H2        1.0  0.3213849925229511  0.49305723331526263  0.5688077963783158  1.0000
  H   H3        1.0  0.8213848578766447  0.9930594550607523  0.9311942920376595  1.0000
  H   H4        1.0  0.6786134420927254  0.5069417104497164  0.43119417509095104  1.0000
  H   H5        1.0  0.1498494374838444  0.5132583548616336  0.042295403070077994  1.0000
  H   H6        1.0  0.35015263323376195  0.9867412169168192  0.5422947150798478  1.0000
  H   H7        1.0  0.8501384003807431  0.4867405794055058  0.9577044831504508  1.0000
  H   H8        1.0  0.6498672460220124  0.013261305287223002  0.4577047541157099  1.0000
  H   H9        1.0  0.8801884638783195  0.5360346405706692  0.1369358468542927  1.0000
  H   H10       1.0  0.6198132504728523  0.9639654369262445  0.6369356606989527  1.0000
  H   H11       1.0  0.11981287120126893  0.46396786504358534  0.8630652905225559  1.0000
  H   H12       1.0  0.3802064612420181  0.03603471228924351  0.3630638084948998  1.0000
  H   H13       1.0  0.7849447032015462  0.29174192306462043  0.1946588665566509  1.0000
  H   H14       1.0  0.7150578651831978  0.20825686239718524  0.6946601290406065  1.0000
  H   H15       1.0  0.21505133351875835  0.708260577804417  0.8053418537683683  1.0000
  H   H16       1.0  0.28496441195711253  0.7917421027003329  0.3053401742508441  1.0000
  C   C1        1.0  0.4290803455602018  0.6540714938574013  0.20827008481938242  1.0000
  C   C2        1.0  0.07090642728338993  0.8459288316206468  0.7082721780124288  1.0000
  C   C3        1.0  0.5709076598453039  0.34592981339829276  0.7917298014028518  1.0000
  C   C4        1.0  0.9290866251375081  0.15406892089004742  0.2917268741139978  1.0000
  C   C5        1.0  0.11823116923426372  0.1258204954969884  0.0828901919090939  1.0000
  C   C6        1.0  0.3817631688769155  0.37418113419105486  0.5828910619643253  1.0000
  C   C7        1.0  0.8817542707783091  0.8741819958840649  0.9171101113606213  1.0000
  C   C8        1.0  0.6182432969993672  0.6258190031749394  0.4171096583659306  1.0000
  C   C9        1.0  0.1769879526722634  0.2574396706729161  0.048742816281496494  1.0000
  C   C10       1.0  0.3230124739815566  0.24256037607095488  0.5487430151562691  1.0000
  C   C11       1.0  0.8229920214292791  0.7425604429719074  0.9512566528863147  1.0000
  C   C12       1.0  0.677004588569929  0.7574397707756189  0.45125687108420454  1.0000
  C   C13       1.0  0.09808642033682699  0.40821168955954334  0.0677356654969898  1.0000
  C   C14       1.0  0.40191507745081634  0.09178976813905139  0.567735764697609  1.0000
  C   C15       1.0  0.9019015850795143  0.5917896176986162  0.9322646377736064  1.0000
  C   C16       1.0  0.5981019851006695  0.9082103787075227  0.4322641215428646  1.0000
  C   C17       1.0  0.9513825850967594  0.4208471313188866  0.12075767593071869  1.0000
  C   C18       1.0  0.5486163927257908  0.0791543402404074  0.6207577125731305  1.0000
  C   C19       1.0  0.04861071867886581  0.5791541806844974  0.8792430443917069  1.0000
  C   C20       1.0  0.45140058606607886  0.9208446201143585  0.37924259071485267  1.0000
  C   C21       1.0  0.8976677920873898  0.2850396521409593  0.1529490952299071  1.0000
  C   C22       1.0  0.6023326079614506  0.2149586403861434  0.6529502191398109  1.0000
  C   C23       1.0  0.10232824462207193  0.7149628487256052  0.84705120804675  1.0000
  C   C24       1.0  0.3976817216453554  0.7850403175947774  0.3470496670980694  1.0000
  S   S1        1.0  0.42729102883129855  0.8039606587180543  0.16408224257705936  1.0000
  S   S2        1.0  0.0726986614706888  0.6960379627969714  0.6640858045090638  1.0000
  S   S3        1.0  0.5727021073600581  0.19603828028692044  0.8359168095502199  1.0000
  S   S4        1.0  0.927299689298657  0.3039597944564818  0.3359132476208302  1.0000
  Br  Br1       1.0  0.3532654891392966  0.2304564554352879  0.9749873034854133  1.0000
  Br  Br2       1.0  0.14673573540869714  0.26954623678605577  0.4749874983447526  1.0000
  Br  Br3       1.0  0.6466877418761426  0.769540075005537  0.0250109145174022  1.0000
  Br  Br4       1.0  0.8532920913697455  0.7304562925321177  0.5250119708560135  1.0000
  N   N1        1.0  0.4323138022046393  0.5452395842255342  0.2393768167751986  1.0000
  N   N2        1.0  0.06767475529334631  0.9547634818646173  0.7393786352112102  1.0000
  N   N3        1.0  0.5676794178005269  0.4547605412835694  0.7606239035463744  1.0000
  N   N4        1.0  0.932315731734626  0.0452354547714435  0.2606208339626903  1.0000
  N   N5        1.0  0.9826600867412625  0.1397175676232933  0.1346652358831477  1.0000
  N   N6        1.0  0.517336881179027  0.36028287944188253  0.6346668612040602  1.0000
  N   N7        1.0  0.017335866208583215  0.8602837467514634  0.8653354844410188  1.0000
  N   N8        1.0  0.48266685176341895  0.639716069060924  0.3653342761719642  1.0000
