data_image0
_chemical_formula_structural       Cd2H12C16Br4N8Cl4
_chemical_formula_sum              "Cd2 H12 C16 Br4 N8 Cl4"
_cell_length_a       3.8358207002638003
_cell_length_b       10.174778361854893
_cell_length_c       16.43770029254645
_cell_angle_alpha    89.99940010665347
_cell_angle_beta     89.99922098879725
_cell_angle_gamma    90.90049174706249

_space_group_name_H-M_alt    "P 1"
_space_group_IT_number       1

loop_
  _space_group_symop_operation_xyz
  'x, y, z'

loop_
  _atom_site_type_symbol
  _atom_site_label
  _atom_site_symmetry_multiplicity
  _atom_site_fract_x
  _atom_site_fract_y
  _atom_site_fract_z
  _atom_site_occupancy
  Cd  Cd1       1.0  0.4999892316891987  1.6733696313008002e-06  0.4999991252558189  1.0000
  Cd  Cd2       1.0  0.5000032488753234  0.4999999530367063  0.999996885325253  1.0000
  H   H1        1.0  0.7421902329537531  0.30794435251006297  0.5201690195905757  1.0000
  H   H2        1.0  0.257829596950728  0.19205175876832928  0.020158684581375007  1.0000
  H   H3        1.0  0.25785815433930276  0.6920562255880397  0.47984180276222343  1.0000
  H   H4        1.0  0.7421951912993946  0.8079469562750389  0.9798326703749469  1.0000
  H   H5        1.0  0.22479536330940425  0.24954574464941  0.788739304062979  1.0000
  H   H6        1.0  0.7751837825722276  0.25044291058840423  0.2887310566065509  1.0000
  H   H7        1.0  0.7751996868273706  0.7504383524256114  0.21126604321722206  1.0000
  H   H8        1.0  0.22478712637275317  0.7495678381853992  0.7112657736224721  1.0000
  H   H9        1.0  0.2722485759077316  0.0582986917987043  0.689866522611375  1.0000
  H   H10       1.0  0.7276944567620519  0.4416957785074018  0.18986267344620705  1.0000
  H   H11       1.0  0.7277004144427296  0.9416974049755351  0.3101272659151278  1.0000
  H   H12       1.0  0.27227623866303213  0.5583120216488098  0.8101323317199417  1.0000
  C   C1        1.0  0.6252758484662592  0.2951424941064431  0.5800991797415236  1.0000
  C   C2        1.0  0.3747408377059784  0.20485356879314054  0.08009261521513623  1.0000
  C   C3        1.0  0.37475943599780237  0.7048571581187203  0.41990677577612  1.0000
  C   C4        1.0  0.625276487316043  0.7951500947801832  0.9199029982412912  1.0000
  C   C5        1.0  0.5972626310665844  0.3980519413164814  0.6361164626497029  1.0000
  C   C6        1.0  0.40275097917343317  0.10194217486834839  0.1361031687730758  1.0000
  C   C7        1.0  0.4027646205382425  0.6019447963798825  0.3638980098977953  1.0000
  C   C8        1.0  0.5972508501691821  0.8980635228369704  0.8638900112731565  1.0000
  C   C9        1.0  0.34026251402458746  0.2618761018866635  0.7285019273573639  1.0000
  C   C10       1.0  0.659733108450979  0.23811648151734485  0.22849537652803065  1.0000
  C   C11       1.0  0.6597514213455611  0.7381167613558048  0.2715015947888589  1.0000
  C   C12       1.0  0.34025068991732615  0.7618922445484486  0.7715002369700203  1.0000
  C   C13       1.0  0.3637795840949209  0.1570405619811197  0.6741838012801582  1.0000
  C   C14       1.0  0.6361877470325225  0.3429540756480307  0.17417969327770785  1.0000
  C   C15       1.0  0.6362004687713352  0.8429524493964137  0.3258160707786218  1.0000
  C   C16       1.0  0.36379858646751717  0.6570536561369451  0.825817136934397  1.0000
  Br  Br1       1.0  0.7634679542571375  0.5694938763100481  0.6073628128966322  1.0000
  Br  Br2       1.0  0.23654639500091426  0.9304933592703436  0.10735526241651172  1.0000
  Br  Br3       1.0  0.23655915501741023  0.430500895646496  0.392649834584681  1.0000
  Br  Br4       1.0  0.7634576846333941  0.0695074126169288  0.8926421761450599  1.0000
  N   N1        1.0  0.5045919306011584  0.17510039673865663  0.60005147436474  1.0000
  N   N2        1.0  0.4953846611700641  0.32489647661149945  0.1000443211179061  1.0000
  N   N3        1.0  0.49539904592676004  0.8248994491866879  0.3999514394409758  1.0000
  N   N4        1.0  0.5046117419120506  0.6751062952509416  0.8999482505896099  1.0000
  N   N5        1.0  0.4556023566663114  0.38307910415171154  0.7090198986507589  1.0000
  N   N6        1.0  0.5444122706976913  0.11690980325396787  0.20900966711030836  1.0000
  N   N7        1.0  0.544426931873474  0.6169097591613663  0.29099092377313  1.0000
  N   N8        1.0  0.4555818818479834  0.8830978943480047  0.7909877714459698  1.0000
  Cl  Cl1       1.0  0.003599711492036298  0.12277893769713435  0.4196604893156889  1.0000
  Cl  Cl2       1.0  0.996391937183418  0.37722507678010686  0.9196567186843938  1.0000
  Cl  Cl3       1.0  0.9963732342247411  0.8772239366410373  0.5803387743657852  1.0000
  Cl  Cl4       1.0  0.0036094650051907992  0.622774723653393  0.08033706973932912  1.0000
