data_image0
_chemical_formula_structural       ZnNiH12C12N8
_chemical_formula_sum              "Zn1 Ni1 H12 C12 N8"
_cell_length_a       6.991769000863688
_cell_length_b       7.284357133967228
_cell_length_c       9.070805465724739
_cell_angle_alpha    113.70291515991435
_cell_angle_beta     113.5363674505281
_cell_angle_gamma    89.94432166685839

_space_group_name_H-M_alt    "P 1"
_space_group_IT_number       1

loop_
  _space_group_symop_operation_xyz
  'x, y, z'

loop_
  _atom_site_type_symbol
  _atom_site_label
  _atom_site_symmetry_multiplicity
  _atom_site_fract_x
  _atom_site_fract_y
  _atom_site_fract_z
  _atom_site_occupancy
  Zn  Zn1       1.0  4.538469148872877e-06  0.5000164999108634  3.6856523308482033e-06  1.0000
  Ni  Ni1       1.0  0.5000044920938793  1.3909063518701006e-05  1.2836218848900836e-07  1.0000
  H   H1        1.0  0.3114816244364036  0.3925436277269085  0.7827956634602061  1.0000
  H   H2        1.0  0.6885146658685528  0.6074879067546847  0.21720246421941178  1.0000
  H   H3        1.0  0.7452799976789423  0.14879152853445285  0.29978119395994457  1.0000
  H   H4        1.0  0.2547081749490446  0.851154480433607  0.7002183501555381  1.0000
  H   H5        1.0  0.6455404378826374  0.2946118168755376  0.5917393067387595  1.0000
  H   H6        1.0  0.3544555385060806  0.7053632991811016  0.40826652483418985  1.0000
  H   H7        1.0  0.0756310402870142  0.13340030338795833  0.26482542888872734  1.0000
  H   H8        1.0  0.9243559528491263  0.8666005342765217  0.735170988565237  1.0000
  H   H9        1.0  0.28377848087874474  0.0943668359445056  0.4357418071239537  1.0000
  H   H10       1.0  0.7159707035011283  0.6575038508446982  0.5634039606809085  1.0000
  H   H11       1.0  0.7161924778681907  0.9056047361275716  0.5642393702784716  1.0000
  H   H12       1.0  0.2840383144886048  0.3424777144830032  0.43659879101930715  1.0000
  C   C1        1.0  0.14291164646704863  0.34712589910802893  0.6932218722995886  1.0000
  C   C2        1.0  0.8570844874186678  0.6528843075415339  0.30677576649960514  1.0000
  C   C3        1.0  0.8449747940879749  0.22087495034863028  0.4431145584439451  1.0000
  C   C4        1.0  0.15502701047777384  0.7791032867629255  0.5569038525495387  1.0000
  C   C5        1.0  0.7980597037749464  0.2928874358203828  0.5874426754675001  1.0000
  C   C6        1.0  0.20194754722261624  0.7070941069180778  0.412556268969091  1.0000
  C   C7        1.0  0.18545880666394512  0.2040094137198096  0.40710829371306545  1.0000
  C   C8        1.0  0.814534106854481  0.7959793844855199  0.5928890845749493  1.0000
  C   C9        1.0  0.6525918146186244  0.1509609883231491  0.9489056832752568  1.0000
  C   C10       1.0  0.3506226531626241  0.20502835651714693  0.05227427354134309  1.0000
  C   C11       1.0  0.3474223681952253  0.8490709110651267  0.051108554787212795  1.0000
  C   C12       1.0  0.649397048222994  0.7950052965446303  0.9477255212183027  1.0000
  N   N1        1.0  0.9851493179112651  0.3710336285538531  0.7422111542173655  1.0000
  N   N2        1.0  0.014848582966621407  0.6289766006849435  0.2577902918454527  1.0000
  N   N3        1.0  0.06376875756011201  0.2561635013697838  0.5119796780172551  1.0000
  N   N4        1.0  0.9362205648097589  0.7438221629361337  0.4880167710103296  1.0000
  N   N5        1.0  0.7543368671253391  0.2502203409857771  0.9217930273057179  1.0000
  N   N6        1.0  0.250489191344677  0.3329847270437868  0.07989778605337254  1.0000
  N   N7        1.0  0.24566566432636713  0.7498037694012113  0.07819995475597355  1.0000
  N   N8        1.0  0.749521968631839  0.6670410583667135  0.920106968244788  1.0000
