data_image0
_chemical_formula_structural       Co4B4H64C60N32O8
_chemical_formula_sum              "Co4 B4 H64 C60 N32 O8"
_cell_length_a       13.61584209602036
_cell_length_b       14.742261360983214
_cell_length_c       15.756649640374256
_cell_angle_alpha    68.46455376338372
_cell_angle_beta     64.40353366314437
_cell_angle_gamma    62.49825832329285

_space_group_name_H-M_alt    "P 1"
_space_group_IT_number       1

loop_
  _space_group_symop_operation_xyz
  'x, y, z'

loop_
  _atom_site_type_symbol
  _atom_site_label
  _atom_site_symmetry_multiplicity
  _atom_site_fract_x
  _atom_site_fract_y
  _atom_site_fract_z
  _atom_site_occupancy
  Co  Co1       1.0  0.8978977586393455  0.9431361189411831  0.8116679625015027  1.0000
  Co  Co2       1.0  0.6527011875732569  0.5568519835659772  0.6883313225269774  1.0000
  Co  Co3       1.0  0.10210195947528433  0.05686375628967259  0.18833167904368514  1.0000
  Co  Co4       1.0  0.3472985305413659  0.4431478916648785  0.31166831901821024  1.0000
  B   B1        1.0  0.7463686403046664  0.25574563237288567  0.016216873242122353  1.0000
  B   B2        1.0  0.018336903882577443  0.24424981024444747  0.48378043632566664  1.0000
  B   B3        1.0  0.25363189212492193  0.7442542429710174  0.9837824640937428  1.0000
  B   B4        1.0  0.9816636288433146  0.7557500648774392  0.5162195356284797  1.0000
  H   H1        1.0  0.5261150021960077  0.025863308917621494  0.8337867170990948  1.0000
  H   H2        1.0  0.3857453027773234  0.4741322702407017  0.6662119312052114  1.0000
  H   H3        1.0  0.4738839016036568  0.9741365662001937  0.16621322865541555  1.0000
  H   H4        1.0  0.6142544156335961  0.5258676047681449  0.3337883449582506  1.0000
  H   H5        1.0  0.5764586432780378  0.8872391387753705  0.8591710020556391  1.0000
  H   H6        1.0  0.3228661658993489  0.6127600951856778  0.6408225340947882  1.0000
  H   H7        1.0  0.4235422049234572  0.11275995447551422  0.14082848581832516  1.0000
  H   H8        1.0  0.6771324224247055  0.3872405618031394  0.35917789573989733  1.0000
  H   H9        1.0  0.4247802277773404  0.9451976306991198  0.004753050073517844  1.0000
  H   H10       1.0  0.37473273938382345  0.5547893402619765  0.49523505534891393  1.0000
  H   H11       1.0  0.5752198064054853  0.0548014622167088  0.9952473766280436  1.0000
  H   H12       1.0  0.6252669787308065  0.44521053496887913  0.5047645861962735  1.0000
  H   H13       1.0  0.561584532424668  0.8807652433711438  0.025446179024918084  1.0000
  H   H14       1.0  0.46778009619338695  0.6192102898744452  0.47457389943754447  1.0000
  H   H15       1.0  0.4384156842330215  0.11923541406578408  0.9745530077728549  1.0000
  H   H16       1.0  0.5322196222175393  0.3807895851344014  0.5254263767259176  1.0000
  H   H17       1.0  0.5324005111736412  0.2659164881434394  0.012373324637003776  1.0000
  H   H18       1.0  0.8106781853205123  0.2340726950780477  0.4876575002963294  1.0000
  H   H19       1.0  0.46760033732415013  0.7340826048854294  0.987626797855235  1.0000
  H   H20       1.0  0.18932121731850782  0.7659279620238094  0.5123426253290335  1.0000
  H   H21       1.0  0.838548785764246  0.1734763616965438  0.8452139599591179  1.0000
  H   H22       1.0  0.8572624109616387  0.32650290871507787  0.6547885114308087  1.0000
  H   H23       1.0  0.16145174696163886  0.826523513425343  0.15478601199502873  1.0000
  H   H24       1.0  0.1427384375361529  0.6734961843137908  0.34521161106142983  1.0000
  H   H25       1.0  0.713501844491404  0.0649505209137189  0.1453917353044503  1.0000
  H   H26       1.0  0.9238462092382279  0.4350441989735571  0.3545913067775289  1.0000
  H   H27       1.0  0.28649868823448105  0.9350493542081679  0.8546082366496893  1.0000
  H   H28       1.0  0.07615350887640206  0.5649556762572985  0.6454083347676586  1.0000
  H   H29       1.0  0.6303306924448365  0.3477266192419961  0.18723095353679747  1.0000
  H   H30       1.0  0.16527993838018068  0.15228393439949878  0.3127634497093581  1.0000
  H   H31       1.0  0.3696695245091491  0.6522740379729086  0.8127688678792498  1.0000
  H   H32       1.0  0.8347214086606699  0.8477159408354353  0.6872362180354655  1.0000
  H   H33       1.0  0.9270788428093227  0.07758303121055832  0.08503919294313525  1.0000
  H   H34       1.0  0.08967863840843655  0.4224379217199753  0.41495701552015163  1.0000
  H   H35       1.0  0.0729213741446629  0.9224176260043464  0.9149606284729122  1.0000
  H   H36       1.0  0.9103218940211519  0.5775619536239348  0.5850423218157131  1.0000
  H   H37       1.0  0.7870864706411002  0.906780952350765  0.05003384091934033  1.0000
  H   H38       1.0  0.7439089674036269  0.593204134484722  0.44998020822866636  1.0000
  H   H39       1.0  0.21291406208478492  0.09321892277112909  0.9499661310348061  1.0000
  H   H40       1.0  0.25609043523539304  0.4067965226171423  0.5500199173966962  1.0000
  H   H41       1.0  0.3354458591324204  0.35432919871356466  0.15638815762661548  1.0000
  H   H42       1.0  0.8461699218706973  0.14567901308435438  0.34362035222195425  1.0000
  H   H43       1.0  0.6645549893653709  0.6456698943153042  0.8436119648656233  1.0000
  H   H44       1.0  0.15383110969455072  0.8543216440215815  0.6563797996030375  1.0000
  H   H45       1.0  0.6012637916512987  0.41115058786668623  0.8943435289144119  1.0000
  H   H46       1.0  0.9067680854606198  0.08884670424775012  0.6056678833557  1.0000
  H   H47       1.0  0.3987370568464925  0.5888485051621827  0.1056565935778266  1.0000
  H   H48       1.0  0.09323213149336615  0.9111539529671544  0.39433193806034683  1.0000
  H   H49       1.0  0.787974482999978  0.4043134743555257  0.06406761261617787  1.0000
  H   H50       1.0  0.2563670632841948  0.09569753342204018  0.435936582614545  1.0000
  H   H51       1.0  0.21202604972590688  0.5956864007663683  0.9359323593379614  1.0000
  H   H52       1.0  0.7436323390585358  0.9043031239018402  0.5640629083925434  1.0000
  H   H53       1.0  0.9264596910480736  0.4365101547936944  0.713381348131044  1.0000
  H   H54       1.0  0.07637504959340902  0.0634791210159662  0.7866298454626985  1.0000
  H   H55       1.0  0.07354002736285291  0.563489720215145  0.28661892803241784  1.0000
  H   H56       1.0  0.923625483132476  0.9365207541059205  0.21337012649144801  1.0000
  H   H57       1.0  0.9541437360195532  0.2940474844785399  0.8824140150030145  1.0000
  H   H58       1.0  0.13063486384759676  0.20597139997370562  0.6175770923991237  1.0000
  H   H59       1.0  0.0458567967063318  0.7059523906433467  0.11758595695112464  1.0000
  H   H60       1.0  0.869365668581999  0.7940284753702044  0.3824222449367411  1.0000
  H   H61       1.0  0.9630097588590305  0.3114426265282617  0.14895887258074217  1.0000
  H   H62       1.0  0.4234086122340557  0.18857116142514488  0.3510458181874086  1.0000
  H   H63       1.0  0.036990773866854613  0.6885572485936251  0.8510410993734042  1.0000
  H   H64       1.0  0.5765919198992436  0.8114287141407814  0.6489528845301894  1.0000
  C   C1        1.0  0.5728575181295953  0.9545174211695977  0.8772214811068509  1.0000
  C   C2        1.0  0.40458478386856467  0.5454691538219618  0.6227696744329451  1.0000
  C   C3        1.0  0.42714188450942464  0.045483235932259405  0.12277864451851885  1.0000
  C   C4        1.0  0.5954157488573202  0.4545307212999246  0.3772302975212015  1.0000
  C   C5        1.0  0.5096158394742362  0.9517490030599444  0.9852456068893434  1.0000
  C   C6        1.0  0.4466057723746035  0.5482233186181772  0.5147571602166395  1.0000
  C   C7        1.0  0.49038387893668295  0.0482508719488948  0.014754669274118731  1.0000
  C   C8        1.0  0.5533947600549921  0.45177655672573286  0.4852421771192327  1.0000
  C   C9        1.0  0.5230337607023118  0.2972432323599179  0.0689860620137992  1.0000
  C   C10       1.0  0.8892605456378819  0.20276919798861565  0.4310295899104943  1.0000
  C   C11       1.0  0.47696708749918326  0.7027558608909743  0.931013425860165  1.0000
  C   C12       1.0  0.11073998738429235  0.7972306769112477  0.5689710166619192  1.0000
  C   C13       1.0  0.816223397665624  0.12115472323613119  0.9135314222539535  1.0000
  C   C14       1.0  0.8509972451005654  0.37883605055767317  0.5864564196027117  1.0000
  C   C15       1.0  0.1837771350602681  0.8788451518857554  0.08646854970018585  1.0000
  C   C16       1.0  0.14900328762531975  0.6211638245642134  0.41354355235143453  1.0000
  C   C17       1.0  0.7522602626078481  0.06276105823104669  0.0695537666520211  1.0000
  C   C18       1.0  0.8845429506863597  0.4372234910759827  0.43042811471364223  1.0000
  C   C19       1.0  0.24773945609936754  0.9372388165557763  0.9304471441297152  1.0000
  C   C20       1.0  0.1154575820395324  0.5627763840459039  0.5695718572404972  1.0000
  C   C21       1.0  0.5763813296869957  0.3383717992886588  0.159217671702116  1.0000
  C   C22       1.0  0.07396994508540905  0.16163992277031264  0.34076834217822954  1.0000
  C   C23       1.0  0.4236192030388965  0.6616280758332278  0.8407823002520306  1.0000
  C   C24       1.0  0.9260305876404831  0.8383599523515741  0.65923162977591  1.0000
  C   C25       1.0  0.9124630329732643  0.15305035786019516  0.0931124089093486  1.0000
  C   C26       1.0  0.1586173828381447  0.3469804225484125  0.406879699601852  1.0000
  C   C27       1.0  0.08753668543766228  0.8469495171486442  0.9068878672541134  1.0000
  C   C28       1.0  0.8413820192082899  0.653020234997484  0.5931191567869689  1.0000
  C   C29       1.0  0.7886739211316184  0.9853352551874719  0.02199510055934441  1.0000
  C   C30       1.0  0.796037125657115  0.5146549665985347  0.4780015108747977  1.0000
  C   C31       1.0  0.2113266112979773  0.014664620156430901  0.9780042367765205  1.0000
  C   C32       1.0  0.20396259275381115  0.4853449084103047  0.5219987652886644  1.0000
  C   C33       1.0  0.4264427050894001  0.3402914481967514  0.1408483204530455  1.0000
  C   C34       1.0  0.9075917845797008  0.15972504406100546  0.35915093651304625  1.0000
  C   C35       1.0  0.573558143112088  0.6597076450541408  0.8591511674209186  1.0000
  C   C36       1.0  0.09240793501639644  0.8402748300597551  0.6408518781235132  1.0000
  C   C37       1.0  0.6934505254262434  0.39873009339031273  0.8676794237837839  1.0000
  C   C38       1.0  0.959872446798471  0.10129028250970148  0.632315754167827  1.0000
  C   C39       1.0  0.306549192984676  0.6012697816185337  0.13232085237967797  1.0000
  C   C40       1.0  0.040126955840556026  0.8987103745921556  0.3676843714575427  1.0000
  C   C41       1.0  0.8413901063391904  0.32295072458401813  0.08258128898650342  1.0000
  C   C42       1.0  0.24690196008499757  0.17707080010853093  0.4174425323875468  1.0000
  C   C43       1.0  0.15860961177543947  0.6770491506468446  0.9174183525586843  1.0000
  C   C44       1.0  0.7530966285353528  0.8229298566582627  0.5825585320654129  1.0000
  C   C45       1.0  0.862383285550571  0.4100937291000477  0.7761407033268171  1.0000
  C   C46       1.0  0.04872852788621171  0.08983929067264283  0.7238289853776154  1.0000
  C   C47       1.0  0.13761724717531384  0.589906146021839  0.22385926862732225  1.0000
  C   C48       1.0  0.9512708744565119  0.9101613666512376  0.27617050562947304  1.0000
  C   C49       1.0  0.8775020983002123  0.3391091998917943  0.859364905771017  1.0000
  C   C50       1.0  0.07605420608611982  0.16086482625126308  0.6406186285226667  1.0000
  C   C51       1.0  0.12249843442567263  0.6608906752300924  0.14063506618312263  1.0000
  C   C52       1.0  0.9239455120285031  0.8391350489795928  0.35938101302252085  1.0000
  C   C53       1.0  0.9285150984333796  0.27652665407660487  0.12386071488129599  1.0000
  C   C54       1.0  0.3288990744223597  0.22347982428180296  0.376157481226173  1.0000
  C   C55       1.0  0.07148511822430961  0.723474003360323  0.8761384719164766  1.0000
  C   C56       1.0  0.6711006436922705  0.7765200509490597  0.6238421603190145  1.0000
  C   C57       1.0  0.6974412040325861  0.9479713048400242  0.8477775944208901  1.0000
  C   C58       1.0  0.4932001580917814  0.5519880652125763  0.6522198523719425  1.0000
  C   C59       1.0  0.3025581983101376  0.0520293524838564  0.15222189658619809  1.0000
  C   C60       1.0  0.50680069040601  0.44801102781629243  0.34778027012029605  1.0000
  N   N1        1.0  0.46109681130763397  0.36574638701134193  0.19689772413332923  1.0000
  N   N2        1.0  0.023731107660566422  0.13426711632293117  0.3030927125772395  1.0000
  N   N3        1.0  0.538902906806996  0.6342534882195209  0.8031019174118588  1.0000
  N   N4        1.0  0.9762677967316835  0.8657327583508445  0.6969085024138194  1.0000
  N   N5        1.0  0.8286293564626277  0.023039943387672696  0.9240681373539347  1.0000
  N   N6        1.0  0.7757808466004193  0.4769370224996194  0.5759273164733899  1.0000
  N   N7        1.0  0.17137086019506137  0.9769607140492554  0.07593104944383813  1.0000
  N   N8        1.0  0.2242188718104999  0.523062852509227  0.42407295969007214  1.0000
  N   N9        1.0  0.7705853429461627  0.1493301316813742  0.9997471183366572  1.0000
  N   N10       1.0  0.9196809060076206  0.35066552441089266  0.5002329210139748  1.0000
  N   N11       1.0  0.22941437546475651  0.8506697433274651  0.00025315782680480903  1.0000
  N   N12       1.0  0.08031881240330564  0.6493343505979468  0.49976735514948706  1.0000
  N   N13       1.0  0.972343605060658  0.16995510554913554  0.12996085730080154  1.0000
  N   N14       1.0  0.27225667465423  0.3300614422651548  0.37003719491310966  1.0000
  N   N15       1.0  0.027656113350268255  0.8300447694597037  0.8700394188626603  1.0000
  N   N16       1.0  0.7277430434604001  0.6699384329657005  0.629962446632078  1.0000
  N   N17       1.0  0.6187954019889262  0.29646409690601416  0.08078315305770901  1.0000
  N   N18       1.0  0.9960531037501215  0.20352886886951888  0.41922033478225984  1.0000
  N   N19       1.0  0.3812051307369588  0.7035357782158725  0.9192168188964375  1.0000
  N   N20       1.0  0.003947113500160635  0.7964717881233694  0.5807801212520616  1.0000
  N   N21       1.0  0.746470137438138  0.44709228267431905  0.7820946043182957  1.0000
  N   N22       1.0  0.9756914330221278  0.05290675706556409  0.7178961952317098  1.0000
  N   N23       1.0  0.253530395287747  0.5529075924475677  0.2179053676358436  1.0000
  N   N24       1.0  0.02430828538879143  0.9470931179432754  0.2821040809317524  1.0000
  N   N25       1.0  0.7692073570180115  0.3323654789018846  0.9176751629875144  1.0000
  N   N26       1.0  0.019278471897045804  0.16763848191787636  0.5823237263159058  1.0000
  N   N27       1.0  0.2307931757078806  0.6676343962200022  0.08232480896662513  1.0000
  N   N28       1.0  0.9807215619894832  0.8323606112199613  0.41767606576738103  1.0000
  N   N29       1.0  0.830664934065638  0.24352426754350626  0.06396913987295949  1.0000
  N   N30       1.0  0.13814877320778152  0.2565002050912497  0.43602944262007537  1.0000
  N   N31       1.0  0.16933478404899208  0.7564756076873564  0.9360305016722281  1.0000
  N   N32       1.0  0.8618509452031377  0.7434996699175895  0.5639708335433868  1.0000
  O   O1        1.0  0.7649146145713106  0.8749634368883007  0.8947706099563677  1.0000
  O   O2        1.0  0.5346100922184223  0.625026537472607  0.6052220065899977  1.0000
  O   O3        1.0  0.23508478806770944  0.12503722021356367  0.10522951566899512  1.0000
  O   O4        1.0  0.4653893104205976  0.3749741196292503  0.3947781190353653  1.0000
  O   O5        1.0  0.7351315647017033  0.014801642666576199  0.7773421490651629  1.0000
  O   O6        1.0  0.5272725659676001  0.485188959976135  0.7226715175011477  1.0000
  O   O7        1.0  0.26486733939425033  0.9851982322292155  0.2226584313076216  1.0000
  O   O8        1.0  0.47272715244332647  0.5148109150327045  0.2773287586623142  1.0000
