data_image0
_chemical_formula_structural       Zn2H28C40BrN11O8
_chemical_formula_sum              "Zn2 H28 C40 Br1 N11 O8"
_cell_length_a       13.564696073760418
_cell_length_b       15.93324319499257
_cell_length_c       17.148737202997953
_cell_angle_alpha    85.7347326358061
_cell_angle_beta     86.87622444490664
_cell_angle_gamma    70.21886221070456

_space_group_name_H-M_alt    "P 1"
_space_group_IT_number       1

loop_
  _space_group_symop_operation_xyz
  'x, y, z'

loop_
  _atom_site_type_symbol
  _atom_site_label
  _atom_site_symmetry_multiplicity
  _atom_site_fract_x
  _atom_site_fract_y
  _atom_site_fract_z
  _atom_site_occupancy
  Zn  Zn1       1.0  0.5101578875216645  0.4135572697479973  0.5027909077463945  1.0000
  Zn  Zn2       1.0  0.4939453446801707  0.5935900920062879  0.5003297781148816  1.0000
  H   H1        1.0  0.15221312588124644  0.7082280270602868  0.5465928661807594  1.0000
  H   H2        1.0  0.5778509064274715  0.6854683469250062  0.6067863070052509  1.0000
  H   H3        1.0  0.3887999594088072  0.3386928090876396  0.4171375336594849  1.0000
  H   H4        1.0  0.423950605345965  0.9228857762734963  0.4038852047472972  1.0000
  H   H5        1.0  0.42012896421125856  0.7667379112749942  0.40003091950822517  1.0000
  H   H6        1.0  0.9626169576476966  0.7368927129308319  0.5834978693601869  1.0000
  H   H7        1.0  0.1282498938505654  0.347602918448395  0.4862828997350448  1.0000
  H   H8        1.0  0.03988667532305358  0.24960922621517068  0.44478314255289314  1.0000
  H   H9        1.0  0.7326412472762769  0.5714179302923058  0.579213123007051  1.0000
  H   H10       1.0  0.5900333038205829  0.3678028481731418  0.2641055817990789  1.0000
  H   H11       1.0  0.40070562980804425  0.720717294748596  0.21223804881360306  1.0000
  H   H12       1.0  0.6008664576564798  0.36124037773713286  0.11765413763169617  1.0000
  H   H13       1.0  0.44300930814068096  0.6719780503870755  0.3033808712399092  1.0000
  H   H14       1.0  0.4927993597953348  0.658049633582067  0.02877295035951017  1.0000
  H   H15       1.0  0.4956559861121762  0.7177884453214036  0.10713872169484516  1.0000
  H   H16       1.0  0.6553292581177033  0.28253761140679506  0.5808949698051648  1.0000
  H   H17       1.0  0.6846860954247234  0.17387408643285343  0.6177881820053273  1.0000
  H   H18       1.0  0.31180264871780144  0.24082489963749518  0.353409012471502  1.0000
  H   H19       1.0  0.3401255437556259  0.13008910713044497  0.385984827696717  1.0000
  H   H20       1.0  0.19125240396009963  0.36394538312887903  0.5837940691146031  1.0000
  H   H21       1.0  0.2932631463870409  0.4015132602036148  0.551430389919595  1.0000
  H   H22       1.0  0.513789249058732  0.3348188121630856  0.8948232626883195  1.0000
  H   H23       1.0  0.48892896756399284  0.3570856534709181  0.7488628280015845  1.0000
  H   H24       1.0  0.6045923338577096  0.5688200724392944  0.8889136700546061  1.0000
  H   H25       1.0  0.5813555759825988  0.5897208985157506  0.7437065132077476  1.0000
  H   H26       1.0  0.5991116040076607  0.07299298489908072  0.5733682118263488  1.0000
  H   H27       1.0  0.5914531861471062  0.8388333653837209  0.6184234023235503  1.0000
  H   H28       1.0  0.8149867937543435  0.6830788196744424  0.6017376179275826  1.0000
  C   C1        1.0  0.5112904487531793  0.49073542520908836  0.6527886948249345  1.0000
  C   C2        1.0  0.8244505232619448  0.4167542322836938  0.507972809874822  1.0000
  C   C3        1.0  0.5306794594258193  0.47606710964176835  0.7384359180733353  1.0000
  C   C4        1.0  0.706748356394428  0.447545766432093  0.5063612326464977  1.0000
  C   C5        1.0  0.5655000406975006  0.5347880755449882  0.7775690968744653  1.0000
  C   C6        1.0  0.578390747172904  0.5234294757691133  0.8577985289261179  1.0000
  C   C7        1.0  0.5565067180333044  0.45234643666872654  0.9003465307160637  1.0000
  C   C8        1.0  0.5280126944356524  0.3903652839749584  0.86069303903286  1.0000
  C   C9        1.0  0.5139458507574447  0.40285660050040684  0.7804560531729904  1.0000
  C   C10       1.0  0.5723936506418782  0.42446306788507837  0.14575841859675617  1.0000
  C   C11       1.0  0.565918726172754  0.4284552334377382  0.22588641335036638  1.0000
  C   C12       1.0  0.9879899321874747  0.4491947295809383  0.5295857050397856  1.0000
  C   C13       1.0  0.5428187729230132  0.5047380856519511  0.09798848435365666  1.0000
  C   C14       1.0  0.5268124890165495  0.5111636370775018  0.2621189055767417  1.0000
  C   C15       1.0  0.49664918244330636  0.5917364033817522  0.21517521104003376  1.0000
  C   C16       1.0  0.5155307986780286  0.5094174992993886  0.3491138046902903  1.0000
  C   C17       1.0  0.5072328722340984  0.5881517580223206  0.13222049242028788  1.0000
  C   C18       1.0  0.456804981455143  0.7859391899751957  0.4475014220804638  1.0000
  C   C19       1.0  0.4588272164470695  0.8721018329743802  0.44973259141251987  1.0000
  C   C20       1.0  0.5076621517704821  0.892461049516456  0.5125249012587999  1.0000
  C   C21       1.0  0.5527403241884201  0.8243674300211199  0.5696288406913366  1.0000
  C   C22       1.0  0.5462567916591612  0.7401557827105663  0.5631700138325114  1.0000
  C   C23       1.0  0.8759003068794301  0.47330679468623077  0.5358575506695828  1.0000
  C   C24       1.0  0.5513812035032473  0.13147490158588235  0.5391487615950011  1.0000
  C   C25       1.0  0.5631280140164846  0.21467146245103663  0.5439795739514182  1.0000
  C   C26       1.0  0.47899908774129346  0.12145663558160892  0.48865869746835944  1.0000
  C   C27       1.0  0.43358210151897947  0.277988901412087  0.45057482358884465  1.0000
  C   C28       1.0  0.2995510295886633  0.55424656881776  0.5160827058021695  1.0000
  C   C29       1.0  0.4159905086091057  0.19690006512519898  0.4427301467629476  1.0000
  C   C30       1.0  0.014438225185635511  0.6704882820343843  0.5692588578172461  1.0000
  C   C31       1.0  0.18759221086301647  0.5678284026610356  0.5367395605067102  1.0000
  C   C32       1.0  0.884921607732295  0.3361313867044303  0.4772980574286834  1.0000
  C   C33       1.0  0.9943335923386062  0.3116107467443428  0.4712349147059597  1.0000
  C   C34       1.0  0.03715336638096998  0.51320435804994  0.5486151964176001  1.0000
  C   C35       1.0  0.04400704397713183  0.3669348028665739  0.49625633034564487  1.0000
  C   C36       1.0  0.9718160589043168  0.6010248176456161  0.56660082915009  1.0000
  C   C37       1.0  0.8622535542563626  0.6179898889056689  0.5810211860305967  1.0000
  C   C38       1.0  0.8162486952525041  0.5565114327179191  0.5681406135582279  1.0000
  C   C39       1.0  0.1487965868389906  0.49505915464376954  0.5451849809656293  1.0000
  C   C40       1.0  0.11886019835390726  0.6546797911195983  0.5501068615741573  1.0000
  Br  Br1       1.0  0.8269991488385174  0.2564885525490581  0.43402767079049903  1.0000
  N   N1        1.0  0.5580148510388767  0.43966050136990037  0.9825791315303362  1.0000
  N   N2        1.0  0.3396486375974207  0.19216410098274392  0.3959709339255042  1.0000
  N   N3        1.0  0.21607511670407592  0.4083674627682115  0.5502256711946457  1.0000
  N   N4        1.0  0.5449660674871168  0.5112172464225538  0.016561523142506508  1.0000
  N   N5        1.0  0.4992277046218163  0.7209450511267835  0.5030360543832799  1.0000
  N   N6        1.0  0.5175082083087544  0.9757096240461182  0.5238564139249959  1.0000
  N   N7        1.0  0.46505488709069454  0.040115421950247324  0.47794941614854725  1.0000
  N   N8        1.0  0.5032714969088802  0.2865075164662585  0.4989424576007621  1.0000
  N   N9        1.0  0.4583081317799439  0.6758709498344833  0.24439332925326332  1.0000
  N   N10       1.0  0.4755422987592938  0.6676182107141956  0.08676042340879767  1.0000
  N   N11       1.0  0.6306487960206867  0.22885282099625215  0.5934655785677307  1.0000
  O   O1        1.0  0.4790506039186867  0.4353004515352767  0.6213093096927975  1.0000
  O   O2        1.0  0.5283866502387722  0.5579746136159758  0.6166693700872017  1.0000
  O   O3        1.0  0.6630090592927972  0.3905771827107004  0.531079231691109  1.0000
  O   O4        1.0  0.6587877046488727  0.5263296404037664  0.47992751074079365  1.0000
  O   O5        1.0  0.5401698848945387  0.4331811474520961  0.3860903932573976  1.0000
  O   O6        1.0  0.48110046746283786  0.5842532456331287  0.3825267652556974  1.0000
  O   O7        1.0  0.3541277053519352  0.478515792686146  0.4893027367606706  1.0000
  O   O8        1.0  0.3358187638347943  0.6171369494535245  0.5241053652297438  1.0000
