data_image0
_chemical_formula_structural       Cd2H36C30S4N8O6
_chemical_formula_sum              "Cd2 H36 C30 S4 N8 O6"
_cell_length_a       8.874447903826876
_cell_length_b       10.98742777649996
_cell_length_c       11.547287910256683
_cell_angle_alpha    117.8734249877224
_cell_angle_beta     104.64447174324553
_cell_angle_gamma    97.74477223784841

_space_group_name_H-M_alt    "P 1"
_space_group_IT_number       1

loop_
  _space_group_symop_operation_xyz
  'x, y, z'

loop_
  _atom_site_type_symbol
  _atom_site_label
  _atom_site_symmetry_multiplicity
  _atom_site_fract_x
  _atom_site_fract_y
  _atom_site_fract_z
  _atom_site_occupancy
  Cd  Cd1       1.0  0.19634714889631513  0.8115599170847361  0.45019429554048435  1.0000
  Cd  Cd2       1.0  0.8021995665697119  0.18677601974241745  0.547463362957302  1.0000
  H   H1        1.0  0.005140571074889486  0.2355838684287832  0.3044665525687904  1.0000
  H   H2        1.0  0.9926908162274798  0.7640000370028943  0.6916957352411401  1.0000
  H   H3        1.0  0.6960828814771177  0.1641713925847341  0.9127692015253431  1.0000
  H   H4        1.0  0.30193140279185116  0.8355357207256657  0.08333162722193779  1.0000
  H   H5        1.0  0.8621368741731033  0.9898070905442465  0.109655196618867  1.0000
  H   H6        1.0  0.1352889146426008  0.010636864956545401  0.888303662701844  1.0000
  H   H7        1.0  0.7590002208563646  0.9556450714458434  0.9386883264873092  1.0000
  H   H8        1.0  0.24308473204672512  0.0437323571711801  0.057984814633741215  1.0000
  H   H9        1.0  0.6594609617016403  0.9983389061452069  0.06170182540876102  1.0000
  H   H10       1.0  0.33761896026398835  0.00013051610352480123  0.9313851085660616  1.0000
  H   H11       1.0  0.1911827038714904  0.43182729562737876  0.46613770111340364  1.0000
  H   H12       1.0  0.8058417350354857  0.567233684937342  0.5301598743516179  1.0000
  H   H13       1.0  0.3790844641757829  0.5820431931223452  0.6381854579351653  1.0000
  H   H14       1.0  0.6163174002915072  0.4153711080843721  0.3594766601282943  1.0000
  H   H15       1.0  0.3595220760070248  0.7605505970366762  0.7200899556403257  1.0000
  H   H16       1.0  0.6374015858730432  0.23709292583725974  0.2769311825531773  1.0000
  H   H17       1.0  0.5557148636877969  0.84857702856236  0.6469825063268503  1.0000
  H   H18       1.0  0.4489344638369915  0.1516482514741071  0.35990141107973983  1.0000
  H   H19       1.0  0.639669045616401  0.744459232724907  0.7109260550797246  1.0000
  H   H20       1.0  0.3586841709163409  0.24512034384891018  0.2851333807440852  1.0000
  H   H21       1.0  0.5228263315096129  0.6911544567269771  0.43882919214481564  1.0000
  H   H22       1.0  0.4689406677271038  0.31644499579321916  0.5635308599962485  1.0000
  H   H23       1.0  0.7003096271309701  0.35296323235760957  0.8665970433831804  1.0000
  H   H24       1.0  0.29524201231128433  0.6476087390018462  0.1291581594623706  1.0000
  H   H25       1.0  0.9112888591200701  0.6361820945589329  0.10854401953201191  1.0000
  H   H26       1.0  0.09066173308637102  0.3622693759670028  0.885916855484254  1.0000
  H   H27       1.0  0.7311012118169203  0.5324590489442329  0.8067213388052467  1.0000
  H   H28       1.0  0.26702417880601814  0.47013646745829624  0.18993446949541246  1.0000
  H   H29       1.0  0.8459046965937915  0.7139075712422736  0.944021467868197  1.0000
  H   H30       1.0  0.15528326323710223  0.2882954885139029  0.05510655150298051  1.0000
  H   H31       1.0  0.6183893925980471  0.7278575160773856  0.04071637078368448  1.0000
  H   H32       1.0  0.3832594637660804  0.2743115970567942  0.9578882810502592  1.0000
  H   H33       1.0  0.5542335676909148  0.6920808836550947  0.866030494170694  1.0000
  H   H34       1.0  0.44602089832557823  0.3084372584434121  0.13231737680759892  1.0000
  H   H35       1.0  0.48734688608706034  0.5036471950568426  0.9601622099628033  1.0000
  H   H36       1.0  0.5521611778450081  0.5527572280607558  0.2044339183884176  1.0000
  C   C1        1.0  0.9695338919143454  0.4819439355779807  0.20402652037052604  1.0000
  C   C2        1.0  0.03031897241102402  0.51705166577198  0.7909732565081243  1.0000
  C   C3        1.0  0.025351841682677928  0.4240339724019435  0.29030361313887454  1.0000
  C   C4        1.0  0.9736489279649945  0.5753884855628328  0.7052548008629033  1.0000
  C   C5        1.0  0.959754851283236  0.27646911966155596  0.23668846729606235  1.0000
  C   C6        1.0  0.038568509304234125  0.7230352787063126  0.7592489426276643  1.0000
  C   C7        1.0  0.8420169394924032  0.1801176630429495  0.10221223731252141  1.0000
  C   C8        1.0  0.15633173101034709  0.8195943432723282  0.8938364317679656  1.0000
  C   C9        1.0  0.7877789859033796  0.23564639591509717  0.018301997537108147  1.0000
  C   C10       1.0  0.21052834883479218  0.7641673258956841  0.9776322284237011  1.0000
  C   C11       1.0  0.847507155620505  0.382640182198493  0.06555675977158874  1.0000
  C   C12       1.0  0.1513744221558753  0.6168649874992481  0.9296789159648712  1.0000
  C   C13       1.0  0.7776584501061307  0.022845420622331903  0.05051345587879295  1.0000
  C   C14       1.0  0.22110540090139344  0.9767672648153789  0.9454760073809041  1.0000
  C   C15       1.0  0.15739993287103002  0.5015642597594335  0.4260564918097813  1.0000
  C   C16       1.0  0.8411227424747167  0.49764303369638446  0.5699950194580341  1.0000
  C   C17       1.0  0.37746161783663007  0.6765110105017553  0.627861748588373  1.0000
  C   C18       1.0  0.6204690314333092  0.32108672051149517  0.3698748075134333  1.0000
  C   C19       1.0  0.542139009673953  0.7380685630959719  0.6254809473236522  1.0000
  C   C20       1.0  0.45763777843058057  0.2591334971320691  0.37455543598235164  1.0000
  C   C21       1.0  0.786496192366485  0.4309880874158125  0.9730030061436566  1.0000
  C   C22       1.0  0.21172456118377883  0.568693521376268  0.021914827977241168  1.0000
  C   C23       1.0  0.756569426785994  0.6160068183073193  0.9161167119992727  1.0000
  C   C24       1.0  0.24367808658455203  0.3857566698273516  0.08109015629182181  1.0000
  C   C25       1.0  0.5967877676946998  0.6466594697908333  0.9307717541224393  1.0000
  C   C26       1.0  0.4023691863322015  0.35355981422770805  0.0673934893387624  1.0000
  C   C27       1.0  0.48279584241576157  0.1316934992697654  0.6501407039699673  1.0000
  C   C28       1.0  0.5198383350462805  0.859663328857799  0.3395021650781089  1.0000
  C   C29       1.0  0.0678869521456491  0.06098183261801888  0.3992739247148478  1.0000
  C   C30       1.0  0.9306467310514321  0.9341596284605415  0.5957261242034876  1.0000
  S   S1        1.0  0.3700098391198736  0.0529725934715799  0.7015088218494085  1.0000
  S   S2        1.0  0.6293336310365589  0.9449561569768078  0.29182259943649297  1.0000
  S   S3        1.0  0.13777393382354572  0.9392024545539215  0.2981578587669916  1.0000
  S   S4        1.0  0.8696414137882159  0.05972981198544149  0.7022476132515366  1.0000
  N   N1        1.0  0.2423625192714169  0.6362002133767674  0.5012499347508452  1.0000
  N   N2        1.0  0.757504779197106  0.3627537879941726  0.49536401405624286  1.0000
  N   N3        1.0  0.8280509394822316  0.5656264551297595  0.006826014141914461  1.0000
  N   N4        1.0  0.17215578944311014  0.4338074011330093  0.9881884334197794  1.0000
  N   N5        1.0  0.5667846589546245  0.19394805027424408  0.6176117997648234  1.0000
  N   N6        1.0  0.4375631627083578  0.7913417533096094  0.368385688414442  1.0000
  N   N7        1.0  0.01785724599690751  0.1514696429371867  0.4703783726754694  1.0000
  N   N8        1.0  0.9737577063047951  0.8405572566594586  0.5199776506457496  1.0000
  O   O1        1.0  0.027549125266531936  0.6140615650171668  0.2402381264007404  1.0000
  O   O2        1.0  0.9741377208853237  0.38486995762075077  0.7547160111245859  1.0000
  O   O3        1.0  0.5651159996608044  0.6513085373861144  0.4971794667519661  1.0000
  O   O4        1.0  0.4317434293310641  0.3506778941050257  0.4994834950500718  1.0000
  O   O5        1.0  0.4745598117078628  0.5182943360790802  0.8807322569226131  1.0000
  O   O6        1.0  0.5242796478120084  0.47914623925316124  0.10599335543247422  1.0000
