data_image0
_chemical_formula_structural       Ag2H24C24S4N10O6
_chemical_formula_sum              "Ag2 H24 C24 S4 N10 O6"
_cell_length_a       8.943253563433235
_cell_length_b       8.905026699440716
_cell_length_c       10.238774048244181
_cell_angle_alpha    83.15226548590341
_cell_angle_beta     79.00489821436716
_cell_angle_gamma    72.09654317844985

_space_group_name_H-M_alt    "P 1"
_space_group_IT_number       1

loop_
  _space_group_symop_operation_xyz
  'x, y, z'

loop_
  _atom_site_type_symbol
  _atom_site_label
  _atom_site_symmetry_multiplicity
  _atom_site_fract_x
  _atom_site_fract_y
  _atom_site_fract_z
  _atom_site_occupancy
  Ag  Ag1       1.0  0.5938248755749455  0.5576978975786349  0.6575142471231246  1.0000
  Ag  Ag2       1.0  0.4061821193478678  0.4423005215052456  0.34248579216299657  1.0000
  H   H1        1.0  0.5285413365747472  0.934208941947148  0.7938955516653934  1.0000
  H   H2        1.0  0.47144641189925807  0.0657929799963881  0.20610614196321111  1.0000
  H   H3        1.0  0.2677671084977433  0.001044059217363698  0.7066337647559635  1.0000
  H   H4        1.0  0.7322190530418878  0.9989708863942114  0.2933677367127672  1.0000
  H   H5        1.0  0.22675142459271316  0.21135969023369236  0.5148922626030696  1.0000
  H   H6        1.0  0.7732475700112004  0.7886505111936516  0.4851048162241369  1.0000
  H   H7        1.0  0.9507743083322852  0.3022091470959581  0.5579142776566498  1.0000
  H   H8        1.0  0.04922216912779477  0.6977976047696616  0.44209236169010074  1.0000
  H   H9        1.0  0.8556718915221212  0.17258698139436748  0.6631130953450821  1.0000
  H   H10       1.0  0.14432754009037294  0.8274138135014939  0.3368898227409716  1.0000
  H   H11       1.0  0.03356396649716938  0.10462003794759772  0.372983762677265  1.0000
  H   H12       1.0  0.9664344883914425  0.8953878658452227  0.6270195114312358  1.0000
  H   H13       1.0  0.25608254147696385  0.5126044400009067  0.7491769001481998  1.0000
  H   H14       1.0  0.7439203000272984  0.4873927534912924  0.25082099220364273  1.0000
  H   H15       1.0  0.12548438534624748  0.3384640431931629  0.9093071595966009  1.0000
  H   H16       1.0  0.8745199054164416  0.661528385381864  0.09068809409771467  1.0000
  H   H17       1.0  0.288216313999456  0.16010749091513793  0.0767850866268631  1.0000
  H   H18       1.0  0.7117842895840099  0.8398932828813913  0.9232156967376856  1.0000
  H   H19       1.0  0.8710117244836013  0.2391917938175609  0.09650181690249576  1.0000
  H   H20       1.0  0.12899552374592815  0.7607865117273606  0.9035003716409592  1.0000
  H   H21       1.0  0.7042087234928615  0.1678267336683135  0.09528303956778927  1.0000
  H   H22       1.0  0.2957950223045387  0.8321597896486497  0.9047139188688079  1.0000
  H   H23       1.0  0.8824208197728964  0.9715649999779079  0.9206765607095165  1.0000
  H   H24       1.0  0.1175759024294791  0.028426196785552804  0.07931708124571911  1.0000
  C   C1        1.0  0.578375638203603  0.2078895111977914  0.5637817185740559  1.0000
  C   C2        1.0  0.4216245096405161  0.7921089070326419  0.4362203692640136  1.0000
  C   C3        1.0  0.5011007771690146  0.024949754208741105  0.713325711550006  1.0000
  C   C4        1.0  0.49889117510911507  0.9750533585675216  0.28667519452821466  1.0000
  C   C5        1.0  0.35724745788648704  0.0610606895506507  0.665629627660941  1.0000
  C   C6        1.0  0.6427453722799612  0.938947157530443  0.3343706257933404  1.0000
  C   C7        1.0  0.3332674175108322  0.17628723649773553  0.5612735409124596  1.0000
  C   C8        1.0  0.6667291775155849  0.8237194342636799  0.4387262513034074  1.0000
  C   C9        1.0  0.8918712214739912  0.21015053697152555  0.5589806507011872  1.0000
  C   C10       1.0  0.10812826577407007  0.7898538307889357  0.4410238234392239  1.0000
  C   C11       1.0  0.9866614342897437  0.07565630580517538  0.47639947545179234  1.0000
  C   C12       1.0  0.013338858415877902  0.9243492349818186  0.5236037681718742  1.0000
  C   C13       1.0  0.5510849493637481  0.32702391071295983  0.9120748846318707  1.0000
  C   C14       1.0  0.44891492119290877  0.6729792513353133  0.08792770714221386  1.0000
  C   C15       1.0  0.32076171106658785  0.43070703930993676  0.8212073416743948  1.0000
  C   C16       1.0  0.6792407639242698  0.5692913483081413  0.17879145488221576  1.0000
  C   C17       1.0  0.24783556693336092  0.3343669882791006  0.9106901166801792  1.0000
  C   C18       1.0  0.7521669080574963  0.6656313993389773  0.08930867987643157  1.0000
  C   C19       1.0  0.33823662143295513  0.2361372581282595  0.0010927728914395846  1.0000
  C   C20       1.0  0.6617643486639082  0.7638623215423977  0.9989071062683409  1.0000
  C   C21       1.0  0.8155780692212247  0.18382214695839139  0.036676294441292535  1.0000
  C   C22       1.0  0.184426009499191  0.8161632054053244  0.9633217161136403  1.0000
  C   C23       1.0  0.9262339093528454  0.0321359023388723  0.9853707588637448  1.0000
  C   C24       1.0  0.0737631625677436  0.9678541118850321  0.014622957048281586  1.0000
  S   S1        1.0  0.7098490067258966  0.31848923247054733  0.4926237060321057  1.0000
  S   S2        1.0  0.29015158006237846  0.6815115529122906  0.5073780554939944  1.0000
  S   S3        1.0  0.7473326552819017  0.33059471773817256  0.9032455284566938  1.0000
  S   S4        1.0  0.25266970214261864  0.6694037509841095  0.0967601152307935  1.0000
  N   N1        1.0  0.4441684614206167  0.24921558506789418  0.5089241146689076  1.0000
  N   N2        1.0  0.555834785437419  0.7507839987493484  0.49107540769407626  1.0000
  N   N3        1.0  0.6119793343260014  0.09889675426555301  0.6635531769410221  1.0000
  N   N4        1.0  0.38801741517154653  0.9011016461586793  0.3364484679306941  1.0000
  N   N5        1.0  0.47194925778214974  0.4285722041280168  0.8209520757934501  1.0000
  N   N6        1.0  0.5280520840781193  0.5714297890403016  0.17905138970056808  1.0000
  N   N7        1.0  0.4893495678921625  0.23171410743366758  0.001901138843578598  1.0000
  N   N8        1.0  0.5106487977705  0.7682902466671778  0.9981025355336756  1.0000
  N   N9        1.0  0.9246892682681249  0.611910287451444  0.7268790804633269  1.0000
  N   N10       1.0  0.0753163729174204  0.3880892194081866  0.2731132379719697  1.0000
  O   O1        1.0  0.7825063548109342  0.6820138845855157  0.7042154153103793  1.0000
  O   O2        1.0  0.21749566444057689  0.31798214746646636  0.29578468571975247  1.0000
  O   O3        1.0  0.0027776914790607005  0.4816016407222747  0.6783738201043265  1.0000
  O   O4        1.0  0.997230100336914  0.5184025098249521  0.3216098420162083  1.0000
  O   O5        1.0  0.9844585029412726  0.678117740098493  0.7977050864350445  1.0000
  O   O6        1.0  0.01554747116729516  0.3218805958078903  0.20228828411859473  1.0000
