data_image0
_chemical_formula_structural       AlH15C33O6
_chemical_formula_sum              "Al1 H15 C33 O6"
_cell_length_a       3.985419687264781
_cell_length_b       20.44466697993739
_cell_length_c       20.462345248338565
_cell_angle_alpha    60.0607174783072
_cell_angle_beta     87.22685328930012
_cell_angle_gamma    87.09571613093108

_space_group_name_H-M_alt    "P 1"
_space_group_IT_number       1

loop_
  _space_group_symop_operation_xyz
  'x, y, z'

loop_
  _atom_site_type_symbol
  _atom_site_label
  _atom_site_symmetry_multiplicity
  _atom_site_fract_x
  _atom_site_fract_y
  _atom_site_fract_z
  _atom_site_occupancy
  Al  Al1       1.0  0.03954499632014571  0.4996714169908856  0.49965798402394745  1.0000
  H   H1        1.0  0.840659563297699  0.3094567403436912  0.7067946663101164  1.0000
  H   H2        1.0  0.8184783402148244  0.23667094389892904  0.847803053724611  1.0000
  H   H3        1.0  0.23843826869351398  0.709217791635446  0.30694401302406477  1.0000
  H   H4        1.0  0.23782835349322806  0.8503719101837673  0.23544853745401167  1.0000
  H   H5        1.0  0.270267986172989  0.30947046876671885  0.48519688878141654  1.0000
  H   H6        1.0  0.27313197709875675  0.23773772304201662  0.4158022885864339  1.0000
  H   H7        1.0  0.786244245709085  0.7069438838710056  0.4838859280817825  1.0000
  H   H8        1.0  0.7643119072809983  0.8481094212561685  0.41574590591862665  1.0000
  H   H9        1.0  0.18924623870281468  0.4824595739765131  0.7089184536207821  1.0000
  H   H10       1.0  0.18564265018435586  0.4130611051819741  0.8499945844999954  1.0000
  H   H11       1.0  0.8726300072781757  0.47935962795828857  0.30728039386190886  1.0000
  H   H12       1.0  0.8554552177774185  0.4112140567813398  0.23452784043956845  1.0000
  H   H13       1.0  0.4867643325632969  0.0958607930089457  0.09671463080387346  1.0000
  H   H14       1.0  0.5213082503437505  0.09696607315792248  0.3066085117548737  1.0000
  H   H15       1.0  0.5207048120782005  0.3071731666094024  0.09524168950229484  1.0000
  C   C1        1.0  0.5258270832569353  0.4423786846487587  0.6158463934232398  1.0000
  C   C2        1.0  0.5660466489119217  0.4406286886413326  0.4422713682179518  1.0000
  C   C3        1.0  0.5242215240104218  0.6159961983477091  0.44081084541833326  1.0000
  C   C4        1.0  0.6931820554680856  0.3308049620819277  0.7388132320347437  1.0000
  C   C5        1.0  0.6817215905314669  0.29055996387831573  0.8170930007394116  1.0000
  C   C6        1.0  0.35738071403002186  0.7403155911556567  0.32952882664029887  1.0000
  C   C7        1.0  0.3561746255339103  0.8186598511507412  0.2899898054292719  1.0000
  C   C8        1.0  0.40294895127678393  0.33034139036034565  0.43098035387414746  1.0000
  C   C9        1.0  0.40401439030686975  0.2906461644212611  0.3923355376898029  1.0000
  C   C10       1.0  0.6619784857674634  0.7390358439916297  0.430077612511617  1.0000
  C   C11       1.0  0.6508357281238518  0.8173746730673558  0.3921086822651813  1.0000
  C   C12       1.0  0.3306361300755683  0.429255181347898  0.7399975972321183  1.0000
  C   C13       1.0  0.32797534984221244  0.3906134585598836  0.8183133469285547  1.0000
  C   C14       1.0  0.737765924486169  0.427041085537553  0.3298853640551157  1.0000
  C   C15       1.0  0.7293074806192479  0.38903470868810064  0.2896132483538166  1.0000
  C   C16       1.0  0.515846540984576  0.4001194764116676  0.6996477643498192  1.0000
  C   C17       1.0  0.5015246386558446  0.32028228830142785  0.8580791775022191  1.0000
  C   C18       1.0  0.4974481414743155  0.2802979072480839  0.9379344475364629  1.0000
  C   C19       1.0  0.49841283348772  0.24589675625468038  0.006737952697541454  1.0000
  C   C20       1.0  0.5021020956240323  0.2061363533760812  0.08671196293337145  1.0000
  C   C21       1.0  0.5134955507534756  0.6999049064551457  0.3994155667955821  1.0000
  C   C22       1.0  0.5012011162640846  0.8584602133779101  0.32092509826043847  1.0000
  C   C23       1.0  0.49863837293814595  0.9383257165597595  0.2810656196274551  1.0000
  C   C24       1.0  0.4992849649669183  0.007171469423788299  0.24658439137222382  1.0000
  C   C25       1.0  0.5031171010231503  0.08710528875562322  0.20634245882565944  1.0000
  C   C26       1.0  0.5712597027511634  0.3985601445722367  0.40037144904082556  1.0000
  C   C27       1.0  0.5633236110659254  0.3199787022355025  0.3204223071170913  1.0000
  C   C28       1.0  0.5527443545677927  0.2808346050028164  0.27983504898089234  1.0000
  C   C29       1.0  0.538162861888857  0.24686277595553463  0.24517005902159628  1.0000
  C   C30       1.0  0.5226235682817164  0.2067425626171442  0.20552864083384034  1.0000
  C   C31       1.0  0.4962309071221966  0.12681634136212241  0.12706402381489562  1.0000
  C   C32       1.0  0.5160380956933537  0.1274017030460328  0.24525010786468462  1.0000
  C   C33       1.0  0.5151267881270983  0.24578508697704396  0.12628032419012664  1.0000
  O   O1        1.0  0.3018368071427133  0.582427905479456  0.4264117514076345  1.0000
  O   O2        1.0  0.28732766036268487  0.4903721202328343  0.582421798825102  1.0000
  O   O3        1.0  0.32706777013360266  0.4269289540378622  0.4909676564641925  1.0000
  O   O4        1.0  0.7563247177221657  0.5826342389929592  0.4885357516150958  1.0000
  O   O5        1.0  0.7970760006970182  0.48754908726886015  0.4272599450571446  1.0000
  O   O6        1.0  0.773711183424524  0.42786176938195547  0.5826226988849469  1.0000
