data_image0
_chemical_formula_structural       Zn2P4H28C12N4O12
_chemical_formula_sum              "Zn2 P4 H28 C12 N4 O12"
_cell_length_a       8.237422511680949
_cell_length_b       8.88053999059795
_cell_length_c       8.905273337619816
_cell_angle_alpha    62.97381045808108
_cell_angle_beta     87.58746256656349
_cell_angle_gamma    80.01001157542335

_space_group_name_H-M_alt    "P 1"
_space_group_IT_number       1

loop_
  _space_group_symop_operation_xyz
  'x, y, z'

loop_
  _atom_site_type_symbol
  _atom_site_label
  _atom_site_symmetry_multiplicity
  _atom_site_fract_x
  _atom_site_fract_y
  _atom_site_fract_z
  _atom_site_occupancy
  Zn  Zn1       1.0  0.25578978116664786  0.07862034439656183  0.41417983242985196  1.0000
  Zn  Zn2       1.0  0.744210886920314  0.9213864356302752  0.5858153710164301  1.0000
  P   P1        1.0  0.44751307378435706  0.025438163484551506  0.7529112612152885  1.0000
  P   P2        1.0  0.5524919806266694  0.9745570738055207  0.24708883366302115  1.0000
  P   P3        1.0  0.9215908698440032  0.2618873683484964  0.4514507804009682  1.0000
  P   P4        1.0  0.07841117108759484  0.738111638935294  0.548552287623231  1.0000
  H   H1        1.0  0.2863335107362204  0.8038995110136256  0.8254790112674116  1.0000
  H   H2        1.0  0.7136653813312819  0.1961034107770843  0.1745179877274765  1.0000
  H   H3        1.0  0.3625161773724273  0.807984463062084  0.011476889207379794  1.0000
  H   H4        1.0  0.6374859795460495  0.19201336919220316  0.988519954433805  1.0000
  H   H5        1.0  0.890690019382319  0.5697534336735759  0.35493350114919753  1.0000
  H   H6        1.0  0.10930652870499098  0.43024938980347843  0.6450692730086515  1.0000
  H   H7        1.0  0.7966870896292164  0.521949611444697  0.2084802417870293  1.0000
  H   H8        1.0  0.2033110908835809  0.47805066726414946  0.7915224546939683  1.0000
  H   H9        1.0  0.23472672293627278  0.1483825812990673  0.9575468659790616  1.0000
  H   H10       1.0  0.7652743042998225  0.8516151566380119  0.04245569092335453  1.0000
  H   H11       1.0  0.2007473250744169  0.9583465993170748  0.1333636632942472  1.0000
  H   H12       1.0  0.7992560969111153  0.041651182741212295  0.8666365092609141  1.0000
  H   H13       1.0  0.6060156564434038  0.6683150182621276  0.3221316305488103  1.0000
  H   H14       1.0  0.3939829083509068  0.3316827478103619  0.6778687896132496  1.0000
  H   H15       1.0  0.0733284953331648  0.7481148831713754  0.0929271380114756  1.0000
  H   H16       1.0  0.9266718962498574  0.2518866869447791  0.9070748774176779  1.0000
  H   H17       1.0  0.007351608629655004  0.7966792148558499  0.8833770077150475  1.0000
  H   H18       1.0  0.9926484049109303  0.20331725373452514  0.11662503806557822  1.0000
  H   H19       1.0  0.5502213389890898  0.31102554398579235  0.42974511690118067  1.0000
  H   H20       1.0  0.44977555953357035  0.6889748029832037  0.5702531203939287  1.0000
  H   H21       1.0  0.512443897353876  0.4932988324251112  0.22838559523187751  1.0000
  H   H22       1.0  0.4875533792112208  0.5067066160696712  0.7716126117117739  1.0000
  H   H23       1.0  0.7422688516842869  0.5546880497761391  0.6030027028202839  1.0000
  H   H24       1.0  0.2577272675913349  0.4453097263675971  0.39699671087333144  1.0000
  H   H25       1.0  0.6896261026833345  0.34900215366240417  0.65750935578793  1.0000
  H   H26       1.0  0.3103696323107741  0.6509981351176889  0.3424923342246161  1.0000
  H   H27       1.0  0.08584727726513108  0.07257421150745103  0.7771388871444743  1.0000
  H   H28       1.0  0.9141537330478825  0.9274235444937844  0.22286253948604462  1.0000
  C   C1        1.0  0.30451610337846796  0.885049325421342  0.8844320172964899  1.0000
  C   C2        1.0  0.6954834412651819  0.1149497461261504  0.1155666534435582  1.0000
  C   C3        1.0  0.812798393070345  0.48624428698762767  0.3430631069114511  1.0000
  C   C4        1.0  0.1871926283265141  0.5137623888110028  0.6569371128362391  1.0000
  C   C5        1.0  0.14767207405522947  0.05893456314952772  0.01077345940230859  1.0000
  C   C6        1.0  0.852328936257777  0.9410631928517077  0.9892279672282029  1.0000
  C   C7        1.0  0.01963293217704628  0.8506388427190573  0.9708841160863314  1.0000
  C   C8        1.0  0.9803690579852997  0.149360218757181  0.029115561122168315  1.0000
  C   C9        1.0  0.5162265524076803  0.45078633561011117  0.3650317324198085  1.0000
  C   C10       1.0  0.4837744579053337  0.5492114203911241  0.634969694210703  1.0000
  C   C11       1.0  0.6505515471642268  0.4881504599774616  0.5843202048560414  1.0000
  C   C12       1.0  0.3494470007070091  0.5118473241591701  0.4156790850341139  1.0000
  N   N1        1.0  0.6463749958654218  0.5291096616312743  0.4020255901931904  1.0000
  N   N2        1.0  0.3536183105330792  0.4708906191559237  0.5979762236228084  1.0000
  N   N3        1.0  0.1379655925828871  0.9745766662860691  0.8996879722526998  1.0000
  N   N4        1.0  0.8620356352555092  0.0254198063007536  0.1003140116262031  1.0000
  O   O1        1.0  0.3738902791403689  0.120907833328566  0.5715545997147942  1.0000
  O   O2        1.0  0.6261138713229498  0.8790925737474354  0.42844100562616916  1.0000
  O   O3        1.0  0.6053669192430889  0.8940917738942674  0.7761776921892576  1.0000
  O   O4        1.0  0.39463363909607097  0.10590856699993623  0.22382148967258078  1.0000
  O   O5        1.0  0.0627260562052427  0.26411388213171694  0.3306181539876362  1.0000
  O   O6        1.0  0.9372808670499635  0.7358916705912648  0.6693750366545997  1.0000
  O   O7        1.0  0.7970879553455461  0.15146727303690002  0.4505430938442601  1.0000
  O   O8        1.0  0.20291504851230258  0.8485330577860496  0.5494570944860301  1.0000
  O   O9        1.0  0.46584159739114744  0.158033086912134  0.8133766746181125  1.0000
  O   O10       1.0  0.5341604096942801  0.841965956499955  0.18662413286228488  1.0000
  O   O11       1.0  0.9784856899247313  0.22616929547744752  0.6271955674567309  1.0000
  O   O12       1.0  0.021522950371384273  0.773833622156559  0.3728031968681549  1.0000
