data_image0
_chemical_formula_structural       Zn3H22C32N2O12
_chemical_formula_sum              "Zn3 H22 C32 N2 O12"
_cell_length_a       9.014342567
_cell_length_b       9.286069563609807
_cell_length_c       17.776786524958577
_cell_angle_alpha    101.71384080029068
_cell_angle_beta     90.004530646383
_cell_angle_gamma    119.36093590505499

_space_group_name_H-M_alt    "P 1"
_space_group_IT_number       1

loop_
  _space_group_symop_operation_xyz
  'x, y, z'

loop_
  _atom_site_type_symbol
  _atom_site_label
  _atom_site_symmetry_multiplicity
  _atom_site_fract_x
  _atom_site_fract_y
  _atom_site_fract_z
  _atom_site_occupancy
  Zn  Zn1       1.0  0.5004735800836002  9.01129192101e-05  5.7084659558999995e-06  1.0000
  Zn  Zn2       1.0  0.5057930745217973  0.014728103973936897  0.8211283979521797  1.0000
  Zn  Zn3       1.0  0.4953084013414611  0.9855105137729936  0.17887967375943967  1.0000
  H   H1        1.0  0.06229705244877691  0.1283057296135155  0.8569668152974472  1.0000
  H   H2        1.0  0.9391396494673716  0.8719223161701494  0.1430250012782039  1.0000
  H   H3        1.0  0.05985892075017321  0.12248810128518532  0.9564162118896959  1.0000
  H   H4        1.0  0.9412579658996737  0.8777436954489416  0.0435737325182686  1.0000
  H   H5        1.0  0.3392107911238185  0.38683327877131995  0.989693043240905  1.0000
  H   H6        1.0  0.9500272969745893  0.6120926929133361  0.009369790936204892  1.0000
  H   H7        1.0  0.6617485413095282  0.6134269654702535  0.010460101626335884  1.0000
  H   H8        1.0  0.050766905450423415  0.3879834722993039  0.9904863249821432  1.0000
  H   H9        1.0  0.31654272132837497  0.6261480588529126  0.9542747949375754  1.0000
  H   H10       1.0  0.6843661353915709  0.3741660308332371  0.045760012193831315  1.0000
  H   H11       1.0  0.5037921729476764  0.5255043650254834  0.8877045748025836  1.0000
  H   H12       1.0  0.9739459796646488  0.47053918913602644  0.10989642212955181  1.0000
  H   H13       1.0  0.4975924253973433  0.4751058018937401  0.11264586475709142  1.0000
  H   H14       1.0  0.027121497281861164  0.5294762515375594  0.8898686241612597  1.0000
  H   H15       1.0  0.3308459851806234  0.3773102703723054  0.8157593060938455  1.0000
  H   H16       1.0  0.9556189367619582  0.6199117845863285  0.18312388762124246  1.0000
  H   H17       1.0  0.6709087590126189  0.6232662613220867  0.18442347205689205  1.0000
  H   H18       1.0  0.04585658084327088  0.38023281990665225  0.8167329390814474  1.0000
  H   H19       1.0  0.42071175674583833  0.7334428763683007  0.6674089882400767  1.0000
  H   H20       1.0  0.5784936064017501  0.266402137045091  0.33252115108246033  1.0000
  H   H21       1.0  0.42908168650735945  0.7332622857620947  0.5263058051251619  1.0000
  H   H22       1.0  0.5678692772812894  0.2663077919561019  0.4735302357202401  1.0000
  C   C1        1.0  0.10304558692719472  0.2077464768641661  0.916434967464234  1.0000
  C   C2        1.0  0.8981621541764042  0.7924916873554652  0.08355618139354704  1.0000
  C   C3        1.0  0.30004374596868644  0.3177061649109447  0.9285197789490597  1.0000
  C   C4        1.0  0.9821633268769007  0.6807475667473427  0.07065128297604424  1.0000
  C   C5        1.0  0.7011665211292595  0.6826511650355727  0.0716155867192825  1.0000
  C   C6        1.0  0.018849921784742225  0.3193186160875214  0.9292105775163154  1.0000
  C   C7        1.0  0.28059438832882944  0.5569164451063388  0.8933627183497637  1.0000
  C   C8        1.0  0.7205931118952481  0.4433585017798407  0.1066771441045589  1.0000
  C   C9        1.0  0.3760929123139719  0.20154068244592344  0.914597609862554  1.0000
  C   C10       1.0  0.17585007972454034  0.7967484420305552  0.0837737596284214  1.0000
  C   C11       1.0  0.6252418516003646  0.7989335304734199  0.08559679425204084  1.0000
  C   C12       1.0  0.8251606096760684  0.2032358263888483  0.916010084598881  1.0000
  C   C13       1.0  0.3632886524683273  0.445234681767019  0.8770166696436237  1.0000
  C   C14       1.0  0.9166633446873861  0.5525496947077216  0.12185738843876243  1.0000
  C   C15       1.0  0.6381267607452726  0.55523447949313  0.1231783503774722  1.0000
  C   C16       1.0  0.08451848799386855  0.44755594839621443  0.8780112627283716  1.0000
  C   C17       1.0  0.34721876345143704  0.6874692156055815  0.8447843649895718  1.0000
  C   C18       1.0  0.6540478185475821  0.31276463771610713  0.15523504043597575  1.0000
  C   C19       1.0  0.4952845198436293  0.9977585698059884  0.5407781748412434  1.0000
  C   C20       1.0  0.5008653791867488  0.0016245342602303023  0.45922016592341214  1.0000
  C   C21       1.0  0.45268487019838954  0.845872339704954  0.6458433522833857  1.0000
  C   C22       1.0  0.5456437708321362  0.15378530879095115  0.35409265272569  1.0000
  C   C23       1.0  0.4566730379888781  0.8489535964819268  0.56872559978428  1.0000
  C   C24       1.0  0.5404608281727548  0.1505744485905396  0.43119677789380984  1.0000
  C   C25       1.0  0.5776681738198022  0.3543178792740846  0.6131948900739276  1.0000
  C   C26       1.0  0.470348282686743  0.8646201123132614  0.40006745574729763  1.0000
  C   C27       1.0  0.4165478495022086  0.6439313564552833  0.3867611594469339  1.0000
  C   C28       1.0  0.5254286443541787  0.1346351425655499  0.5999354368014026  1.0000
  C   C29       1.0  0.5610265496223903  0.2867748559516272  0.6725445424188976  1.0000
  C   C30       1.0  0.4782682501648382  0.8819050630824989  0.3247049945567682  1.0000
  C   C31       1.0  0.4351616581522111  0.712400720121572  0.3276055877030616  1.0000
  C   C32       1.0  0.5187080035673475  0.11740314291523651  0.6753353023227505  1.0000
  N   N1        1.0  0.48665524699742246  0.9881548968095615  0.7035284128513128  1.0000
  N   N2        1.0  0.5119160395287565  0.011528493147601203  0.2964698195891701  1.0000
  O   O1        1.0  0.42415978154267725  0.8478492508174256  0.8835230630228283  1.0000
  O   O2        1.0  0.5767075955622333  0.15238272732761263  0.11647365052666463  1.0000
  O   O3        1.0  0.3314372135950023  0.6481462531309319  0.7730035555917355  1.0000
  O   O4        1.0  0.6701759277801926  0.3520269802804208  0.2270232407117732  1.0000
  O   O5        1.0  0.41148336069760216  0.1583983856127276  0.9719632439304677  1.0000
  O   O6        1.0  0.25162319161021435  0.8455411014207003  0.02643145751184051  1.0000
  O   O7        1.0  0.5896252935370753  0.8419466320577482  0.02823276342159889  1.0000
  O   O8        1.0  0.7492354735976791  0.1545924328261634  0.9733432429958597  1.0000
  O   O9        1.0  0.3958428653496356  0.15351622189140815  0.843877135309903  1.0000
  O   O10       1.0  0.24653602031209232  0.8391000753094531  0.153632656869803  1.0000
  O   O11       1.0  0.6057527491580502  0.8471449774088528  0.15634455665976085  1.0000
  O   O12       1.0  0.7546202992774766  0.16070911023334838  0.8460952831700582  1.0000
