data_image0
_chemical_formula_structural       Zn2H36C44N8O8
_chemical_formula_sum              "Zn2 H36 C44 N8 O8"
_cell_length_a       11.808100921958246
_cell_length_b       11.823722483095567
_cell_length_c       13.538081153473229
_cell_angle_alpha    110.8952226649555
_cell_angle_beta     89.99957333812958
_cell_angle_gamma    119.95736203991468

_space_group_name_H-M_alt    "P 1"
_space_group_IT_number       1

loop_
  _space_group_symop_operation_xyz
  'x, y, z'

loop_
  _atom_site_type_symbol
  _atom_site_label
  _atom_site_symmetry_multiplicity
  _atom_site_fract_x
  _atom_site_fract_y
  _atom_site_fract_z
  _atom_site_occupancy
  Zn  Zn1       1.0  0.9794889574945529  2.2186034769042235e-06  0.7500005565256059  1.0000
  Zn  Zn2       1.0  0.02050664196583096  0.9999910514995066  0.24999870987714704  1.0000
  H   H1        1.0  0.208101516045673  0.17168778483780764  0.9686144922228977  1.0000
  H   H2        1.0  0.03641533451664719  0.8283167397858194  0.5313865097413526  1.0000
  H   H3        1.0  0.7919007713358754  0.8283086985691741  0.03138580039704661  1.0000
  H   H4        1.0  0.9635899970065583  0.1716841380617709  0.4686085379818579  1.0000
  H   H5        1.0  0.934649650752924  0.7296472738293787  0.7864830395770426  1.0000
  H   H6        1.0  0.20499816913218188  0.27035501896754977  0.7135135590663992  1.0000
  H   H7        1.0  0.06535771792524515  0.27034920965606807  0.2135172530512079  1.0000
  H   H8        1.0  0.7949979046554819  0.7296391998474906  0.28649339738002066  1.0000
  H   H9        1.0  0.10035278194423826  0.7658859534936583  0.9569815169498384  1.0000
  H   H10       1.0  0.33446282923412707  0.23412483290733388  0.5430142089631999  1.0000
  H   H11       1.0  0.8996617536627486  0.23411808875192008  0.04301749618433347  1.0000
  H   H12       1.0  0.6655345454641123  0.7658855375849853  0.45699273493476505  1.0000
  H   H13       1.0  0.25692009518692777  0.01141335759241  0.1418656276393691  1.0000
  H   H14       1.0  0.24550867390615164  0.9885976787183925  0.35813496184606214  1.0000
  H   H15       1.0  0.7430738863529598  0.9885851454579678  0.8581426970786553  1.0000
  H   H16       1.0  0.7544885311904892  0.011422514916773702  0.6418640387092083  1.0000
  H   H17       1.0  0.3335543530537566  0.17068442471808962  0.12017719240120782  1.0000
  H   H18       1.0  0.1628674016589003  0.8293297565100701  0.3798229438811092  1.0000
  H   H19       1.0  0.6664527235943327  0.8293216371839593  0.8798298528324152  1.0000
  H   H20       1.0  0.8371286381453943  0.1706830252922487  0.6201685186090772  1.0000
  H   H21       1.0  0.5038538037104487  0.21323055389989073  0.002459801672813503  1.0000
  H   H22       1.0  0.29061079921320515  0.786770082525884  0.4975313324103183  1.0000
  H   H23       1.0  0.49615888509540457  0.7867731824117358  0.9975575813936857  1.0000
  H   H24       1.0  0.7093885277914256  0.2132374174099355  0.5024540109569884  1.0000
  H   H25       1.0  0.32757176689015943  0.8391686486612289  0.07190176703692698  1.0000
  H   H26       1.0  0.4884083558176117  0.16084171486890853  0.4281071767663533  1.0000
  H   H27       1.0  0.6724352169896691  0.16082875905058108  0.9281076852284116  1.0000
  H   H28       1.0  0.5115870985268672  0.8391614273221607  0.5718812071040844  1.0000
  H   H29       1.0  0.8305735015390284  0.285099515059315  0.8391258519091876  1.0000
  H   H30       1.0  0.5454621029172416  0.7148978348526784  0.6608698660007448  1.0000
  H   H31       1.0  0.1694253921900214  0.7148969560590502  0.1608751755026249  1.0000
  H   H32       1.0  0.45452983439935235  0.28509657967796903  0.3391253336802933  1.0000
  H   H33       1.0  0.21519220019625615  0.5238001785473401  0.05366833865326731  1.0000
  H   H34       1.0  0.6913978468177506  0.4762019078023982  0.4463398789663131  1.0000
  H   H35       1.0  0.784807204588624  0.4761973147009544  0.9463359700177989  1.0000
  H   H36       1.0  0.30859299493011605  0.5237903156326382  0.5536575757650866  1.0000
  C   C1        1.0  0.15571537571246102  0.05650494924345403  0.942919417001022  1.0000
  C   C2        1.0  0.09921173891434183  0.943503885796922  0.5570910530185884  1.0000
  C   C3        1.0  0.8442917941980357  0.9434979116955234  0.05708586722908393  1.0000
  C   C4        1.0  0.9007895960791786  0.0564957740874448  0.4429124701983085  1.0000
  C   C5        1.0  0.01495119169059925  0.8262056187573634  0.8511538504785321  1.0000
  C   C6        1.0  0.18874613971558327  0.17380042993192293  0.6488470341329275  1.0000
  C   C7        1.0  0.9850557723839092  0.17379513675326316  0.1488485452214903  1.0000
  C   C8        1.0  0.8112529537280367  0.8261981343784797  0.351157616606379  1.0000
  C   C9        1.0  0.0965049640962052  0.842868493050638  0.934062194948595  1.0000
  C   C10       1.0  0.2536359645725312  0.15713768701318293  0.5659375099945123  1.0000
  C   C11       1.0  0.9034986002043723  0.15713223793505193  0.065941670340699  1.0000
  C   C12       1.0  0.7463624374118752  0.842866269329747  0.434066646695193  1.0000
  C   C13       1.0  0.29658347103217153  0.056013825151218624  0.0822937685403886  1.0000
  C   C14       1.0  0.24057014387512515  0.9439945830987284  0.4177029122842412  1.0000
  C   C15       1.0  0.7034202736718033  0.9439804916720153  0.917707309539253  1.0000
  C   C16       1.0  0.7594267122048141  0.056018137535105005  0.5822922241943473  1.0000
  C   C17       1.0  0.4046004870765786  0.029971593130227313  0.042799934000989  1.0000
  C   C18       1.0  0.37462478494543233  0.9700362320323068  0.4571979784491517  1.0000
  C   C19       1.0  0.5954077299254124  0.9700215058605365  0.9572096195861802  1.0000
  C   C20       1.0  0.6253694974911214  0.02997134124292701  0.5427829561254214  1.0000
  C   C21       1.0  0.5019815575601287  0.11960633400047983  0.0016616293243459064  1.0000
  C   C22       1.0  0.3823675340317864  0.8803934748029933  0.4983333762633464  1.0000
  C   C23       1.0  0.4980300050698788  0.8803951500339766  0.9983616827795246  1.0000
  C   C24       1.0  0.6176296065157559  0.11961303968567454  0.5016464814497326  1.0000
  C   C25       1.0  0.4036780569865927  0.9102749012823925  0.040803564938364956  1.0000
  C   C26       1.0  0.49340156481130765  0.08973564345843953  0.459205169300418  1.0000
  C   C27       1.0  0.5963285604591704  0.08972346736470632  0.9592128425718514  1.0000
  C   C28       1.0  0.506591485944142  0.9102728540300762  0.5407849249098717  1.0000
  C   C29       1.0  0.051269002949531794  0.27765656425648916  0.8811645317765908  1.0000
  C   C30       1.0  0.7736127984277206  0.7223408314511205  0.6188337569792708  1.0000
  C   C31       1.0  0.9487257496280822  0.7223367058334137  0.1188347346247839  1.0000
  C   C32       1.0  0.22638179116386684  0.27765041886462427  0.3811574773101896  1.0000
  C   C33       1.0  0.02539929099048522  0.39388760837297104  0.940638039384247  1.0000
  C   C34       1.0  0.6315118134878407  0.6061157254838181  0.5593649158753138  1.0000
  C   C35       1.0  0.9745998391816785  0.6061110293553044  0.059362202570639545  1.0000
  C   C36       1.0  0.3684779190073898  0.3938776668907523  0.44062700254372084  1.0000
  C   C37       1.0  0.9039443676223514  0.37983931780574665  0.9098853217490727  1.0000
  C   C38       1.0  0.5241011413188232  0.620157727428598  0.5901123434606248  1.0000
  C   C39       1.0  0.09605252712133713  0.620158236584878  0.09011531293081279  1.0000
  C   C40       1.0  0.4758888780319667  0.3798345449386177  0.4098821720797758  1.0000
  C   C41       1.0  0.12152432299978247  0.5150468003542843  0.031101616002011747  1.0000
  C   C42       1.0  0.6064751162420023  0.48495258951438563  0.46890263584059977  1.0000
  C   C43       1.0  0.878474253266596  0.48495072958986923  0.9689004882754588  1.0000
  C   C44       1.0  0.39351574999156497  0.5150396828659043  0.5310918797011865  1.0000
  N   N1        1.0  0.053016723185621055  0.9603464028824077  0.8576686979824614  1.0000
  N   N2        1.0  0.09267062128199653  0.03966510304434931  0.6423385530465069  1.0000
  N   N3        1.0  0.946996293884702  0.039659683583799704  0.1423368776660467  1.0000
  N   N4        1.0  0.9073310128099342  0.9603334613052826  0.3576660976969493  1.0000
  N   N5        1.0  0.18420487894368168  0.9887249167129185  0.9914191155410917  1.0000
  N   N6        1.0  0.19547339662925378  0.011279565074410407  0.5085806883214588  1.0000
  N   N7        1.0  0.8158049616060767  0.011274816720082001  0.008579998905212001  1.0000
  N   N8        1.0  0.8045241768366509  0.9887244279643853  0.4914212639746509  1.0000
  O   O1        1.0  0.9462214698870285  0.1571889014980741  0.8150356290162222  1.0000
  O   O2        1.0  0.7890334050726083  0.8428063141967074  0.6849693032833173  1.0000
  O   O3        1.0  0.053771495662637496  0.8428075695287519  0.18496539838591272  1.0000
  O   O4        1.0  0.21096727568438922  0.15718695598474136  0.315029963127742  1.0000
  O   O5        1.0  0.1658712417010335  0.29921200312934804  0.8983584670666572  1.0000
  O   O6        1.0  0.8666516613186702  0.7007747361275848  0.6016320400623201  1.0000
  O   O7        1.0  0.8341255527119176  0.700780269342481  0.1016360484848137  1.0000
  O   O8        1.0  0.1333421181186908  0.2992165875929517  0.39835478544133457  1.0000
