data_image0
_chemical_formula_structural       Mg6H36C51N12O24
_chemical_formula_sum              "Mg6 H36 C51 N12 O24"
_cell_length_a       6.82583370631937
_cell_length_b       30.755017154187446
_cell_length_c       30.759666472326074
_cell_angle_alpha    119.4629630460284
_cell_angle_beta     94.23845810238453
_cell_angle_gamma    94.25041527298195

_space_group_name_H-M_alt    "P 1"
_space_group_IT_number       1

loop_
  _space_group_symop_operation_xyz
  'x, y, z'

loop_
  _atom_site_type_symbol
  _atom_site_label
  _atom_site_symmetry_multiplicity
  _atom_site_fract_x
  _atom_site_fract_y
  _atom_site_fract_z
  _atom_site_occupancy
  Mg  Mg1       1.0  0.48311515390214044  0.3070327051353772  0.6792663203910932  1.0000
  Mg  Mg2       1.0  0.13359341586038195  0.6302645535298055  0.327866512126853  1.0000
  Mg  Mg3       1.0  0.8040864560898839  0.3207606598479132  0.6278111251431042  1.0000
  Mg  Mg4       1.0  0.80578065804967  0.6721632718133818  0.3024217739283939  1.0000
  Mg  Mg5       1.0  0.17627131980378147  0.37223925895513327  0.6929696420591042  1.0000
  Mg  Mg6       1.0  0.5034143933161203  0.6976190838903095  0.369778664367189  1.0000
  H   H1        1.0  0.7451845064515369  0.5724375039654319  0.18169132324371162  1.0000
  H   H2        1.0  0.6587403733383538  0.5408007933900976  0.09699895365808688  1.0000
  H   H3        1.0  0.6386388208366893  0.4315069123290698  0.9847347254895168  1.0000
  H   H4        1.0  0.4736215866774742  0.5268122248101577  0.026175669559023593  1.0000
  H   H5        1.0  0.39162507034067306  0.4902667242821153  0.05360370242286901  1.0000
  H   H6        1.0  0.1645223295821765  0.4498458910133963  0.98788633739327  1.0000
  H   H7        1.0  0.5760964597837628  0.48464886300554605  0.9491112299759334  1.0000
  H   H8        1.0  0.2628893166561639  0.4073992096738337  0.8252931786481098  1.0000
  H   H9        1.0  0.9745606601986124  0.46162348311466417  0.8326070307572306  1.0000
  H   H10       1.0  0.821958455822802  0.4934297467981422  0.9116274630185967  1.0000
  H   H11       1.0  0.18423741311455183  0.5584614739236499  0.08305590158194316  1.0000
  H   H12       1.0  0.43969569817985377  0.6055067220180419  0.1587499701903354  1.0000
  H   H13       1.0  0.5636501425986963  0.8183457853859649  0.3907944978926635  1.0000
  H   H14       1.0  0.5618569154933012  0.9029933632318715  0.44377519778318947  1.0000
  H   H15       1.0  0.6539887033462221  0.0152669252152933  0.44675710704368027  1.0000
  H   H16       1.0  0.44753520905668137  0.9738202967904357  0.5006221942903935  1.0000
  H   H17       1.0  0.33821688525235755  0.946360727086791  0.43663858945051703  1.0000
  H   H18       1.0  0.17667460564173607  0.012057596244162  0.4618912517473247  1.0000
  H   H19       1.0  0.6268614482056734  0.0509052182383627  0.5355048559053512  1.0000
  H   H20       1.0  0.4374330415791902  0.1747482792401839  0.5821504671511589  1.0000
  H   H21       1.0  0.14172426221649195  0.16736110638845494  0.629013841873572  1.0000
  H   H22       1.0  0.9099917673488492  0.08835896657237188  0.5817838477205796  1.0000
  H   H23       1.0  0.10137318769477591  0.9170559249077712  0.4753869022040149  1.0000
  H   H24       1.0  0.2812211934585633  0.8413573711327375  0.4467914553854868  1.0000
  H   H25       1.0  0.1726009307628258  0.6091708451273657  0.42747795204802214  1.0000
  H   H26       1.0  0.11801320311396772  0.5562014439443813  0.45923393103381466  1.0000
  H   H27       1.0  0.20752950399410244  0.5532183152161707  0.5684804440097861  1.0000
  H   H28       1.0  0.9472975372226599  0.4993419034204081  0.47315813854046945  1.0000
  H   H29       1.0  0.90189540721493  0.563330136392274  0.5097097721300585  1.0000
  H   H30       1.0  0.7150301027351276  0.5380366227686508  0.5500951533780095  1.0000
  H   H31       1.0  0.09158018225591032  0.46439460699074425  0.5153193076075836  1.0000
  H   H32       1.0  0.8556510737427772  0.41783460725152827  0.5926154767639175  1.0000
  H   H33       1.0  0.5131653052539419  0.37101031528211337  0.5383358733413244  1.0000
  H   H34       1.0  0.3284051316434358  0.41817030809848177  0.5065446568166933  1.0000
  H   H35       1.0  0.6257530976798832  0.5246026200063555  0.44159596934353823  1.0000
  H   H36       1.0  0.8341448731293679  0.5531849285951651  0.39449804379179904  1.0000
  C   C1        1.0  0.03926170464480789  0.6047190614664543  0.21892059739737138  1.0000
  C   C2        1.0  0.897740539333192  0.579246001567526  0.17599278614327568  1.0000
  C   C3        1.0  0.9489106219025556  0.5615236731898036  0.1276273064694634  1.0000
  C   C4        1.0  0.813344358838563  0.4899431460662029  0.04384845182534036  1.0000
  C   C5        1.0  0.44824947588627845  0.4880009970573623  0.01996629192425555  1.0000
  C   C6        1.0  0.2923931871495851  0.4487362500539475  0.929741139991705  1.0000
  C   C7        1.0  0.5321923583767684  0.45206694113119983  0.8732873991931667  1.0000
  C   C8        1.0  0.4178252200902221  0.41988687245356715  0.8270693579318685  1.0000
  C   C9        1.0  0.5044924112247529  0.40073998860231097  0.7819727805182592  1.0000
  C   C10       1.0  0.710301922030581  0.4162092226059145  0.7843564525633369  1.0000
  C   C11       1.0  0.8179952925286075  0.4507468538983375  0.831485230532685  1.0000
  C   C12       1.0  0.7325935140194275  0.46870476640398806  0.875359757783407  1.0000
  C   C13       1.0  0.8195750952878738  0.3958055257530972  0.74046729559614  1.0000
  C   C14       1.0  0.14622470154251496  0.5708057370616049  0.1207115163173854  1.0000
  C   C15       1.0  0.28667785390611294  0.596593571051514  0.16271836961708164  1.0000
  C   C16       1.0  0.2408682420461473  0.6135362298969013  0.21212690690271066  1.0000
  C   C17       1.0  0.4007521232809026  0.6402543295844438  0.2543611634468661  1.0000
  C   C18       1.0  0.8205403089534896  0.7811458324600126  0.3858548390543391  1.0000
  C   C19       1.0  0.7219228739909835  0.8240645846792417  0.40329499219312465  1.0000
  C   C20       1.0  0.821471485976801  0.8724418279841614  0.43393253432488876  1.0000
  C   C21       1.0  0.7695774315948042  0.956182789262506  0.4461117814665483  1.0000
  C   C22       1.0  0.4283485852641746  0.9800228690963453  0.4680248153610975  1.0000
  C   C23       1.0  0.3625244156601538  0.07024951603283108  0.5189553169643231  1.0000
  C   C24       1.0  0.6586056459824547  0.1267228606306503  0.5787970484918785  1.0000
  C   C25       1.0  0.5905725316029021  0.1729534815722289  0.5928519590073336  1.0000
  C   C26       1.0  0.7224183126289033  0.2180515348606988  0.6188158675992455  1.0000
  C   C27       1.0  0.9258428368858772  0.2156528238579511  0.6318875193898348  1.0000
  C   C28       1.0  0.9862815479083763  0.16851544672598348  0.6192943222816253  1.0000
  C   C29       1.0  0.8569079332823718  0.12464107285713061  0.5933634472812341  1.0000
  C   C30       1.0  0.07900909255702256  0.25954601545034706  0.6553711603575179  1.0000
  C   C31       1.0  0.02572893135604898  0.8793815315160883  0.4501006507077959  1.0000
  C   C32       1.0  0.12422979198540657  0.8373795549104414  0.43391432191763357  1.0000
  C   C33       1.0  0.028971463114288595  0.7879534528843878  0.40145452727472286  1.0000
  C   C34       1.0  0.14648609746303964  0.7456957400685978  0.3859422664508897  1.0000
  C   C35       1.0  0.43451192248728177  0.6141454582791824  0.39525767022864494  1.0000
  C   C36       1.0  0.3183631310626822  0.5966750796642302  0.4207010911354913  1.0000
  C   C37       1.0  0.38732627448329265  0.5660559402425632  0.43844827214952165  1.0000
  C   C38       1.0  0.3236580249039704  0.5538675276048296  0.5100211970097133  1.0000
  C   C39       1.0  0.9606642787897923  0.5319361459168661  0.5119686280346369  1.0000
  C   C40       1.0  0.8438007341837092  0.4809788800641073  0.5512251721066619  1.0000
  C   C41       1.0  0.08011787471528457  0.4211818638827438  0.5479221776054217  1.0000
  C   C42       1.0  0.9980939756077873  0.40714494231770715  0.5801116123792481  1.0000
  C   C43       1.0  0.10406614804487191  0.3812085552140799  0.5992557674299517  1.0000
  C   C44       1.0  0.2943986359353444  0.36813224148234264  0.5837769789692828  1.0000
  C   C45       1.0  0.367457409077673  0.38072329153435186  0.5492319957271405  1.0000
  C   C46       1.0  0.2638976127353273  0.40663671389253847  0.5312983848908387  1.0000
  C   C47       1.0  0.4241018814970018  0.34467363515810934  0.604204078221329  1.0000
  C   C48       1.0  0.5753358485545162  0.5498684671476681  0.4291971567437613  1.0000
  C   C49       1.0  0.6900045693488436  0.5660526851760678  0.40338486064152324  1.0000
  C   C50       1.0  0.6272924722055035  0.5985213062914027  0.3864349526080558  1.0000
  C   C51       1.0  0.7603768465456823  0.6140687712195928  0.35973762868339787  1.0000
  N   N1        1.0  0.7973082531085182  0.5355089969272981  0.08701277682094845  1.0000
  N   N2        1.0  0.6394197304759857  0.4677416535265806  0.012404386671256915  1.0000
  N   N3        1.0  0.2999316740927043  0.45603405787285584  0.9783442888300725  1.0000
  N   N4        1.0  0.4638927312645791  0.4678225328432291  0.9202230454961435  1.0000
  N   N5        1.0  0.710398198314479  0.9130324850142771  0.44852449709192393  1.0000
  N   N6        1.0  0.6271089446913577  0.987617163527986  0.4553460086521141  1.0000
  N   N7        1.0  0.32158001407625386  0.0216225323611567  0.4776575207845183  1.0000
  N   N8        1.0  0.5434525873882093  0.07977534812756196  0.5475833371248624  1.0000
  N   N9        1.0  0.26184856189616557  0.5514822415726002  0.4644911017034871  1.0000
  N   N10       1.0  0.1720496003456232  0.5446296694982776  0.5322464841140473  1.0000
  N   N11       1.0  0.8441889794183127  0.5222826962345835  0.5439094337866023  1.0000
  N   N12       1.0  0.9960889624395434  0.45233955292212613  0.5321296913239734  1.0000
  O   O1        1.0  0.9994570812106572  0.4129166630459267  0.7439629798139151  1.0000
  O   O2        1.0  0.7301084455602264  0.3587056332861565  0.698300758210216  1.0000
  O   O3        1.0  0.39095720539241796  0.3677108834745582  0.7388061793815125  1.0000
  O   O4        1.0  0.5762237662750421  0.6505127332434455  0.24743692741175483  1.0000
  O   O5        1.0  0.35977355448731874  0.6527535951896156  0.2992348599879547  1.0000
  O   O6        1.0  0.9771779995520689  0.6186833818370303  0.26378802701172777  1.0000
  O   O7        1.0  0.970705885078665  0.47143366454299945  0.035025118663917  1.0000
  O   O8        1.0  0.14415713402542712  0.42604531608215274  0.8988459973273278  1.0000
  O   O9        1.0  0.25534044112683313  0.2560553916719143  0.6690134410708308  1.0000
  O   O10       1.0  0.031855111140600814  0.30170853499291167  0.6603986567986765  1.0000
  O   O11       1.0  0.6521535240107852  0.2612290803003389  0.6289749632989725  1.0000
  O   O12       1.0  0.32884777536271054  0.7525974676268989  0.40313124071035134  1.0000
  O   O13       1.0  0.06055331270599838  0.7008175863392692  0.35356351817214454  1.0000
  O   O14       1.0  0.7135647589800058  0.7362628205145967  0.35496805106322427  1.0000
  O   O15       1.0  0.9357994977353241  0.9649964274396722  0.43641905832443934  1.0000
  O   O16       1.0  0.24522357908483627  0.10113986351957749  0.5271350480557685  1.0000
  O   O17       1.0  0.5867733824744121  0.3310216104931456  0.5870686141623835  1.0000
  O   O18       1.0  0.3717364010671246  0.33965176113704126  0.6413258993241512  1.0000
  O   O19       1.0  0.023566283880860735  0.37107485390465195  0.6322835985325097  1.0000
  O   O20       1.0  0.9256175639927876  0.5969050549560677  0.3494790783926617  1.0000
  O   O21       1.0  0.7068578315208001  0.6464497644586658  0.3472442414170229  1.0000
  O   O22       1.0  0.35854296966129334  0.6450735622081255  0.38131772792388563  1.0000
  O   O23       1.0  0.49961685297336084  0.5635341968581713  0.5284840312204934  1.0000
  O   O24       1.0  0.7182575863596411  0.4728016584928554  0.5739284130997786  1.0000
