data_image0
_chemical_formula_structural       Ag2H16C28N4O6F10
_chemical_formula_sum              "Ag2 H16 C28 N4 O6 F10"
_cell_length_a       8.799501269177858
_cell_length_b       9.589434609253177
_cell_length_c       10.174799700986668
_cell_angle_alpha    109.36731308058253
_cell_angle_beta     100.16815611734229
_cell_angle_gamma    107.49306303148737

_space_group_name_H-M_alt    "P 1"
_space_group_IT_number       1

loop_
  _space_group_symop_operation_xyz
  'x, y, z'

loop_
  _atom_site_type_symbol
  _atom_site_label
  _atom_site_symmetry_multiplicity
  _atom_site_fract_x
  _atom_site_fract_y
  _atom_site_fract_z
  _atom_site_occupancy
  Ag  Ag1       1.0  0.34206709624805137  0.49153300129717065  0.30941444122463907  1.0000
  Ag  Ag2       1.0  0.6579319812212392  0.5084671652913285  0.6905844556589498  1.0000
  H   H1        1.0  0.27510027396164116  0.46133040593412045  0.6012772005726743  1.0000
  H   H2        1.0  0.7248999587551738  0.5386697623694517  0.39872187635449297  1.0000
  H   H3        1.0  0.7467421468631131  0.1914768512987095  0.5008475001010664  1.0000
  H   H4        1.0  0.25325740140766584  0.808524512134312  0.49915479166033777  1.0000
  H   H5        1.0  0.7189928593134811  0.13795077409746168  0.23522867732773978  1.0000
  H   H6        1.0  0.28100784812149027  0.8620505916477726  0.7647728124466366  1.0000
  H   H7        1.0  0.976557270929867  0.2509269437834123  0.1708903392647443  1.0000
  H   H8        1.0  0.02344016090707864  0.7490720212597637  0.8291098928505105  1.0000
  H   H9        1.0  0.13518562813550977  0.4876234798559551  0.021604183318871248  1.0000
  H   H10       1.0  0.8648146006646372  0.5123766878504695  0.9783958756389164  1.0000
  H   H11       1.0  0.24692028429939236  0.2081823804572309  0.6476330157891252  1.0000
  H   H12       1.0  0.7530822549957962  0.7918177906793317  0.35236740325583316  1.0000
  H   H13       1.0  0.46245323058839466  0.18331525996548947  0.822098686903409  1.0000
  H   H14       1.0  0.5375460291921003  0.8166825098718675  0.17790145651304104  1.0000
  H   H15       1.0  0.495100020187202  0.3022539881208957  0.09119271547317001  1.0000
  H   H16       1.0  0.5048985708139356  0.6977449792344999  0.9088067146550568  1.0000
  C   C1        1.0  0.150287647830325  0.3849659272964843  0.524028078471481  1.0000
  C   C2        1.0  0.8497119121904574  0.6150354379279789  0.4759712671980833  1.0000
  C   C3        1.0  0.013702955424065499  0.3236928855108374  0.5698576523000651  1.0000
  C   C4        1.0  0.9862989111750979  0.6763084825466168  0.43014303548728333  1.0000
  C   C5        1.0  0.8547415765513123  0.2356175211482139  0.465831375186873  1.0000
  C   C6        1.0  0.14525797563613446  0.7643838428819478  0.5341699345439108  1.0000
  C   C7        1.0  0.83975342809746  0.20645536179488033  0.31987489884272685  1.0000
  C   C8        1.0  0.1602456454551628  0.7935448041964718  0.6801249800714755  1.0000
  C   C9        1.0  0.9825213737888279  0.27021978380840755  0.28356213365670857  1.0000
  C   C10       1.0  0.017478182315287024  0.7297815808189086  0.7164381940434692  1.0000
  C   C11       1.0  0.030489335129068672  0.3617687030021557  0.7273944416888296  1.0000
  C   C12       1.0  0.9695136906342798  0.6382326673675109  0.27260544411149096  1.0000
  C   C13       1.0  0.20413326598434625  0.41776769298544997  0.973585496615058  1.0000
  C   C14       1.0  0.7958687985926933  0.5822312807094436  0.026412509582691424  1.0000
  C   C15       1.0  0.1715323969071535  0.3492489448376049  0.821157370716605  1.0000
  C   C16       1.0  0.8284711114076871  0.6507536241680256  0.17884296386969115  1.0000
  C   C17       1.0  0.2656153737966349  0.262996059446742  0.7647411072462301  1.0000
  C   C18       1.0  0.7343869831873564  0.7370065084409705  0.23525806526586723  1.0000
  C   C19       1.0  0.38579092947203736  0.24770340442940156  0.8621601156159  1.0000
  C   C20       1.0  0.614210454575627  0.7522967649920959  0.13784012338547313  1.0000
  C   C21       1.0  0.40676086032380726  0.31584063162933523  0.011329946890356359  1.0000
  C   C22       1.0  0.5932398471111643  0.6841607341158991  0.988671542884013  1.0000
  C   C23       1.0  0.5619545151640821  0.7815007129364773  0.6014378323565166  1.0000
  C   C24       1.0  0.4380452389179086  0.21849825732827813  0.3985598137540689  1.0000
  C   C25       1.0  0.6829505212562952  0.9608989981336791  0.6916072004529636  1.0000
  C   C26       1.0  0.3170503763232163  0.039099972054707194  0.3083935717930472  1.0000
  C   C27       1.0  0.7416635388074585  0.019781211305065903  0.8604296109915877  1.0000
  C   C28       1.0  0.25833572097303653  0.9802165585322911  0.1395705324248624  1.0000
  N   N1        1.0  0.1345085489723274  0.36064326463028346  0.3836428073560468  1.0000
  N   N2        1.0  0.8654893732494389  0.6393569002431435  0.6163559094839497  1.0000
  N   N3        1.0  0.3180414760757273  0.4009306683691349  0.06696388861971769  1.0000
  N   N4        1.0  0.6819577876214354  0.5990671020653693  0.933035272766119  1.0000
  O   O1        1.0  0.9239020797594862  0.40005124109966067  0.7779958386829475  1.0000
  O   O2        1.0  0.07610190719017854  0.5999525259447864  0.22200592671993039  1.0000
  O   O3        1.0  0.5418675132218312  0.7384892895720228  0.4658554588869847  1.0000
  O   O4        1.0  0.45813272341165157  0.2615108793286894  0.5341426360095693  1.0000
  O   O5        1.0  0.4982018801917931  0.7059244983192343  0.6705940793626792  1.0000
  O   O6        1.0  0.5017985426695618  0.2940732744274825  0.3294042800361295  1.0000
  F   F1        1.0  0.604178026927393  0.0571516376288557  0.66258425322399  1.0000
  F   F2        1.0  0.395820556240409  0.9428473285322454  0.3374171409654636  1.0000
  F   F3        1.0  0.8266063575477463  0.9940588106941843  0.6503363697995679  1.0000
  F   F4        1.0  0.17339483243871  0.0059437536870134994  0.3496655687607768  1.0000
  F   F5        1.0  0.6109397480985096  0.008640808137748498  0.9158555831389489  1.0000
  F   F6        1.0  0.38905671471878395  0.9913557590363596  0.08414473343497524  1.0000
  F   F7        1.0  0.8245652470551267  0.9356122703121772  0.9015885695356116  1.0000
  F   F8        1.0  0.17543285747785123  0.06438549781011459  0.09841139383725306  1.0000
  F   F9        1.0  0.8476311798084811  0.17718211718153748  0.924202314859215  1.0000
  F   F10       1.0  0.1523674033593139  0.8228168489795635  0.0757990793302312  1.0000
