data_image0
_chemical_formula_structural       Cd2H20C26S2N6Cl4
_chemical_formula_sum              "Cd2 H20 C26 S2 N6 Cl4"
_cell_length_a       8.95484558109433
_cell_length_b       10.471061174687668
_cell_length_c       10.684558899093938
_cell_angle_alpha    66.73688587774092
_cell_angle_beta     87.71803550855027
_cell_angle_gamma    85.37279369461588

_space_group_name_H-M_alt    "P 1"
_space_group_IT_number       1

loop_
  _space_group_symop_operation_xyz
  'x, y, z'

loop_
  _atom_site_type_symbol
  _atom_site_label
  _atom_site_symmetry_multiplicity
  _atom_site_fract_x
  _atom_site_fract_y
  _atom_site_fract_z
  _atom_site_occupancy
  Cd  Cd1       1.0  0.9476094270339813  0.8310165350704608  0.49212253564854797  1.0000
  Cd  Cd2       1.0  0.05237062146010631  0.16897000194360595  0.5078758480296485  1.0000
  H   H1        1.0  0.25680109731629847  0.11063764067559127  0.8722779511243387  1.0000
  H   H2        1.0  0.7431880865723244  0.8893615138323977  0.12771961585606562  1.0000
  H   H3        1.0  0.10881556268270744  0.33386007565581366  0.8482047422778933  1.0000
  H   H4        1.0  0.8912192717699129  0.6661564269113711  0.15181039792405926  1.0000
  H   H5        1.0  0.9204584829817649  0.3387053523562641  0.019655761020189344  1.0000
  H   H6        1.0  0.079660039626603  0.6613425727683903  0.9804242125868325  1.0000
  H   H7        1.0  0.8810132677035296  0.13150290483866195  0.23400578963885008  1.0000
  H   H8        1.0  0.11910687012819213  0.8685078079164082  0.7660651208280099  1.0000
  H   H9        1.0  0.1099098867076478  0.576967087807432  0.3074813866110873  1.0000
  H   H10       1.0  0.8900718503640592  0.42301209212543245  0.6924843941000629  1.0000
  H   H11       1.0  0.18552538092099982  0.6284029646408766  0.4290820153304366  1.0000
  H   H12       1.0  0.8144273012224091  0.3715758946300978  0.570905447315539  1.0000
  H   H13       1.0  0.3613648386708165  0.805334558008617  0.3873892927353992  1.0000
  H   H14       1.0  0.6386144247387621  0.19469352562474995  0.6125882521520508  1.0000
  H   H15       1.0  0.574610081818328  0.8905874528245972  0.46202220592711296  1.0000
  H   H16       1.0  0.42538929507446  0.10942552824425884  0.5379459227108325  1.0000
  H   H17       1.0  0.8752604205600464  0.6010759699875405  0.3943612398481448  1.0000
  H   H18       1.0  0.1247104791152651  0.3989135142043309  0.6056296749429179  1.0000
  H   H19       1.0  0.6784362216495411  0.503950635844042  0.31304379946739386  1.0000
  H   H20       1.0  0.32152240498560763  0.4960540992905179  0.686928124897484  1.0000
  C   C1        1.0  0.14811302799436993  0.9937844841339183  0.06704583824488003  1.0000
  C   C2        1.0  0.8518856777362487  0.006206572640195388  0.9329631802878705  1.0000
  C   C3        1.0  0.17353845649782332  0.11523291326610517  0.9478494430169915  1.0000
  C   C4        1.0  0.8264683621350032  0.8847540996809469  0.052165657609059224  1.0000
  C   C5        1.0  0.09229860158885832  0.23715574807505377  0.9356283189287067  1.0000
  C   C6        1.0  0.9077548368431323  0.7628506641852438  0.06440254166848546  1.0000
  C   C7        1.0  0.9836141235894474  0.24026547725128464  0.034947806416511185  1.0000
  C   C8        1.0  0.01647514723831021  0.7597547254183395  0.965121140688019  1.0000
  C   C9        1.0  0.9602022584032284  0.12360320815137978  0.15677957834006406  1.0000
  C   C10       1.0  0.039889398290235106  0.8763998009798609  0.8432795219660391  1.0000
  C   C11       1.0  0.041649347496111516  0.0013094905676922987  0.1708223433078331  1.0000
  C   C12       1.0  0.9583780184465309  0.998686925006673  0.8291910190633586  1.0000
  C   C13       1.0  0.1500245175516071  0.7938085983747809  0.23513771580901027  1.0000
  C   C14       1.0  0.849950826398306  0.20618145024894113  0.7648378401863524  1.0000
  C   C15       1.0  0.19147868090884407  0.6450878235063511  0.32060676091949597  1.0000
  C   C16       1.0  0.8084665329413453  0.3549015010426046  0.6793775703261244  1.0000
  C   C17       1.0  0.5000938460780091  0.6467766684037242  0.3403459905639039  1.0000
  C   C18       1.0  0.49988091101890547  0.3532366435578921  0.6596312344953288  1.0000
  C   C19       1.0  0.4727206269263887  0.7561708307491342  0.3849606784429298  1.0000
  C   C20       1.0  0.5272574200414155  0.24384339729574112  0.615012316248105  1.0000
  C   C21       1.0  0.5925157301827327  0.8047199748458451  0.42828565907294075  1.0000
  C   C22       1.0  0.4074680941758686  0.19529180545166003  0.5716769195193478  1.0000
  C   C23       1.0  0.7600846006012817  0.6453035823506779  0.38945203350188246  1.0000
  C   C24       1.0  0.23988677411273335  0.3546948966971326  0.6105229875755069  1.0000
  C   C25       1.0  0.6489136009029083  0.590652635947066  0.3436503065069869  1.0000
  C   C26       1.0  0.3510660371258396  0.40935516432649166  0.6563196668933954  1.0000
  S   S1        1.0  0.36691852117721163  0.5716257960263106  0.282330549988039  1.0000
  S   S2        1.0  0.6330667145905124  0.42835103334842  0.7176613646522653  1.0000
  N   N1        1.0  0.05064259689766711  0.8693213473915544  0.2779865166180998  1.0000
  N   N2        1.0  0.9493576197882306  0.13067980088775497  0.7220079949948044  1.0000
  N   N3        1.0  0.2136859230932089  0.8649290581497836  0.10598769339486586  1.0000
  N   N4        1.0  0.7862820631431121  0.13505464606607376  0.8939869725554527  1.0000
  N   N5        1.0  0.734719827451599  0.7514934203911706  0.4303786081608717  1.0000
  N   N6        1.0  0.26527154711861556  0.2485067948189012  0.5695856797390916  1.0000
  Cl  Cl1       1.0  0.025136566112692507  0.6136792796926753  0.688213161921034  1.0000
  Cl  Cl2       1.0  0.9747927017216967  0.3862984337153036  0.31180362834668773  1.0000
  Cl  Cl3       1.0  0.20328946156275413  0.9561772402323993  0.5044083185766366  1.0000
  Cl  Cl4       1.0  0.7966803939271615  0.04379547022079318  0.49561950344401123  1.0000
