data_image0
_chemical_formula_structural       La2H56C84S6N2O14
_chemical_formula_sum              "La2 H56 C84 S6 N2 O14"
_cell_length_a       8.166013086669038
_cell_length_b       19.940545641676707
_cell_length_c       19.940569967734994
_cell_angle_alpha    73.6417134891756
_cell_angle_beta     81.88264006407768
_cell_angle_gamma    81.88263847164289

_space_group_name_H-M_alt    "P 1"
_space_group_IT_number       1

loop_
  _space_group_symop_operation_xyz
  'x, y, z'

loop_
  _atom_site_type_symbol
  _atom_site_label
  _atom_site_symmetry_multiplicity
  _atom_site_fract_x
  _atom_site_fract_y
  _atom_site_fract_z
  _atom_site_occupancy
  La  La1       1.0  0.7283856301379285  0.9849590332211096  0.009346469532800807  1.0000
  La  La2       1.0  0.2283859793620024  0.009345402040963801  0.9849599083041557  1.0000
  H   H1        1.0  0.21654062418137696  0.5860327705914656  0.5762631475065875  1.0000
  H   H2        1.0  0.7165379021280032  0.5762629535975067  0.5860359808103014  1.0000
  H   H3        1.0  0.8967537894906527  0.5523251989801564  0.769401277137867  1.0000
  H   H4        1.0  0.396752820498527  0.7694020795418199  0.5523253570638148  1.0000
  H   H5        1.0  0.8498524537018923  0.7512692942085624  0.615062357579461  1.0000
  H   H6        1.0  0.349852036558609  0.615066330165675  0.7512711733934838  1.0000
  H   H7        1.0  0.025192972065646326  0.7345142778051253  0.017291125714450583  1.0000
  H   H8        1.0  0.525191416707912  0.0172923432185499  0.7345130458774848  1.0000
  H   H9        1.0  0.6739243870847461  0.7857685921392488  0.675121134212752  1.0000
  H   H10       1.0  0.17392332383925438  0.6751231688741016  0.7857682745857562  1.0000
  H   H11       1.0  0.4573184555199036  0.8290462858049494  0.75392813501022  1.0000
  H   H12       1.0  0.9573165960321149  0.7539304169984291  0.829045561229272  1.0000
  H   H13       1.0  0.7604400639092644  0.5929532862955327  0.8374003092131801  1.0000
  H   H14       1.0  0.2604362564024428  0.8374013388775977  0.5929527668223855  1.0000
  H   H15       1.0  0.2353870551611905  0.6398639962878433  0.4743451767945361  1.0000
  H   H16       1.0  0.7353845613801012  0.47434764780193484  0.6398668111755371  1.0000
  H   H17       1.0  0.543315631716368  0.6367708612419776  0.9163096886734865  1.0000
  H   H18       1.0  0.043310412938439055  0.9163109734352657  0.6367699560543302  1.0000
  H   H19       1.0  0.7175472665163342  0.1540445633014613  0.7552239553889138  1.0000
  H   H20       1.0  0.2175479802900497  0.7552261144551194  0.15405166146802435  1.0000
  H   H21       1.0  0.5902372978406234  0.2773553330985053  0.6789968321963187  1.0000
  H   H22       1.0  0.09022700122074671  0.6790005230688579  0.2773602107409445  1.0000
  H   H23       1.0  0.17902718282059032  0.004454749251678402  0.18362873284733894  1.0000
  H   H24       1.0  0.6790264869861247  0.1836280578542571  0.0044534714133917  1.0000
  H   H25       1.0  0.05023405138396706  0.9463639179813298  0.31372240214472685  1.0000
  H   H26       1.0  0.5502364115903334  0.31372284405954803  0.9463661247327695  1.0000
  H   H27       1.0  0.26794303947580284  0.6597473829067083  0.957671651119924  1.0000
  H   H28       1.0  0.7679443640669344  0.9576723710308244  0.6597469737623813  1.0000
  H   H29       1.0  0.3330337619891353  0.719235878220495  0.36280926636648314  1.0000
  H   H30       1.0  0.8330272935322683  0.3628111417135642  0.7192387946214044  1.0000
  H   H31       1.0  0.9723076619688982  0.8167795034029339  0.5420250230648948  1.0000
  H   H32       1.0  0.47230931013370275  0.5420266298758919  0.8167818671716136  1.0000
  H   H33       1.0  0.8940337227355215  0.0869075757882669  0.10457565517224775  1.0000
  H   H34       1.0  0.3940314970495322  0.10457454000164289  0.08690594641428363  1.0000
  H   H35       1.0  0.9876305470535198  0.11326991707655051  0.1884656626337531  1.0000
  H   H36       1.0  0.4876305872290915  0.18846447780420317  0.11327021663105091  1.0000
  H   H37       1.0  0.9247554111949796  0.06382678572860102  0.27583680456999105  1.0000
  H   H38       1.0  0.4247524435032802  0.2758368537912332  0.06382919551155199  1.0000
  H   H39       1.0  0.8320129775417442  0.1516993472547554  0.24340463101182763  1.0000
  H   H40       1.0  0.33200967219477917  0.2434027524468476  0.15170053818663123  1.0000
  H   H41       1.0  0.5295514741654231  0.0333683086187619  0.22149933421935233  1.0000
  H   H42       1.0  0.02955154413545101  0.22150013729702075  0.03336727872086699  1.0000
  H   H43       1.0  0.5389593999651082  0.09863312396417002  0.2669012355215088  1.0000
  H   H44       1.0  0.03895929109479109  0.26690113224754  0.0986324096907865  1.0000
  H   H45       1.0  0.6463439889598346  0.012720072049909  0.2954113330255624  1.0000
  H   H46       1.0  0.14634502719102474  0.2954116115409988  0.012720391915330307  1.0000
  H   H47       1.0  0.06824411368042856  0.895775992849828  0.43031055885666813  1.0000
  H   H48       1.0  0.5682415006242607  0.4303124773430439  0.8957792828562465  1.0000
  H   H49       1.0  0.09568962955070501  0.4833796792940461  0.8097329660202562  1.0000
  H   H50       1.0  0.5956947840816653  0.8097324638136812  0.483385401778378  1.0000
  H   H51       1.0  0.24112853638636983  0.3654966878672995  0.8502707967442407  1.0000
  H   H52       1.0  0.7411254761263351  0.8502726270598374  0.3655011408512153  1.0000
  H   H53       1.0  0.36599590653496245  0.3561219557097531  0.6356830401637696  1.0000
  H   H54       1.0  0.8659809186652083  0.6356871927916073  0.35612000967447704  1.0000
  H   H55       1.0  0.21875954737120654  0.4740226318938525  0.5949849263326287  1.0000
  H   H56       1.0  0.7187536676380902  0.5949858161699596  0.47402188076735297  1.0000
  C   C1        1.0  0.035103763352729835  0.6737256062833694  0.5860748005134797  1.0000
  C   C2        1.0  0.5351063855932098  0.5860770271558452  0.6737278009708593  1.0000
  C   C3        1.0  0.11113397287429909  0.6047029943884966  0.608642562409756  1.0000
  C   C4        1.0  0.6111358428546227  0.6086442232230881  0.6047049028306333  1.0000
  C   C5        1.0  0.06285199725960677  0.5607326385116521  0.6748244628912378  1.0000
  C   C6        1.0  0.562851206144842  0.6748248481154776  0.5607346706095768  1.0000
  C   C7        1.0  0.9376221960485439  0.5873782853528554  0.7191428241477101  1.0000
  C   C8        1.0  0.4376236700202012  0.7191445840728294  0.5873795967086581  1.0000
  C   C9        1.0  0.8613363278874644  0.6565392504074126  0.6994552131563269  1.0000
  C   C10       1.0  0.3613373767692067  0.6994574182688424  0.656540223823697  1.0000
  C   C11       1.0  0.9101250577045337  0.6981060596226812  0.6320812696266601  1.0000
  C   C12       1.0  0.41012624926916896  0.6320846007551779  0.6981081895612749  1.0000
  C   C13       1.0  0.11223259336845363  0.8276341571462921  0.9426794231901997  1.0000
  C   C14       1.0  0.6122308542884625  0.9426795922387258  0.8276325342102526  1.0000
  C   C15       1.0  0.11503991888255168  0.7559555554924914  0.9734065076431055  1.0000
  C   C16       1.0  0.6150406286532686  0.9734075011356964  0.7559549524134255  1.0000
  C   C17       1.0  0.34068202243465595  0.7586824267253576  0.8867210256111593  1.0000
  C   C18       1.0  0.8406829174121031  0.886721223152918  0.7586826675970999  1.0000
  C   C19       1.0  0.6472125560402731  0.7519135493024153  0.7277984644528745  1.0000
  C   C20       1.0  0.14721245012628262  0.7278000416235031  0.7519124615239934  1.0000
  C   C21       1.0  0.5237970160315585  0.7770374183641309  0.7726900608644911  1.0000
  C   C22       1.0  0.023797760090566656  0.7726906730982108  0.7770366976126653  1.0000
  C   C23       1.0  0.733660838348342  0.6843781302149525  0.7481369891860368  1.0000
  C   C24       1.0  0.233660267686254  0.7481390551195802  0.6843778359270731  1.0000
  C   C25       1.0  0.47867700925735335  0.7355128004389898  0.840847439396292  1.0000
  C   C26       1.0  0.9786772767366543  0.8408485196400831  0.7355133975076883  1.0000
  C   C27       1.0  0.6936952122234176  0.6445569169635236  0.8176166848340859  1.0000
  C   C28       1.0  0.1936890868871827  0.8176194547661811  0.6445558496715905  1.0000
  C   C29       1.0  0.09218594429670904  0.7210805296532072  0.5176390183032851  1.0000
  C   C30       1.0  0.5921882599483012  0.5176412592026055  0.7210832767698678  1.0000
  C   C31       1.0  0.14611749327421114  0.48875340821377494  0.6989271108205416  1.0000
  C   C32       1.0  0.6461148728059386  0.6989283050227898  0.48875560255384454  1.0000
  C   C33       1.0  0.1972123860702979  0.6959901501504079  0.465551590755041  1.0000
  C   C34       1.0  0.697212750548104  0.46555269781210024  0.6959924841347419  1.0000
  C   C35       1.0  0.31646837758065516  0.35167794440678796  0.7462428508792557  1.0000
  C   C36       1.0  0.8164575947871452  0.7462453774202373  0.351678599005922  1.0000
  C   C37       1.0  0.41040155682291163  0.28309869688553135  0.7698691103271218  1.0000
  C   C38       1.0  0.9103940086398058  0.76987185968882  0.28309982742255363  1.0000
  C   C39       1.0  0.569446898888657  0.6691385940118765  0.8627329047197635  1.0000
  C   C40       1.0  0.06944353998450477  0.8627354282508082  0.6691388605118931  1.0000
  C   C41       1.0  0.6113007916040021  0.1867990049068098  0.7727210065275473  1.0000
  C   C42       1.0  0.11129597679825308  0.7727239588891025  0.18680224604729292  1.0000
  C   C43       1.0  0.5306529722983341  0.16733356719113604  0.8402081362535727  1.0000
  C   C44       1.0  0.030650903083142056  0.8402117167319575  0.16733597014390975  1.0000
  C   C45       1.0  0.5424201909249078  0.25197522784190346  0.732622877240367  1.0000
  C   C46       1.0  0.04241298306720155  0.7326255609393186  0.2519786369363928  1.0000
  C   C47       1.0  0.20608321119173925  0.8138319412976855  0.38701161553575514  1.0000
  C   C48       1.0  0.7060826594027604  0.387013769850519  0.8138355380307518  1.0000
  C   C49       1.0  0.23200312394375544  0.9566336504161016  0.21891914762797873  1.0000
  C   C50       1.0  0.7320047526992965  0.21891888148786628  0.9566339978206104  1.0000
  C   C51       1.0  0.2520436828116745  0.8617369147651314  0.318940055479736  1.0000
  C   C52       1.0  0.752043105178366  0.3189423295999276  0.8617391262828281  1.0000
  C   C53       1.0  0.16490821822385027  0.9257229932116432  0.2879957552391304  1.0000
  C   C54       1.0  0.6649063041413044  0.28799620571522405  0.9257238532023778  1.0000
  C   C55       1.0  0.3722605223582034  0.9169954021355767  0.19736715091681123  1.0000
  C   C56       1.0  0.8722570813691704  0.19736701308602284  0.9169947648233292  1.0000
  C   C57       1.0  0.24522638618644518  0.7168698474258476  0.9420522848563809  1.0000
  C   C58       1.0  0.7452278298440618  0.9420542217958217  0.7168688850926231  1.0000
  C   C59       1.0  0.2537632867443308  0.7409576230558699  0.40215837303681223  1.0000
  C   C60       1.0  0.7537617606081852  0.40215972299965586  0.7409617287546341  1.0000
  C   C61       1.0  0.04846673269841527  0.794231628043228  0.5027297053957654  1.0000
  C   C62       1.0  0.5484659759095648  0.5027327280125321  0.7942330911078134  1.0000
  C   C63       1.0  0.7742996259382621  0.07224127682455622  0.13469748781638913  1.0000
  C   C64       1.0  0.274297529114044  0.1346974533027137  0.07224115884023521  1.0000
  C   C65       1.0  0.8815636421447478  0.1027567875707263  0.22887189211834882  1.0000
  C   C66       1.0  0.3815618603080324  0.22887077568247352  0.10275792364632255  1.0000
  C   C67       1.0  0.6088390488883277  0.05423658041844701  0.24905771799996057  1.0000
  C   C68       1.0  0.1088393992391019  0.24905788203763995  0.054235790421806485  1.0000
  C   C69       1.0  0.10371087468296027  0.8393689993751682  0.4393493577008413  1.0000
  C   C70       1.0  0.6037070590898566  0.4393517325228301  0.8393716884137564  1.0000
  C   C71       1.0  0.47238216030677904  0.9322906620118587  0.12876592313180882  1.0000
  C   C72       1.0  0.9723798528832576  0.12876553926728462  0.9322896858299361  1.0000
  C   C73       1.0  0.15221443896423645  0.4555085055234543  0.7709577785296275  1.0000
  C   C74       1.0  0.6522153093554905  0.7709585512664888  0.4555115330523948  1.0000
  C   C75       1.0  0.2346210618430433  0.3887677996869244  0.7940703048509693  1.0000
  C   C76       1.0  0.7346129505282163  0.7940727094317737  0.3887693578181199  1.0000
  C   C77       1.0  0.3079648092002074  0.38422711502224866  0.6740977540356143  1.0000
  C   C78       1.0  0.8079503986075096  0.6741006802767444  0.3842265733372444  1.0000
  C   C79       1.0  0.22480960057063745  0.45097015105540805  0.6512128213632737  1.0000
  C   C80       1.0  0.7248004679088637  0.6512139062775475  0.4509708396629791  1.0000
  C   C81       1.0  0.5744365822547692  0.10403586758718572  0.8960555127476725  1.0000
  C   C82       1.0  0.07444137817594043  0.8960575883510845  0.10403842235715643  1.0000
  C   C83       1.0  0.997484191102167  0.8830857762841048  0.9643005419074131  1.0000
  C   C84       1.0  0.4974819166661888  0.9642993321698796  0.8830847026437001  1.0000
  S   S1        1.0  0.3696002815113104  0.2293700831345333  0.8534273244138862  1.0000
  S   S2        1.0  0.8695884655380652  0.8534314270389561  0.22937050797484906  1.0000
  S   S3        1.0  0.4213375643088071  0.8420448919348615  0.2625115141101375  1.0000
  S   S4        1.0  0.9213375021142339  0.2625135450395106  0.8420458310327777  1.0000
  S   S5        1.0  0.26859713506701155  0.8462948673490017  0.8749559648688108  1.0000
  S   S6        1.0  0.7685980506309992  0.8749573908906356  0.8462941518045356  1.0000
  N   N1        1.0  0.7552055468929738  0.0765571193686654  0.20165509792077072  1.0000
  N   N2        1.0  0.2552046271440743  0.20165491198681457  0.07655682803853382  1.0000
  O   O1        1.0  0.6649931575664638  0.053798102601028595  0.10783153576225152  1.0000
  O   O2        1.0  0.16499307942117272  0.10783197594648188  0.05379678908723661  1.0000
  O   O3        1.0  0.6112371887044361  0.8970183062447816  0.12005834127231205  1.0000
  O   O4        1.0  0.11123602407680985  0.12005911894632254  0.8970184974701426  1.0000
  O   O5        1.0  0.4172008914300137  0.9845111990540902  0.07943690134501212  1.0000
  O   O6        1.0  0.9171982738725932  0.0794362828744113  0.984509316699992  1.0000
  O   O7        1.0  0.4797669544438038  0.0895640409019265  0.9550147137419319  1.0000
  O   O8        1.0  0.9797757479673309  0.9550167443568185  0.08956538416225608  1.0000
  O   O9        1.0  0.7080633478848457  0.06556235378164389  0.8854450790807533  1.0000
  O   O10       1.0  0.20806920181314575  0.8854452475394228  0.06556470531033644  1.0000
  O   O11       1.0  0.028227730222305156  0.9481372296988938  0.9408723625106322  1.0000
  O   O12       1.0  0.5282250212522688  0.940870372720681  0.9481368419348615  1.0000
  O   O13       1.0  0.8683020300749572  0.8658262761098716  0.005836496402856849  1.0000
  O   O14       1.0  0.36829944652545527  0.005834919012102101  0.8658253026786868  1.0000
