data_image0
_chemical_formula_structural       Cd4H24C28S8N16
_chemical_formula_sum              "Cd4 H24 C28 S8 N16"
_cell_length_a       8.302198287575296
_cell_length_b       9.5488687400027
_cell_length_c       13.189124410950637
_cell_angle_alpha    90.00006911686613
_cell_angle_beta     94.43893651172282
_cell_angle_gamma    89.99994390931857

_space_group_name_H-M_alt    "P 1"
_space_group_IT_number       1

loop_
  _space_group_symop_operation_xyz
  'x, y, z'

loop_
  _atom_site_type_symbol
  _atom_site_label
  _atom_site_symmetry_multiplicity
  _atom_site_fract_x
  _atom_site_fract_y
  _atom_site_fract_z
  _atom_site_occupancy
  Cd  Cd1       1.0  0.1472435555584397  0.7883962560056617  0.37429813882706486  1.0000
  Cd  Cd2       1.0  0.3527572566224678  0.2883964203799323  0.1257021921216079  1.0000
  Cd  Cd3       1.0  0.8527562453300775  0.21160532680040228  0.6257026871112074  1.0000
  Cd  Cd4       1.0  0.6472449585618065  0.7116051624239433  0.8742972338135784  1.0000
  H   H1        1.0  0.1543498367099403  0.573598200550862  0.5754971152532987  1.0000
  H   H2        1.0  0.3456516592840019  0.07359677157263893  0.924503051947404  1.0000
  H   H3        1.0  0.845648755079438  0.4264023350105645  0.4245028941906027  1.0000
  H   H4        1.0  0.6543493487534634  0.9264027167433893  0.07549707398845837  1.0000
  H   H5        1.0  0.6518654103161197  0.8295383246883149  0.6600766290319982  1.0000
  H   H6        1.0  0.8481368797214728  0.32953989518731663  0.8399226895672098  1.0000
  H   H7        1.0  0.3481343886216807  0.17046116362755012  0.33992268040992  1.0000
  H   H8        1.0  0.15186533546279438  0.6704616876165589  0.1600767363679765  1.0000
  H   H9        1.0  0.48505251716214576  0.8710866354481507  0.49436489490780383  1.0000
  H   H10       1.0  0.014950625447539804  0.37108898241308447  0.0056348627728084  1.0000
  H   H11       1.0  0.5149472827515496  0.12891285286833923  0.505635172781865  1.0000
  H   H12       1.0  0.9850540059837416  0.6289136476343344  0.9943646796552058  1.0000
  H   H13       1.0  0.4142359920015012  0.44993336746776424  0.8024587667564587  1.0000
  H   H14       1.0  0.08576270357036721  0.9499319152149397  0.6975431121381418  1.0000
  H   H15       1.0  0.5857650160354312  0.5500671680927312  0.19754135917983714  1.0000
  H   H16       1.0  0.9142346820475711  0.050067573103738994  0.3024583555546059  1.0000
  H   H17       1.0  0.23557760308163722  0.4155554821774459  0.7216835024436248  1.0000
  H   H18       1.0  0.2644211258118291  0.9155519174628356  0.7783168314819379  1.0000
  H   H19       1.0  0.7644234049552949  0.5844450533830495  0.2783166234926711  1.0000
  H   H20       1.0  0.7355750507075174  0.08444547636673148  0.2216838197160058  1.0000
  H   H21       1.0  0.23494831560500273  0.5478152071756882  0.8166201325507102  1.0000
  H   H22       1.0  0.2650495824726634  0.04781135266833301  0.6833798385562273  1.0000
  H   H23       1.0  0.7650514843086924  0.45218428114080206  0.18337993513895154  1.0000
  H   H24       1.0  0.7349490112701178  0.9521860411609355  0.3166216873818469  1.0000
  C   C1        1.0  0.14734612670297054  0.1182583202294367  0.4771921402911871  1.0000
  C   C2        1.0  0.35265365094272033  0.6182584461530852  0.0228072332507523  1.0000
  C   C3        1.0  0.8526524650858749  0.8817432625764642  0.5228078691531408  1.0000
  C   C4        1.0  0.6473485642415541  0.3817431366507904  0.9771921926844341  1.0000
  C   C5        1.0  0.11616281500701582  0.44828889542972666  0.2896385530576069  1.0000
  C   C6        1.0  0.3838354158977354  0.948289305623639  0.21036103557837996  1.0000
  C   C7        1.0  0.8838369849066795  0.5517105928867637  0.710361514632055  1.0000
  C   C8        1.0  0.6161631739404071  0.051710182692062304  0.7896374573696006  1.0000
  C   C9        1.0  0.2665689297789271  0.6302321028936575  0.5950873289780176  1.0000
  C   C10       1.0  0.2334312990074281  0.13023178405619257  0.9049120686349067  1.0000
  C   C11       1.0  0.7334296620104511  0.36976843266776876  0.40491268046587686  1.0000
  C   C12       1.0  0.7665697100053919  0.869768751504935  0.0950888155491256  1.0000
  C   C13       1.0  0.358825368073056  0.6041515636776612  0.6871922937646032  1.0000
  C   C14       1.0  0.14117488942473952  0.10415012337705322  0.8128085987427551  1.0000
  C   C15       1.0  0.6411744328165269  0.3958479246394618  0.3128085321728021  1.0000
  C   C16       1.0  0.8588249114653834  0.8958483176955954  0.1871922271942168  1.0000
  C   C17       1.0  0.5402163011676961  0.7723703280617116  0.641257690081083  1.0000
  C   C18       1.0  0.9597860485006322  0.2723728821157323  0.8587423394182208  1.0000
  C   C19       1.0  0.45978349777064403  0.2276281130096792  0.3587416193604085  1.0000
  C   C20       1.0  0.0402161676595298  0.7276287006887685  0.1412578447647022  1.0000
  C   C21       1.0  0.44838673488880704  0.7960139302645715  0.5504250939699985  1.0000
  C   C22       1.0  0.051613323801902304  0.2960148871716655  0.949574440948389  1.0000
  C   C23       1.0  0.5516130650243555  0.203986605296393  0.4495749737200966  1.0000
  C   C24       1.0  0.9483876842339499  0.7039877428777787  0.050425684988773894  1.0000
  C   C25       1.0  0.30861727866336963  0.4975955684048332  0.7610117213956541  1.0000
  C   C26       1.0  0.191380158907144  0.9975930478352881  0.7389893804796726  1.0000
  C   C27       1.0  0.6913825212503257  0.5024039199116573  0.2389883462940077  1.0000
  C   C28       1.0  0.8086172267118598  0.0024043459944493996  0.2610120872122081  1.0000
  S   S1        1.0  0.1298243787760214  0.26655028827688204  0.5362233117808799  1.0000
  S   S2        1.0  0.3701757101454818  0.7665500827306034  0.9637761987344502  1.0000
  S   S3        1.0  0.8701742139887187  0.7334512945296437  0.46377745591119174  1.0000
  S   S4        1.0  0.6298265040623579  0.23345254731712123  0.0362224689534258  1.0000
  S   S5        1.0  0.0750755359181738  0.30656107484435324  0.22362071405462558  1.0000
  S   S6        1.0  0.4249228404017131  0.8065615595131136  0.2763787571986285  1.0000
  S   S7        1.0  0.9249254721198313  0.693437366227208  0.7763794118808036  1.0000
  S   S8        1.0  0.5750745422885404  0.1934379288036823  0.7236204357508882  1.0000
  N   N1        1.0  0.16524247000750591  0.012867780798160304  0.4323354127936483  1.0000
  N   N2        1.0  0.33475620667098144  0.5128679962540305  0.06766305696713457  1.0000
  N   N3        1.0  0.8347561208054516  0.9871338020071079  0.567663838402943  1.0000
  N   N4        1.0  0.6652448003895161  0.48713358655031397  0.932336310721851  1.0000
  N   N5        1.0  0.14258852393596305  0.5502570249506816  0.3391478487114838  1.0000
  N   N6        1.0  0.35741011633229647  0.05025724361236429  0.16085216851155335  1.0000
  N   N7        1.0  0.8574076516064154  0.4497424633672011  0.6608520442395827  1.0000
  N   N8        1.0  0.6425896816296159  0.9497422447028756  0.839146382682621  1.0000
  N   N9        1.0  0.49465582173721867  0.6791876382164046  0.7096419847060956  1.0000
  N   N10       1.0  0.005344356819918501  0.17918732338085872  0.7903574534531186  1.0000
  N   N11       1.0  0.5053451853243517  0.32081185009899127  0.2903573829820231  1.0000
  N   N12       1.0  0.9946554430937768  0.8208121649356317  0.20964261423654304  1.0000
  N   N13       1.0  0.31018557879423986  0.7259271345573738  0.528519226829772  1.0000
  N   N14       1.0  0.18981575895464434  0.22592801032598694  0.9714795500392909  1.0000
  N   N15       1.0  0.6898142211194555  0.2740723537591165  0.4714808408598898  1.0000
  N   N16       1.0  0.8101852481058601  0.7740735724783577  0.02851981764970189  1.0000
