data_image0
_chemical_formula_structural       Cu8H20C24N20
_chemical_formula_sum              "Cu8 H20 C24 N20"
_cell_length_a       7.135269461826916
_cell_length_b       7.673157934354548
_cell_length_c       14.751190771077992
_cell_angle_alpha    90.0001603596414
_cell_angle_beta     90.00033485510286
_cell_angle_gamma    91.62199146835454

_space_group_name_H-M_alt    "P 1"
_space_group_IT_number       1

loop_
  _space_group_symop_operation_xyz
  'x, y, z'

loop_
  _atom_site_type_symbol
  _atom_site_label
  _atom_site_symmetry_multiplicity
  _atom_site_fract_x
  _atom_site_fract_y
  _atom_site_fract_z
  _atom_site_occupancy
  Cu  Cu1       1.0  0.031883670826978495  0.8960306255902921  0.44032926356410945  1.0000
  Cu  Cu2       1.0  0.9681154532277674  0.6039626288285264  0.9403279508652034  1.0000
  Cu  Cu3       1.0  0.9681144341166997  0.10395931547652282  0.5596694779507134  1.0000
  Cu  Cu4       1.0  0.031885630753819796  0.39603251910550347  0.05967146856923481  1.0000
  Cu  Cu5       1.0  0.5262258063019231  0.5933096815019921  0.5645976551484824  1.0000
  Cu  Cu6       1.0  0.4737729771137395  0.9066841690357065  0.064598191037085  1.0000
  Cu  Cu7       1.0  0.4737708532087836  0.406678959894279  0.4354017642746727  1.0000
  Cu  Cu8       1.0  0.5262296845483191  0.0933161898535673  0.9354019063150079  1.0000
  H   H1        1.0  0.33070202895239476  0.0447175754846683  0.20354203313347347  1.0000
  H   H2        1.0  0.6692973598142656  0.45528546284648297  0.7035411076274514  1.0000
  H   H3        1.0  0.6692965608764753  0.9552867069497565  0.7964580642159549  1.0000
  H   H4        1.0  0.3307039445658829  0.5447162038893721  0.29645831181237986  1.0000
  H   H5        1.0  0.34986669907684126  0.06527516426360339  0.32123426965956975  1.0000
  H   H6        1.0  0.650136899508837  0.4347271883339018  0.8212339362111792  1.0000
  H   H7        1.0  0.6501331158073427  0.9347238990485637  0.6787685393330066  1.0000
  H   H8        1.0  0.3498644489635653  0.565275782167724  0.17876751696384477  1.0000
  H   H9        1.0  0.631335670086983  0.9761673406167402  0.4020647819412773  1.0000
  H   H10       1.0  0.36866482431548053  0.523838743727552  0.9020643733402026  1.0000
  H   H11       1.0  0.36866401254552267  0.023827811408921203  0.5979359933139463  1.0000
  H   H12       1.0  0.6313339859119439  0.4761720575086911  0.09793572401462573  1.0000
  H   H13       1.0  0.0762624508824103  0.8080745914482321  0.24438304213179415  1.0000
  H   H14       1.0  0.9237374565463624  0.6919293460805067  0.7443844537247203  1.0000
  H   H15       1.0  0.9237361830136307  0.1919309947411421  0.7556150214845944  1.0000
  H   H16       1.0  0.07626529326257979  0.30807362032408037  0.2556136098954056  1.0000
  H   H17       1.0  0.8748391321478833  0.8239834201401735  0.10484018645392011  1.0000
  H   H18       1.0  0.12516190147759687  0.6760210705148423  0.6048427213255607  1.0000
  H   H19       1.0  0.12516239262247097  0.1760247653938976  0.8951578771685577  1.0000
  H   H20       1.0  0.8748422056216184  0.3239805880467728  0.3951573760295731  1.0000
  C   C1        1.0  0.8388902218291604  0.872719309555322  0.544439939257636  1.0000
  C   C2        1.0  0.16111947984104094  0.6272730972763013  0.0444445850135295  1.0000
  C   C3        1.0  0.16111637943530605  0.1272732145113125  0.4555615139166207  1.0000
  C   C4        1.0  0.8388925946266  0.3727154991625737  0.9555589018994655  1.0000
  C   C5        1.0  0.3395845907909986  0.6261642295998441  0.4573708210298123  1.0000
  C   C6        1.0  0.6604220146247072  0.8738369175997108  0.9573643202631388  1.0000
  C   C7        1.0  0.6604193400269834  0.37383221393654514  0.5426353775233679  1.0000
  C   C8        1.0  0.3395824009781593  0.1261738672610093  0.0426269642516885  1.0000
  C   C9        1.0  0.5726618505272468  0.9557927363735743  0.2570404593434716  1.0000
  C   C10       1.0  0.427338433359786  0.5442177872985707  0.7570402472144835  1.0000
  C   C11       1.0  0.42733818474713564  0.044212845736801405  0.7429609938317514  1.0000
  C   C12       1.0  0.5726630473433898  0.4557890944805365  0.2429598501410339  1.0000
  C   C13       1.0  0.6862279871280348  0.942725265607784  0.33544919384230104  1.0000
  C   C14       1.0  0.3137758458889833  0.5572791482778713  0.8354507170710762  1.0000
  C   C15       1.0  0.3137718277394227  0.0572737976971638  0.6645509035047823  1.0000
  C   C16       1.0  0.6862284816129643  0.4427290290873742  0.16455005820082394  1.0000
  C   C17       1.0  0.9315268059706766  0.8486627350565711  0.2479378854975494  1.0000
  C   C18       1.0  0.06847283672973958  0.6513320950626139  0.7479388669279956  1.0000
  C   C19       1.0  0.0684730970478498  0.1513389357654944  0.7520608560289403  1.0000
  C   C20       1.0  0.9315298690036754  0.3486695675834143  0.2520598746024234  1.0000
  C   C21       1.0  0.8207153335437738  0.8586423891461265  0.1713574794313502  1.0000
  C   C22       1.0  0.1792837616209155  0.6413637673600974  0.6713594342425537  1.0000
  C   C23       1.0  0.1792833444319797  0.1413645008036184  0.8286405841861255  1.0000
  C   C24       1.0  0.8207160973220837  0.3586365997034092  0.3286399851942292  1.0000
  N   N1        1.0  0.7112242683156963  0.7788401771519203  0.5650895452256393  1.0000
  N   N2        1.0  0.288758621334722  0.721139379597801  0.06508656077291161  1.0000
  N   N3        1.0  0.288766609467288  0.2211432655639811  0.4349132637422102  1.0000
  N   N4        1.0  0.7112222705813521  0.27883887667294965  0.93490879115177  1.0000
  N   N5        1.0  0.2164095460928195  0.7211232605253458  0.4406310566745476  1.0000
  N   N6        1.0  0.7835896698535764  0.7788726030247021  0.9406315326136864  1.0000
  N   N7        1.0  0.7835900483844397  0.27886928398139327  0.5593703964898893  1.0000
  N   N8        1.0  0.21640160464681904  0.22112257353447973  0.059371276363869206  1.0000
  N   N9        1.0  0.6415036973841736  0.9101381224240868  0.1746688651477584  1.0000
  N   N10       1.0  0.3584968840381109  0.589869351368982  0.6746692089166687  1.0000
  N   N11       1.0  0.3584977392476532  0.0898674555982666  0.8253325880294327  1.0000
  N   N12       1.0  0.6415031071565592  0.41013492698102993  0.3253322442574813  1.0000
  N   N13       1.0  0.8623216301033239  0.8904106545218297  0.33061182460907906  1.0000
  N   N14       1.0  0.13768205511807  0.6095911261093789  0.8306149689100126  1.0000
  N   N15       1.0  0.13767678339834077  0.1095884128675308  0.6693869169132896  1.0000
  N   N16       1.0  0.8623206947075913  0.390411840302427  0.1693858063556064  1.0000
  N   N17       1.0  0.3948962481136036  0.010512003823429  0.2623705676487802  1.0000
  N   N18       1.0  0.6051026850750388  0.4894978704078595  0.7623708711446897  1.0000
  N   N19       1.0  0.605102297639739  0.9894909748524298  0.7376302076109482  1.0000
  N   N20       1.0  0.3948988837917397  0.5105116188937799  0.2376299041243612  1.0000
