data_image0
_chemical_formula_structural       Cd2H12C16N16O4
_chemical_formula_sum              "Cd2 H12 C16 N16 O4"
_cell_length_a       7.716067010956543
_cell_length_b       7.8314866192041315
_cell_length_c       11.584289528422822
_cell_angle_alpha    105.91051453435789
_cell_angle_beta     109.42990345269267
_cell_angle_gamma    90.03151181313571

_space_group_name_H-M_alt    "P 1"
_space_group_IT_number       1

loop_
  _space_group_symop_operation_xyz
  'x, y, z'

loop_
  _atom_site_type_symbol
  _atom_site_label
  _atom_site_symmetry_multiplicity
  _atom_site_fract_x
  _atom_site_fract_y
  _atom_site_fract_z
  _atom_site_occupancy
  Cd  Cd1       1.0  0.50000250704543  0.9999997105809655  0.500000836113891  1.0000
  Cd  Cd2       1.0  5.291501779008343e-07  9.94808353000385e-07  0.4999990849817665  1.0000
  H   H1        1.0  0.632095749848702  0.5723174942843486  0.7243623049641528  1.0000
  H   H2        1.0  0.9082501488018623  0.4269833966871133  0.2755144282735032  1.0000
  H   H3        1.0  0.3679051244734525  0.4276837789514474  0.27563528395947406  1.0000
  H   H4        1.0  0.09175074260556221  0.573017899348727  0.72448575831708  1.0000
  H   H5        1.0  0.7611136741378105  0.7071186942817604  0.9614211955038103  1.0000
  H   H6        1.0  0.7999551794312227  0.29213219896873  0.0384345644949705  1.0000
  H   H7        1.0  0.23888859183071537  0.2928826047232604  0.038579293115347524  1.0000
  H   H8        1.0  0.20004557533012252  0.7078677624840708  0.9615653493920463  1.0000
  H   H9        1.0  0.15605927489655616  0.41829840086522563  0.5474572434505873  1.0000
  H   H10       1.0  0.609170761434001  0.5818775074399839  0.45253325314665466  1.0000
  H   H11       1.0  0.8439375042177345  0.581702901463089  0.4525437688322426  1.0000
  H   H12       1.0  0.3908244893878461  0.4181224345360448  0.5474645867370641  1.0000
  C   C1        1.0  0.543650690208601  0.6022675624547134  0.781858919722204  1.0000
  C   C2        1.0  0.7622856752099096  0.39730309909343486  0.21806410800894582  1.0000
  C   C3        1.0  0.4563458042233535  0.39773105550747795  0.2181398153755083  1.0000
  C   C4        1.0  0.23771370499032682  0.6026968593901715  0.7819355038494963  1.0000
  C   C5        1.0  0.6125470546324081  0.6772212708223792  0.912694185423746  1.0000
  C   C6        1.0  0.7002124405077839  0.3223243472062692  0.08723085195786252  1.0000
  C   C7        1.0  0.38745095670181934  0.32277869229205436  0.08730599029510695  1.0000
  C   C8        1.0  0.29978693969245285  0.6776756112773441  0.9127687599005797  1.0000
  C   C9        1.0  0.49052038683409904  0.7149947593616801  0.9813613306877472  1.0000
  C   C10       1.0  0.5094776188050433  0.28500519615273834  0.018637979142113206  1.0000
  C   C11       1.0  0.5596585708769481  0.7875142903808481  0.11951649812257874  1.0000
  C   C12       1.0  0.4403420415432322  0.21248432888888397  0.8804822771718791  1.0000
  C   C13       1.0  0.2886258629042615  0.4978964263532006  0.5776821551171097  1.0000
  C   C14       1.0  0.7113732440038235  0.5021008629643191  0.42231691133418536  1.0000
  C   C15       1.0  0.262691078987956  0.6612185695076321  0.5251846307468783  1.0000
  C   C16       1.0  0.737305569175348  0.33878140583765054  0.47481697472137097  1.0000
  N   N1        1.0  0.3588957643611296  0.5652579702142547  0.7183260986613222  1.0000
  N   N2        1.0  0.641102246973098  0.43474199290018584  0.2816740770575237  1.0000
  N   N3        1.0  0.45055864307085625  0.8231744610034609  0.19203389500826523  1.0000
  N   N4        1.0  0.2586982022352373  0.17705231702611712  0.8080974714428137  1.0000
  N   N5        1.0  0.5494436115074919  0.17682682280153728  0.8079648618329218  1.0000
  N   N6        1.0  0.7413035171489782  0.8229436436467309  0.19190192636206396  1.0000
  N   N7        1.0  0.5681181956363589  0.8814538677267691  0.31069043929795015  1.0000
  N   N8        1.0  0.25742016427050635  0.11867818711431254  0.68938876069155  1.0000
  N   N9        1.0  0.43188392799100234  0.1185460890951973  0.6893089107286556  1.0000
  N   N10       1.0  0.7425803115035947  0.8813190975723799  0.31060974189934143  1.0000
  N   N11       1.0  0.19641294747206223  0.045415797705999204  0.3928208147431178  1.0000
  N   N12       1.0  0.8035923409108322  0.9545881764034901  0.6071808233403432  1.0000
  N   N13       1.0  0.15944554872666566  0.13323234930548009  0.318732931254587  1.0000
  N   N14       1.0  0.8405580804127907  0.8667689374687059  0.6812661276151816  1.0000
  N   N15       1.0  0.12368806685787348  0.21829009681560763  0.24705281409983834  1.0000
  N   N16       1.0  0.8763151694286081  0.7817072090094899  0.7529480243261804  1.0000
  O   O1        1.0  0.40210034283507673  0.720780169238502  0.5083862771467552  1.0000
  O   O2        1.0  0.8933438447460134  0.27912113808419287  0.49184479206285664  1.0000
  O   O3        1.0  0.597904026485651  0.279227866451059  0.4916228041307278  1.0000
  O   O4        1.0  0.10665112139349023  0.7208761195257197  0.5081507706357514  1.0000
