data_image0
_chemical_formula_structural       Zn4H58C48N26O12
_chemical_formula_sum              "Zn4 H58 C48 N26 O12"
_cell_length_a       14.888060278333615
_cell_length_b       15.069748862447645
_cell_length_c       15.059246525619209
_cell_angle_alpha    119.81826679543657
_cell_angle_beta     100.44183610560407
_cell_angle_gamma    107.60051864209834

_space_group_name_H-M_alt    "P 1"
_space_group_IT_number       1

loop_
  _space_group_symop_operation_xyz
  'x, y, z'

loop_
  _atom_site_type_symbol
  _atom_site_label
  _atom_site_symmetry_multiplicity
  _atom_site_fract_x
  _atom_site_fract_y
  _atom_site_fract_z
  _atom_site_occupancy
  Zn  Zn1       1.0  0.11530282789306776  0.48389532985245154  0.6000079047740601  1.0000
  Zn  Zn2       1.0  0.8668054939114002  0.5045615766885091  0.39526418866606156  1.0000
  Zn  Zn3       1.0  0.9910441651064733  0.3546120242461015  0.33280562693950344  1.0000
  Zn  Zn4       1.0  0.0035821015272432693  0.6521719917503717  0.6656411062064012  1.0000
  H   H1        1.0  0.3206275032388035  0.6817737840676372  0.6527968045601258  1.0000
  H   H2        1.0  0.9025662776213397  0.24685817957568182  0.9024894976069507  1.0000
  H   H3        1.0  0.741620830686671  0.16497660333605782  0.8885125441857089  1.0000
  H   H4        1.0  0.4781624321268936  0.7462227703426833  0.03486004884043581  1.0000
  H   H5        1.0  0.08192594247590536  0.4966968661514387  0.8341001505654693  1.0000
  H   H6        1.0  0.022843282752724275  0.2854217033966933  0.1262443992395888  1.0000
  H   H7        1.0  0.7534355681439995  0.09913712594237724  0.10396949987295309  1.0000
  H   H8        1.0  0.20669188304908212  0.9459237264316158  0.9801667033779188  1.0000
  H   H9        1.0  0.6025199443057051  0.9672611336502259  0.03937724254893754  1.0000
  H   H10       1.0  0.8113261945482793  0.5649816335384586  0.6733121003897868  1.0000
  H   H11       1.0  0.21737021430588055  0.9663425810794737  0.7322242202596532  1.0000
  H   H12       1.0  0.8195007796093635  0.828615321962836  0.8068669612055505  1.0000
  H   H13       1.0  0.9954369642227974  0.6656603748353547  0.3433847154463126  1.0000
  H   H14       1.0  0.678491772848581  0.5798468389268621  0.40333939602964375  1.0000
  H   H15       1.0  0.6118531401100215  0.9563764032880754  0.16867876149304822  1.0000
  H   H16       1.0  0.0348706524823257  0.430084637364331  0.0001581088011093015  1.0000
  H   H17       1.0  0.1788429851238931  0.28707399812947193  0.5885190388354079  1.0000
  H   H18       1.0  0.19159170848140422  0.11233657989507861  0.5401836862391891  1.0000
  H   H19       1.0  0.47943342122024285  0.7291076154358223  0.6324942287697158  1.0000
  H   H20       1.0  0.05753495244868398  0.8489565551372992  0.35901189328682664  1.0000
  H   H21       1.0  0.5711253047329735  0.6866577418404489  0.45427220225803244  1.0000
  H   H22       1.0  0.03497455274772676  0.9659434440093762  0.2963358409983316  1.0000
  H   H23       1.0  0.385968254058227  0.6398300414663325  0.3866162200070636  1.0000
  H   H24       1.0  0.2067592430860685  0.9976509177247834  0.605566588355032  1.0000
  H   H25       1.0  0.6525898174556702  0.7602519330936275  0.6956075988148813  1.0000
  H   H26       1.0  0.7856420167173328  0.47751425832483824  0.15351491471128056  1.0000
  H   H27       1.0  0.6589698039561042  0.33489031864267105  0.37361609288826997  1.0000
  H   H28       1.0  0.33432731697821794  0.6667176010866598  0.8307825746020474  1.0000
  H   H29       1.0  0.991258073385005  0.31671265617838884  0.6490590041066898  1.0000
  H   H30       1.0  0.17064400292641577  0.508509981955214  0.2960544211195641  1.0000
  H   H31       1.0  0.9968352917684772  0.10565601243629888  0.237139086190176  1.0000
  H   H32       1.0  0.3406543035342154  0.9932664420613906  0.14400990023278873  1.0000
  H   H33       1.0  0.4598925523904073  0.8689164596676449  0.8924139019602966  1.0000
  H   H34       1.0  0.8056953353443038  0.5026595448895749  0.8466358177158855  1.0000
  H   H35       1.0  0.34743221678066066  0.03319907413236929  0.980213908983757  1.0000
  H   H36       1.0  0.6862031834139587  0.3521561197542126  0.6925408544555226  1.0000
  H   H37       1.0  0.4378643829489449  0.19342087462337787  0.12387510347869583  1.0000
  H   H38       1.0  0.6873252343637194  0.2942545195768531  0.8872551881760915  1.0000
  H   H39       1.0  0.9454612611457592  0.2807273185921986  0.7854126106395046  1.0000
  H   H40       1.0  0.4305672822430111  0.1965159297326977  0.2963856295638296  1.0000
  H   H41       1.0  0.4872789705076387  0.12702726679409443  0.32080145488127  1.0000
  H   H42       1.0  0.7699937733924571  0.5704224730608729  0.02902228279757681  1.0000
  H   H43       1.0  0.8825521479638567  0.6092462078931503  0.019883606584173267  1.0000
  H   H44       1.0  0.3118483153764515  0.7675609639941355  0.06567540410027561  1.0000
  H   H45       1.0  0.3887882608034019  0.8824044413985918  0.1979777308341896  1.0000
  H   H46       1.0  0.00510740680595491  0.6233545922446169  0.8927478029943291  1.0000
  H   H47       1.0  0.06342981658976755  0.667040990902983  0.023316757618104613  1.0000
  H   H48       1.0  0.6187330589218408  0.09063517522303502  0.3530281767810239  1.0000
  H   H49       1.0  0.5539185509858772  0.9551486962586684  0.303561416771665  1.0000
  H   H50       1.0  0.9934402341096774  0.6149386446657205  0.14157983240522046  1.0000
  H   H51       1.0  0.08062560919586308  0.578008727704905  0.1733450322565917  1.0000
  H   H52       1.0  0.47061615938574164  0.06088220978344339  0.9191239984030165  1.0000
  H   H53       1.0  0.3659794661488577  0.9343645205605141  0.8295062596565903  1.0000
  H   H54       1.0  0.7938185007263103  0.10798616660412111  0.644835030150887  1.0000
  H   H55       1.0  0.7265287047216306  0.18154552988688977  0.6524457607944785  1.0000
  H   H56       1.0  0.621651391399233  0.0752305563689575  0.9540143594190629  1.0000
  H   H57       1.0  0.6368569182562639  0.185411005623024  0.07597522718112515  1.0000
  H   H58       1.0  0.7146208095309703  0.12543656700421485  0.7591278000310739  1.0000
  C   C1        1.0  0.2692351682828545  0.6304950224535661  0.5654912627675306  1.0000
  C   C2        1.0  0.6803549193045626  0.18427931966130734  0.2557740360872388  1.0000
  C   C3        1.0  0.8790682926612021  0.39454714289281156  0.0775891171513124  1.0000
  C   C4        1.0  0.2882998427225446  0.8051953740732145  0.9204581980937265  1.0000
  C   C5        1.0  0.8977591700655554  0.40787168506689386  0.7121415261770353  1.0000
  C   C6        1.0  0.3804775090642566  0.013560925918753198  0.09687836281400314  1.0000
  C   C7        1.0  0.7969441991976255  0.42170758640800443  0.8334010432205265  1.0000
  C   C8        1.0  0.13595891808555652  0.2596828843525217  0.5054873433263085  1.0000
  C   C9        1.0  0.48897980229814664  0.12240282878389762  0.18327945264442755  1.0000
  C   C10       1.0  0.8011643306308047  0.43783861044154554  0.9468500603634243  1.0000
  C   C11       1.0  0.44786990370518964  0.8748511342047182  0.08284917989085035  1.0000
  C   C12       1.0  0.9898736917591365  0.4949534010779431  0.9123325389388487  1.0000
  C   C13       1.0  0.4589666363424173  0.9454270447406826  0.9598001618855183  1.0000
  C   C14       1.0  0.8707023866080448  0.28062385953083435  0.7795441859591252  1.0000
  C   C15       1.0  0.39020566570837906  0.9068711193648227  0.012645159642296781  1.0000
  C   C16       1.0  0.8856682615635096  0.39850942354638613  0.8046048467056726  1.0000
  C   C17       1.0  0.5749677376240926  0.0843516374401148  0.17272983916199547  1.0000
  C   C18       1.0  0.8784458786349137  0.39715942673842625  0.9790032011671957  1.0000
  C   C19       1.0  0.5515312143388442  0.983000903685813  0.1833780455387741  1.0000
  C   C20       1.0  0.9903140643839949  0.47763367413484303  0.0059242502462952245  1.0000
  C   C21       1.0  0.0331527343284606  0.7025780764907664  0.4311066562072911  1.0000
  C   C22       1.0  0.7343259900848622  0.623712415901295  0.4872251420618669  1.0000
  C   C23       1.0  0.5705386043596408  0.0271409169056156  0.05015194297517674  1.0000
  C   C24       1.0  0.11013473804612768  0.8150733626564916  0.5200092268378287  1.0000
  C   C25       1.0  0.849976756348724  0.27516426395978033  0.8760193287559377  1.0000
  C   C26       1.0  0.14993920880965564  0.917517623472385  0.524401485440528  1.0000
  C   C27       1.0  0.6537898820258975  0.732258032222667  0.6133105455142104  1.0000
  C   C28       1.0  0.11476483004241805  0.9267986631946743  0.4409321045718787  1.0000
  C   C29       1.0  0.571914570965234  0.7139043515136693  0.536890475029445  1.0000
  C   C30       1.0  0.7334622683729889  0.7008743258523252  0.5907040147379662  1.0000
  C   C31       1.0  0.0877488163098405  0.04442924741614009  0.3798571634953093  1.0000
  C   C32       1.0  0.3871627393090621  0.6625391848041461  0.4682318697521384  1.0000
  C   C33       1.0  0.13740419690287814  0.034123911570297594  0.45681348001622285  1.0000
  C   C34       1.0  0.47879162534830055  0.709262700744333  0.5517187755170885  1.0000
  C   C35       1.0  0.9357075655208293  0.355628452306476  0.12154481992715929  1.0000
  C   C36       1.0  0.7756381387639165  0.1884063300853214  0.2523919218250868  1.0000
  C   C37       1.0  0.18785846989016625  0.794032760378336  0.8849409183256333  1.0000
  C   C38       1.0  0.8761989889817416  0.4772178775612446  0.6835348632593965  1.0000
  C   C39       1.0  0.8350490283374016  0.43760204790216045  0.1544044689179671  1.0000
  C   C40       1.0  0.7084637323146056  0.297963004616463  0.34379148579628804  1.0000
  C   C41       1.0  0.2766954539343232  0.6969956077156211  0.8363496425351404  1.0000
  C   C42       1.0  0.9598687000237548  0.3749251683486959  0.6551282600775397  1.0000
  C   C43       1.0  0.12629120070817387  0.8092489022421676  0.6120126750082524  1.0000
  C   C44       1.0  0.8226457256098741  0.7245308091667158  0.6683340977066413  1.0000
  C   C45       1.0  0.19199227791984438  0.541398115268997  0.383404331992054  1.0000
  C   C46       1.0  0.043309787333761604  0.1673692218438134  0.3263550777344977  1.0000
  C   C47       1.0  0.2888089079605437  0.6217884144887905  0.47397165075950226  1.0000
  C   C48       1.0  0.09175227658440833  0.15061795666039052  0.4021302329337362  1.0000
  N   N1        1.0  0.17028551454867372  0.5589290844967608  0.5303682196554436  1.0000
  N   N2        1.0  0.8529047881404568  0.2936259554165517  0.3343702989988559  1.0000
  N   N3        1.0  0.9259211248800342  0.3724839941167488  0.2145627689838037  1.0000
  N   N4        1.0  0.1244256852215173  0.6892372795395261  0.7883572716675791  1.0000
  N   N5        1.0  0.9264081615013141  0.49043324523512405  0.6213998961567315  1.0000
  N   N6        1.0  0.8621802319147778  0.42421981393326297  0.23581051592607605  1.0000
  N   N7        1.0  0.8115985859371619  0.3626788591420721  0.38990785949906864  1.0000
  N   N8        1.0  0.1159067574166244  0.3341542904015782  0.4916954982998052  1.0000
  N   N9        1.0  0.1799210319525956  0.6279949353062265  0.7589932566880013  1.0000
  N   N10       1.0  0.9773001878799619  0.4249987273551383  0.6022451678904591  1.0000
  N   N11       1.0  0.06345481887817067  0.7047509296407951  0.5814228367807105  1.0000
  N   N12       1.0  0.8709175871832215  0.6657598122668488  0.6165195050678708  1.0000
  N   N13       1.0  0.12270058071174364  0.503663286323267  0.4187338261188745  1.0000
  N   N14       1.0  0.05839246253211169  0.27682466043157916  0.37998597971357395  1.0000
  N   N15       1.0  0.49281274817783344  0.18083547823859195  0.2969155379247753  1.0000
  N   N16       1.0  0.8347886460182397  0.559464002608408  0.03641013472844902  1.0000
  N   N17       1.0  0.38618175577774155  0.8224971436140579  0.12300910124237432  1.0000
  N   N18       1.0  0.9990273355280909  0.6075846238023814  0.9505635561007186  1.0000
  N   N19       1.0  0.5519536431138337  0.016613545203703898  0.29316488549702785  1.0000
  N   N20       1.0  0.04554575438118042  0.5881014335519553  0.11680166842027276  1.0000
  N   N21       1.0  0.414282614357653  0.9956647733125338  0.9118008655933572  1.0000
  N   N22       1.0  0.797514349953396  0.18484761916241152  0.6655650400128369  1.0000
  N   N23       1.0  0.6391488906611259  0.1084331473263589  0.03631259003731911  1.0000
  N   N24       1.0  0.0063823375430728715  0.6385466826449787  0.46858574842092104  1.0000
  N   N25       1.0  0.7423024766446107  0.19451907302995147  0.8404934130847724  1.0000
  N   N26       1.0  0.814883251156957  0.6029674776125873  0.5024483269976019  1.0000
  O   O1        1.0  0.32006143031533446  0.0450159625919682  0.042477361176750605  1.0000
  O   O2        1.0  0.0775483235947689  0.48236824554687263  0.8902664149639111  1.0000
  O   O3        1.0  0.4739459795698482  0.7908710632681633  0.005937125850437069  1.0000
  O   O4        1.0  0.9961956076351017  0.3072131668824198  0.08014486521275911  1.0000
  O   O5        1.0  0.7943423534898812  0.1086032456176014  0.17161774988879602  1.0000
  O   O6        1.0  0.14689485778698957  0.865597445046703  0.92861414799058  1.0000
  O   O7        1.0  0.8121464578043317  0.5254147348335748  0.709021640108155  1.0000
  O   O8        1.0  0.6988799887436843  0.3305979466644899  0.7429705283812712  1.0000
  O   O9        1.0  0.19358072297725934  0.8923472509770605  0.721014841056537  1.0000
  O   O10       1.0  0.8627674556383269  0.7926080660488068  0.7817706490393664  1.0000
  O   O11       1.0  0.5063221070936166  0.2019710131668049  0.1550455862473613  1.0000
  O   O12       1.0  0.7026428299291541  0.3766008941471241  0.9372333013729492  1.0000
