data_image0
_chemical_formula_structural       Cu4H24C32O24
_chemical_formula_sum              "Cu4 H24 C32 O24"
_cell_length_a       7.421805496643032
_cell_length_b       10.45855301549922
_cell_length_c       11.240072963819172
_cell_angle_alpha    85.53679854888256
_cell_angle_beta     78.60193300778309
_cell_angle_gamma    82.25159602407638

_space_group_name_H-M_alt    "P 1"
_space_group_IT_number       1

loop_
  _space_group_symop_operation_xyz
  'x, y, z'

loop_
  _atom_site_type_symbol
  _atom_site_label
  _atom_site_symmetry_multiplicity
  _atom_site_fract_x
  _atom_site_fract_y
  _atom_site_fract_z
  _atom_site_occupancy
  Cu  Cu1       1.0  0.9227312447022057  0.76968946463321  0.6567290661747763  1.0000
  Cu  Cu2       1.0  0.07725365423575427  0.23031472327642188  0.3432768679007197  1.0000
  Cu  Cu3       1.0  0.41253765061654235  0.7897717288826344  0.45960514123457596  1.0000
  Cu  Cu4       1.0  0.5874428342700424  0.21023445177129932  0.5404012465428281  1.0000
  H   H1        1.0  0.30514994563593223  0.21976088083127374  0.03361051753228141  1.0000
  H   H2        1.0  0.6948492100214096  0.7802402224179802  0.9663972508073898  1.0000
  H   H3        1.0  0.005132483437208201  0.1747434107111303  0.9950549194883179  1.0000
  H   H4        1.0  0.9948571559499866  0.8252665123454079  0.0049543667590440784  1.0000
  H   H5        1.0  0.9936048031763959  0.039674357349042615  0.8222281942936576  1.0000
  H   H6        1.0  0.0063708506386816076  0.960328070692157  0.17778626698901692  1.0000
  H   H7        1.0  0.7880111947448397  0.5727117531297737  0.04066332988401203  1.0000
  H   H8        1.0  0.21199609954175705  0.4272805505009389  0.9593431087039265  1.0000
  H   H9        1.0  0.6934576836565822  0.3968123010762314  0.1931433062065082  1.0000
  H   H10       1.0  0.30655264704049767  0.6031780299989292  0.8068628668354593  1.0000
  H   H11       1.0  0.6070449699652372  0.1952650833437631  0.1255630663260163  1.0000
  H   H12       1.0  0.3929630664331824  0.8047310450865695  0.8744385254806063  1.0000
  H   H13       1.0  0.8848447353171736  0.9271463176843328  0.4731381053766982  1.0000
  H   H14       1.0  0.11514129213790622  0.07285778418623322  0.526852554424984  1.0000
  H   H15       1.0  0.9662226654931275  0.7893734175111505  0.4227469871727578  1.0000
  H   H16       1.0  0.03373667316342481  0.21062630029827287  0.577257474268464  1.0000
  H   H17       1.0  0.06146735626682442  0.5383539483778463  0.6107556021970312  1.0000
  H   H18       1.0  0.938530696815313  0.46166554073030863  0.38926246215335425  1.0000
  H   H19       1.0  0.11730612993594747  0.6274667287673097  0.48826636071656543  1.0000
  H   H20       1.0  0.8826705178109577  0.372537584148354  0.5117415897133313  1.0000
  H   H21       1.0  0.586522427914211  0.6274642162163673  0.6028480495532661  1.0000
  H   H22       1.0  0.41353853162883064  0.3725831656016966  0.3971360607802978  1.0000
  H   H23       1.0  0.41952528855444626  0.5733857367985422  0.5614448531038931  1.0000
  H   H24       1.0  0.5808087862809401  0.4264786717331078  0.4383796717909121  1.0000
  C   C1        1.0  0.28918377708608023  0.013822267708029308  0.7630688463182623  1.0000
  C   C2        1.0  0.7107906922907431  0.9861782251025701  0.23694058937411464  1.0000
  C   C3        1.0  0.46085024116250395  0.0420606411579385  0.7828969331430358  1.0000
  C   C4        1.0  0.5391246499073503  0.9579369533855768  0.21711266869824197  1.0000
  C   C5        1.0  0.4640538768604756  0.11831207229780462  0.8794235280468005  1.0000
  C   C6        1.0  0.5359266799916682  0.8816844792752365  0.120586263972335  1.0000
  C   C7        1.0  0.30087134824479017  0.1654654941487479  0.9557879129472866  1.0000
  C   C8        1.0  0.6991085743844111  0.8345445508612955  0.04421825329824708  1.0000
  C   C9        1.0  0.1317778117159989  0.13819656025237492  0.9344236711139615  1.0000
  C   C10       1.0  0.8682066948376104  0.8618105336714379  0.0655838716500199  1.0000
  C   C11       1.0  0.1248289736946404  0.06329603736796942  0.8385983785132041  1.0000
  C   C12       1.0  0.8751468353391161  0.9367054284577491  0.16141702557113288  1.0000
  C   C13       1.0  0.27680774559458843  0.9313434452472437  0.6626503055950154  1.0000
  C   C14       1.0  0.7231858701904842  0.06865773100990681  0.3373564405310674  1.0000
  C   C15       1.0  0.6419637826248277  0.9910436311165046  0.7062809039016998  1.0000
  C   C16       1.0  0.35801165604807034  0.0089500951973562  0.2937280320527549  1.0000
  C   C17       1.0  0.6585855180793344  0.2582542689792007  0.9368520135370133  1.0000
  C   C18       1.0  0.34140489011608816  0.7417401897268051  0.0631521350629143  1.0000
  C   C19       1.0  0.7093442080720891  0.3565222154645015  0.8499257453416649  1.0000
  C   C20       1.0  0.29065531066092376  0.643475974023474  0.15007863947212738  1.0000
  C   C21       1.0  0.7530893875751092  0.4713542954394045  0.8888956417745533  1.0000
  C   C22       1.0  0.24690507159602496  0.5286410842835777  0.11111143664934531  1.0000
  C   C23       1.0  0.7509194584652761  0.4844017400749153  0.011906769686341074  1.0000
  C   C24       1.0  0.24908725890961134  0.515594424038362  0.9880985599510197  1.0000
  C   C25       1.0  0.697442295951042  0.3858585700150313  0.09716895693733116  1.0000
  C   C26       1.0  0.3025545934101855  0.6141386898878665  0.9028349721526324  1.0000
  C   C27       1.0  0.6494099243272725  0.2729282290943972  0.06022161508181513  1.0000
  C   C28       1.0  0.3505865140322371  0.7270719213284879  0.9397803730218474  1.0000
  C   C29       1.0  0.7280914024679531  0.33361151120644905  0.7176570400353626  1.0000
  C   C30       1.0  0.27189788121271613  0.6663906762117832  0.28234666550081045  1.0000
  C   C31       1.0  0.7902850684123806  0.5797498751230422  0.7962035703741537  1.0000
  C   C32       1.0  0.20969796259286966  0.420248568250564  0.20380573456714757  1.0000
  O   O1        1.0  0.11939451471065599  0.9178679415986798  0.6421062057046498  1.0000
  O   O2        1.0  0.8805911150515654  0.08212177516428201  0.357900747271323  1.0000
  O   O3        1.0  0.4312588573332477  0.8802348209967333  0.6004846432452737  1.0000
  O   O4        1.0  0.5687290207039839  0.11977702731177692  0.3995185084612132  1.0000
  O   O5        1.0  0.7144216916097647  0.055747853881918316  0.6121337833342936  1.0000
  O   O6        1.0  0.28554306100906496  0.9442527608821794  0.38787253235624763  1.0000
  O   O7        1.0  0.7186233009272341  0.8846601594642965  0.7455716190633411  1.0000
  O   O8        1.0  0.28136511473160647  0.11533917311688674  0.2544377652898789  1.0000
  O   O9        1.0  0.583811131181278  0.30572092589154215  0.6848147465089057  1.0000
  O   O10       1.0  0.41617691542283813  0.6942803156264079  0.31518920256619515  1.0000
  O   O11       1.0  0.886297234999482  0.3384051057502546  0.6487988436759267  1.0000
  O   O12       1.0  0.11369715089995219  0.6615902546049953  0.3512037976544846  1.0000
  O   O13       1.0  0.7085838543442547  0.5912108380622172  0.7068358141319778  1.0000
  O   O14       1.0  0.29138347837483985  0.4087734035445365  0.2931829795121033  1.0000
  O   O15       1.0  0.9075303609591217  0.6553718874953918  0.8094521929817659  1.0000
  O   O16       1.0  0.09244610226042481  0.34463337988866277  0.19055303980906765  1.0000
  O   O17       1.0  0.6372153794052335  0.13938983159581406  0.8964375794122718  1.0000
  O   O18       1.0  0.36277110503061744  0.860612384579277  0.10356384017971718  1.0000
  O   O19       1.0  0.8768118010351172  0.8338577764600219  0.4886923878793967  1.0000
  O   O20       1.0  0.12316452162008318  0.16614845701305817  0.5113127895284677  1.0000
  O   O21       1.0  0.1127916708278604  0.6186701037384669  0.5803119281402972  1.0000
  O   O22       1.0  0.8871745452972774  0.3813584545995425  0.4196938036577508  1.0000
  O   O23       1.0  0.5228279921500131  0.624339963815558  0.532541244197745  1.0000
  O   O24       1.0  0.4773165884934443  0.3757147216536227  0.46739875494699856  1.0000
