data_image0
_chemical_formula_structural       Zn2H18C37N6O18
_chemical_formula_sum              "Zn2 H18 C37 N6 O18"
_cell_length_a       9.724690004225963
_cell_length_b       11.120851734314218
_cell_length_c       23.846481760410065
_cell_angle_alpha    89.3824029747983
_cell_angle_beta     90.07006071638475
_cell_angle_gamma    91.76179125741703

_space_group_name_H-M_alt    "P 1"
_space_group_IT_number       1

loop_
  _space_group_symop_operation_xyz
  'x, y, z'

loop_
  _atom_site_type_symbol
  _atom_site_label
  _atom_site_symmetry_multiplicity
  _atom_site_fract_x
  _atom_site_fract_y
  _atom_site_fract_z
  _atom_site_occupancy
  Zn  Zn1       1.0  0.3604943422350431  0.4956556499711338  0.5017087542354162  1.0000
  Zn  Zn2       1.0  0.6432344502605999  0.5047857695236431  0.5020552477378075  1.0000
  H   H1        1.0  0.6212101304926635  0.7892897578229636  0.053345869403116815  1.0000
  H   H2        1.0  0.6195883055518295  0.7920820920765764  0.9471679501713768  1.0000
  H   H3        1.0  0.39376493994925715  0.21410107503215406  0.9469646142753732  1.0000
  H   H4        1.0  0.39730469391889767  0.21030854340163072  0.0531650102999066  1.0000
  H   H5        1.0  0.7153170027326397  0.47160065729169515  0.7859432696160269  1.0000
  H   H6        1.0  0.7138728552007123  0.47283321075477847  0.6804064553804636  1.0000
  H   H7        1.0  0.2831577272621076  0.5417689656423974  0.6815799059816072  1.0000
  H   H8        1.0  0.3531634097779702  0.6340138574009869  0.21327450960588834  1.0000
  H   H9        1.0  0.6602565986862103  0.3608841455724061  0.2184112563932743  1.0000
  H   H10       1.0  0.7117324416594785  0.11371370030622777  0.4835361984582605  1.0000
  H   H11       1.0  0.4068415986923384  0.09436911339059147  0.518165296925531  1.0000
  H   H12       1.0  0.7107805682296942  0.8931780961913776  0.5027296567662773  1.0000
  H   H13       1.0  0.3994548674613442  0.899253271661735  0.47953521836048213  1.0000
  H   H14       1.0  0.1240725604497399  0.41549247687481744  0.4226942750248455  1.0000
  H   H15       1.0  0.09933155748461081  0.505357026545923  0.5371604300223964  1.0000
  H   H16       1.0  0.8654857876242232  0.3665178617296547  0.44240533849783503  1.0000
  H   H17       1.0  0.9099154838027703  0.5790183270297858  0.5124833334027059  1.0000
  H   H18       1.0  0.05890887383952051  0.5753719590728464  0.7843679495981348  1.0000
  C   C1        1.0  0.505725910769428  0.7319424819847382  0.4950239027731413  1.0000
  C   C2        1.0  0.4958153257140979  0.505266720954161  0.6119467953833109  1.0000
  C   C3        1.0  0.5118896983303856  0.26765356717890393  0.5033475661837343  1.0000
  C   C4        1.0  0.4913738470425386  0.49477118839745754  0.3907191260859478  1.0000
  C   C5        1.0  0.468914049388367  0.38909447571543865  0.12130231098213778  1.0000
  C   C6        1.0  0.5516645214213086  0.6066248339048385  0.12135925440196621  1.0000
  C   C7        1.0  0.5503456478651643  0.605866481306954  0.059297109749266504  1.0000
  C   C8        1.0  0.5088825059304583  0.5004598532624128  0.030206835991215503  1.0000
  C   C9        1.0  0.4685959931557235  0.39333611654353706  0.05923789219265531  1.0000
  C   C10       1.0  0.5898592802264632  0.70968019370995  0.029721277138449406  1.0000
  C   C11       1.0  0.5889765252004936  0.7112422639068469  0.9708296571379194  1.0000
  C   C12       1.0  0.5485277799793523  0.6090693630770261  0.9413201335180901  1.0000
  C   C13       1.0  0.5077216067114493  0.502207863135574  0.9704405434699055  1.0000
  C   C14       1.0  0.4654474234345756  0.39715110129422015  0.9412940253178024  1.0000
  C   C15       1.0  0.4260377794707324  0.29327067631366077  0.970712290188338  1.0000
  C   C16       1.0  0.4278174147305833  0.2912833733147551  0.0295990663961092  1.0000
  C   C17       1.0  0.5479816905961101  0.6126426314287768  0.8790837331474961  1.0000
  C   C18       1.0  0.46223189689882815  0.39752474987557207  0.879121026783352  1.0000
  C   C19       1.0  0.6212956903670204  0.48791995614367073  0.7625184471713953  1.0000
  C   C20       1.0  0.6205396271298368  0.48816655949814  0.7041621323988211  1.0000
  C   C21       1.0  0.4980111963212154  0.5071725068126368  0.6750107168334978  1.0000
  C   C22       1.0  0.3774873807689616  0.5269706028664201  0.7048341969586717  1.0000
  C   C23       1.0  0.37677659771394195  0.5284247839762272  0.7636057226202269  1.0000
  C   C24       1.0  0.5010320513134019  0.5078654688993821  0.7920655435533845  1.0000
  C   C25       1.0  0.4186748644912369  0.573129310660171  0.2362995343090333  1.0000
  C   C26       1.0  0.4177201610406626  0.5729347926797741  0.29459814563162473  1.0000
  C   C27       1.0  0.49617036997455  0.4953918875413378  0.3272619504399898  1.0000
  C   C28       1.0  0.5812207218067797  0.419649493613619  0.2973663177163246  1.0000
  C   C29       1.0  0.5902759621930967  0.4205267635138128  0.2391474975327483  1.0000
  C   C30       1.0  0.5064490311027896  0.49682046319966117  0.208688317595211  1.0000
  C   C31       1.0  0.6143881160090459  0.06700874845686397  0.4939237672820909  1.0000
  C   C32       1.0  0.5058453270325388  0.13491711300951437  0.5057091022225748  1.0000
  C   C33       1.0  0.6126740381347914  0.9366616592271698  0.49592352394056155  1.0000
  C   C34       1.0  0.5001652892727009  0.8641260080330397  0.4895224182189537  1.0000
  C   C35       1.0  0.0740365141205999  0.4448364437751805  0.46118047831899395  1.0000
  C   C36       1.0  0.9218207050895162  0.4377251469278177  0.46513187047127513  1.0000
  C   C37       1.0  0.2479177206812011  0.5520143171439712  0.7945918324917258  1.0000
  N   N1        1.0  0.5098052754748394  0.49731180996026586  0.1484912784219432  1.0000
  N   N2        1.0  0.5079497895072507  0.5049074106223655  0.8524296589015921  1.0000
  N   N3        1.0  0.15059991487642324  0.4826619201793888  0.5012810768630516  1.0000
  N   N4        1.0  0.8527825016295268  0.5109829694520654  0.4939706616314298  1.0000
  N   N5        1.0  0.3320930636533674  0.6632054907494122  0.3218354093648231  1.0000
  N   N6        1.0  0.6660765798233399  0.3325871822819693  0.3280679182708397  1.0000
  O   O1        1.0  0.39068300834457403  0.6740632754566249  0.49020212654045286  1.0000
  O   O2        1.0  0.6217656120483923  0.6848061657768767  0.5044624954307367  1.0000
  O   O3        1.0  0.37979313936681086  0.5165916842412412  0.588070362304947  1.0000
  O   O4        1.0  0.6108178051124468  0.4917748028464572  0.5876092769752645  1.0000
  O   O5        1.0  0.39664485740358657  0.31834039084637306  0.5098121420859059  1.0000
  O   O6        1.0  0.6277477537821242  0.3224730823414248  0.4956947202752318  1.0000
  O   O7        1.0  0.3746069664792486  0.47468045640607665  0.4127925427970354  1.0000
  O   O8        1.0  0.6057877364921894  0.5147076103482178  0.41456160959574373  1.0000
  O   O9        1.0  0.43553393493810677  0.2987765286842076  0.14869450894804712  1.0000
  O   O10       1.0  0.5862853642579821  0.6952174825764813  0.1488509417616939  1.0000
  O   O11       1.0  0.5808590295493943  0.703005287294836  0.8515750588129408  1.0000
  O   O12       1.0  0.4234464060782201  0.3101452455755051  0.8516001720883467  1.0000
  O   O13       1.0  0.38416509877815497  0.7194770773407057  0.36128135680964146  1.0000
  O   O14       1.0  0.21572048712767616  0.6772818883804489  0.3020000052364082  1.0000
  O   O15       1.0  0.60977836944663  0.27215700406514287  0.36577822330752247  1.0000
  O   O16       1.0  0.7878060772137657  0.32598781567035207  0.3131439392700059  1.0000
  O   O17       1.0  0.23722066687491858  0.5666282972034437  0.8452125778681323  1.0000
  O   O18       1.0  0.13613817443278722  0.5570933651676029  0.7598847016108935  1.0000
