data_image0
_chemical_formula_structural       Rb4H8C4N16O4
_chemical_formula_sum              "Rb4 H8 C4 N16 O4"
_cell_length_a       4.101397600539163
_cell_length_b       10.006948866264313
_cell_length_c       11.309440339004137
_cell_angle_alpha    90.00009759353918
_cell_angle_beta     89.99999085650818
_cell_angle_gamma    94.28464099604797

_space_group_name_H-M_alt    "P 1"
_space_group_IT_number       1

loop_
  _space_group_symop_operation_xyz
  'x, y, z'

loop_
  _atom_site_type_symbol
  _atom_site_label
  _atom_site_symmetry_multiplicity
  _atom_site_fract_x
  _atom_site_fract_y
  _atom_site_fract_z
  _atom_site_occupancy
  Rb  Rb1       1.0  0.7577817383570961  0.8289883923242842  0.5948107595106508  1.0000
  Rb  Rb2       1.0  0.24221876444736523  0.6710119450834142  0.09481155447843291  1.0000
  Rb  Rb3       1.0  0.24221914367244327  0.17101161866985143  0.4051881647508607  1.0000
  Rb  Rb4       1.0  0.7577821175820747  0.32898806591243374  0.905189138217189  1.0000
  H   H1        1.0  0.4126785689785636  0.8889605698064219  0.3359766090214222  1.0000
  H   H2        1.0  0.5873194688526411  0.6110402261430252  0.8359763806239827  1.0000
  H   H3        1.0  0.5873202056027085  0.11104143849133415  0.6640231994587041  1.0000
  H   H4        1.0  0.4126789737897596  0.38895977798916453  0.16402342785465152  1.0000
  H   H5        1.0  0.15316796331985216  0.7817417418094479  0.3926079853160971  1.0000
  H   H6        1.0  0.8468300685031027  0.7182591634282363  0.8926079034299479  1.0000
  H   H7        1.0  0.846833084679034  0.218259271269183  0.6073927073802707  1.0000
  H   H8        1.0  0.1531683741392484  0.2817408407048063  0.10739278926573803  1.0000
  C   C1        1.0  0.08209969347199568  0.9938618599606599  0.9437291403643471  1.0000
  C   C2        1.0  0.9178981669579402  0.5061381418474937  0.4437278819243602  1.0000
  C   C3        1.0  0.917900690649276  0.006135144784266801  0.056268899677881706  1.0000
  C   C4        1.0  0.08209783629741448  0.4938618554210378  0.5562710423372863  1.0000
  N   N1        1.0  0.3543566707930381  0.0417123661571637  0.7878179623106477  1.0000
  N   N2        1.0  0.6456423294961272  0.45828808714166785  0.2878182818237605  1.0000
  N   N3        1.0  0.6456417718493199  0.9582876379758787  0.21218273038503102  1.0000
  N   N4        1.0  0.3543587185027519  0.5417129259369631  0.7121824108726076  1.0000
  N   N5        1.0  0.0972509712668526  0.8780324969873236  0.8837137048117398  1.0000
  N   N6        1.0  0.9027490029784603  0.6219653917012311  0.38371438949036474  1.0000
  N   N7        1.0  0.9027494128543694  0.1219645077584559  0.1162852194475406  1.0000
  N   N8        1.0  0.09725221098990032  0.3780366234593302  0.6162854189896976  1.0000
  N   N9        1.0  0.2713398434671462  0.9114222486698226  0.786145678613309  1.0000
  N   N10       1.0  0.7286606390378055  0.5885784579796295  0.2861472070643671  1.0000
  N   N11       1.0  0.7286610385623861  0.08857776232431291  0.2138532456482096  1.0000
  N   N12       1.0  0.27134057493051245  0.4114235571817843  0.713853485632754  1.0000
  N   N13       1.0  0.23976813254041937  0.09713601750573991  0.8859148153030603  1.0000
  N   N14       1.0  0.7602306913717884  0.40286362301987566  0.3859159294859539  1.0000
  N   N15       1.0  0.7602303101019319  0.9028639866273025  0.1140858773926254  1.0000
  N   N16       1.0  0.23976758530108103  0.5971353790312365  0.6140856474260376  1.0000
  O   O1        1.0  0.2783949517476856  0.8690753847933621  0.4083020158391903  1.0000
  O   O2        1.0  0.7216055177973221  0.630925557593585  0.9083018098302631  1.0000
  O   O3        1.0  0.7216060962512003  0.13092562828526874  0.5916986768571776  1.0000
  O   O4        1.0  0.27839553020155716  0.3690754554850458  0.09169888286610468  1.0000
