data_image0
_chemical_formula_structural       Sm2Cu3P6H24C30N6O18
_chemical_formula_sum              "Sm2 Cu3 P6 H24 C30 N6 O18"
_cell_length_a       10.304052764725391
_cell_length_b       11.393432828659064
_cell_length_c       11.393112856652051
_cell_angle_alpha    111.32574535161012
_cell_angle_beta     107.54169433773505
_cell_angle_gamma    107.54054790287687

_space_group_name_H-M_alt    "P 1"
_space_group_IT_number       1

loop_
  _space_group_symop_operation_xyz
  'x, y, z'

loop_
  _atom_site_type_symbol
  _atom_site_label
  _atom_site_symmetry_multiplicity
  _atom_site_fract_x
  _atom_site_fract_y
  _atom_site_fract_z
  _atom_site_occupancy
  Sm  Sm1       1.0  0.5000023348002856  1.8640511709998703e-07  4.2846593829849706e-07  1.0000
  Sm  Sm2       1.0  0.9999970250515771  2.6610791799996704e-08  0.9999985847564828  1.0000
  Cu  Cu1       1.0  0.9999984902750539  0.9999991181303969  0.5000029675491929  1.0000
  Cu  Cu2       1.0  0.9999992539226811  0.50000408393079  9.001214352777347e-07  1.0000
  Cu  Cu3       1.0  0.4999949743592395  0.4999962841130455  0.49999582186024577  1.0000
  P   P1        1.0  0.17302969227604592  0.015391827980280902  0.7652333920955172  1.0000
  P   P2        1.0  0.15766937848680118  0.7498388287886966  0.984593093304724  1.0000
  P   P3        1.0  0.40773774693630566  0.23472302348958607  0.2502080456363415  1.0000
  P   P4        1.0  0.8269695554362074  0.9846071166876129  0.23476924635434665  1.0000
  P   P5        1.0  0.8423315038660775  0.250165430270684  0.015405780002765879  1.0000
  P   P6        1.0  0.5922557870757997  0.7652706073147258  0.7497858379718706  1.0000
  H   H1        1.0  0.3367892948536522  0.3139294036451901  0.02138267891402275  1.0000
  H   H2        1.0  0.022884772280967504  0.7073992531645387  0.6860743845148676  1.0000
  H   H3        1.0  0.3152741115869516  0.9786758878533419  0.2927417232109305  1.0000
  H   H4        1.0  0.6632145989990192  0.6860727293276484  0.9786206285391968  1.0000
  H   H5        1.0  0.9771176118550781  0.2926039429508975  0.3139209996202723  1.0000
  H   H6        1.0  0.6847250457228639  0.0213188053034443  0.7072584655673211  1.0000
  H   H7        1.0  0.3736347860361491  0.5464836626008706  0.027503928005934545  1.0000
  H   H8        1.0  0.8272364913622924  0.481017649926244  0.4535200005856055  1.0000
  H   H9        1.0  0.34620501537988696  0.9725760537009833  0.519186670005574  1.0000
  H   H10       1.0  0.6263680439183829  0.45351634472164903  0.9724965609122549  1.0000
  H   H11       1.0  0.17276434548423236  0.518984483385225  0.5464772089441325  1.0000
  H   H12       1.0  0.6537977702888327  0.027421827843063795  0.48081391090262576  1.0000
  H   H13       1.0  0.25772142215215865  0.5437623331429506  0.8002588333071967  1.0000
  H   H14       1.0  0.7139816150009892  0.25653001407123804  0.4563062925858644  1.0000
  H   H15       1.0  0.4576795061538518  0.19987868364729877  0.743733387624424  1.0000
  H   H16       1.0  0.7422742396562114  0.4562355489620132  0.19974068737106865  1.0000
  H   H17       1.0  0.2860167028911177  0.7434731822512076  0.5436950071267005  1.0000
  H   H18       1.0  0.5423187213358175  0.8001202611640323  0.25626546241652187  1.0000
  H   H19       1.0  0.08565606088691875  0.3043304354485413  0.5726672498563089  1.0000
  H   H20       1.0  0.7813053756598264  0.26837301985232637  0.6957448033181207  1.0000
  H   H21       1.0  0.5129979965049568  0.4274352033930311  0.7317548237386686  1.0000
  H   H22       1.0  0.9143375235136657  0.6956653209814406  0.42733532060068313  1.0000
  H   H23       1.0  0.21869608475873994  0.7316344277648524  0.30425802091851034  1.0000
  H   H24       1.0  0.4869950953502453  0.572561616112516  0.2682392223897664  1.0000
  C   C1        1.0  0.19698447107369788  0.19135946065594564  0.7944337587262496  1.0000
  C   C2        1.0  0.005641405994488517  0.6030651440932928  0.8086671673286003  1.0000
  C   C3        1.0  0.4024821173574153  0.2055976863458895  0.39703530209928317  1.0000
  C   C4        1.0  0.8030153085876249  0.8086405468371182  0.20557028899113297  1.0000
  C   C5        1.0  0.9943589886951401  0.3969401779194044  0.1913302047213677  1.0000
  C   C6        1.0  0.5975124344361972  0.7943959443761058  0.6029588583823225  1.0000
  C   C7        1.0  0.28550441510093805  0.31781099625812465  0.9249417767431752  1.0000
  C   C8        1.0  0.9677251524109636  0.6070915127633683  0.6821978729428935  1.0000
  C   C9        1.0  0.36047158399065177  0.07511949993159561  0.3930491151679831  1.0000
  C   C10       1.0  0.7144973989028854  0.682189011100867  0.07506106895324641  1.0000
  C   C11       1.0  0.03227674589263076  0.3929127462595404  0.3177986435863573  1.0000
  C   C12       1.0  0.639526022978309  0.9248741304976208  0.6069485095854716  1.0000
  C   C13       1.0  0.3059176495578341  0.4456952693864054  0.9277947870109672  1.0000
  C   C14       1.0  0.8603128201796153  0.4820741462797359  0.5543130747562727  1.0000
  C   C15       1.0  0.3781856929792724  0.07230995038588621  0.5181333009225213  1.0000
  C   C16       1.0  0.6940821282726901  0.5543047381524957  0.07220662705477561  1.0000
  C   C17       1.0  0.13968956639749308  0.5179290497745725  0.4456858209143846  1.0000
  C   C18       1.0  0.6218135086163625  0.9276868685493723  0.48186679586572007  1.0000
  C   C19       1.0  0.23885866604020825  0.4446492563202469  0.800775190578598  1.0000
  C   C20       1.0  0.794264793130182  0.35613518033397895  0.5554013385532386  1.0000
  C   C21       1.0  0.43822672672730784  0.19934726061240576  0.6440809859721526  1.0000
  C   C22       1.0  0.7611385454987455  0.5553496885275564  0.19922601624058692  1.0000
  C   C23       1.0  0.20573817029207922  0.643871204308695  0.4445997522787975  1.0000
  C   C24       1.0  0.5617709700338267  0.800650621343202  0.3559182105690368  1.0000
  C   C25       1.0  0.14651529781957606  0.3146276785595886  0.6751881485891217  1.0000
  C   C26       1.0  0.8319074650631252  0.3606016357098696  0.6854483885319099  1.0000
  C   C27       1.0  0.47135719946877686  0.3249114667791985  0.6395706853905665  1.0000
  C   C28       1.0  0.8534808510417734  0.6853691406073281  0.3248119954627882  1.0000
  C   C29       1.0  0.16809501191642082  0.6394058118555607  0.3145529568103669  1.0000
  C   C30       1.0  0.5286358474903423  0.675083226963153  0.36042257484400136  1.0000
  N   N1        1.0  0.12639033615732834  0.19152530711777865  0.6734324691748198  1.0000
  N   N2        1.0  0.9348749006774355  0.4819226920320148  0.8085386476024822  1.0000
  N   N3        1.0  0.4529271405656131  0.32661878969282293  0.5181799892122143  1.0000
  N   N4        1.0  0.8736063464838891  0.8084725748284641  0.3265717177962486  1.0000
  N   N5        1.0  0.06512452295756083  0.5180847557803505  0.19146186711958527  1.0000
  N   N6        1.0  0.5470628087631367  0.6733737785179911  0.4818125323921619  1.0000
  O   O1        1.0  0.11032170162015828  0.9287345437963098  0.602068956421931  1.0000
  O   O2        1.0  0.18164750188420709  0.6733056311311004  0.0712345164586594  1.0000
  O   O3        1.0  0.5082223512817947  0.39786661575249127  0.3266766080073609  1.0000
  O   O4        1.0  0.889679095212415  0.0712654636297145  0.3979344902849676  1.0000
  O   O5        1.0  0.8183508141771086  0.3266975652371897  0.9287641496022729  1.0000
  O   O6        1.0  0.49177375024240877  0.6021280777123579  0.6733192386151714  1.0000
  O   O7        1.0  0.056643594458137346  0.9586319532113097  0.8125177923045471  1.0000
  O   O8        1.0  0.09804199588336342  0.8538784164193699  0.041398659712385  1.0000
  O   O9        1.0  0.24410224025981353  0.1874992647878244  0.14615893768935706  1.0000
  O   O10       1.0  0.9433551662011297  0.0413680543946242  0.1874842227716727  1.0000
  O   O11       1.0  0.9019588870797788  0.14612584262473396  0.9586010914789824  1.0000
  O   O12       1.0  0.7558918699871668  0.8124975546201229  0.8538362631963565  1.0000
  O   O13       1.0  0.3323019286702689  0.0345411518792176  0.8454982013855101  1.0000
  O   O14       1.0  0.2977298453308847  0.8109276725678781  0.9653455439611277  1.0000
  O   O15       1.0  0.48669148915664817  0.15434976005220594  0.18909725365255534  1.0000
  O   O16       1.0  0.6676989124481167  0.9654609813252861  0.15450515333138526  1.0000
  O   O17       1.0  0.7022715246852441  0.18907552353818594  0.03465483060388408  1.0000
  O   O18       1.0  0.5132994785638799  0.8456428080610081  0.8108964227090992  1.0000
