data_image0
_chemical_formula_structural       CuH8C8Cl4O8
_chemical_formula_sum              "Cu1 H8 C8 Cl4 O8"
_cell_length_a       7.104228755372155
_cell_length_b       8.448189169116418
_cell_length_c       8.398854439976741
_cell_angle_alpha    61.203714964257706
_cell_angle_beta     92.97879779073897
_cell_angle_gamma    80.47768547868594

_space_group_name_H-M_alt    "P 1"
_space_group_IT_number       1

loop_
  _space_group_symop_operation_xyz
  'x, y, z'

loop_
  _atom_site_type_symbol
  _atom_site_label
  _atom_site_symmetry_multiplicity
  _atom_site_fract_x
  _atom_site_fract_y
  _atom_site_fract_z
  _atom_site_occupancy
  Cu  Cu1       1.0  1.916619545764837e-06  0.9999908519180278  7.2986693310568816e-06  1.0000
  H   H1        1.0  0.3108472348531066  0.7942227724708957  0.142776816556477  1.0000
  H   H2        1.0  0.6891621853181249  0.205784040815864  0.8572260973164915  1.0000
  H   H3        1.0  0.2150586312105887  0.8190251278156211  0.301406044829207  1.0000
  H   H4        1.0  0.784943611169126  0.18100705982847384  0.6985770361933561  1.0000
  H   H5        1.0  0.31949781720778253  0.19869206011545507  0.023747813759356962  1.0000
  H   H6        1.0  0.6805088046934741  0.8012974971814157  0.9762521811160454  1.0000
  H   H7        1.0  0.13919720451113451  0.2583604510848757  0.09959632302089722  1.0000
  H   H8        1.0  0.8607816861820722  0.7417021985097703  0.9003276557980869  1.0000
  C   C1        1.0  0.31559448457048933  0.9265079612860487  0.823696944244297  1.0000
  C   C2        1.0  0.6844049640188314  0.07347627847015299  0.17632935801286462  1.0000
  C   C3        1.0  0.40267149460462565  0.966757645087739  0.6510737459178342  1.0000
  C   C4        1.0  0.5973112793381289  0.03324145525456859  0.3489315445200845  1.0000
  C   C5        1.0  0.42866382275379067  0.14540644226566704  0.5325887683090684  1.0000
  C   C6        1.0  0.5713185840049206  0.8545962743790483  0.4673993642361934  1.0000
  C   C7        1.0  0.5282071902200087  0.17767126308846307  0.38298172816691795  1.0000
  C   C8        1.0  0.47178492297175006  0.8223257045438928  0.6170101752229086  1.0000
  Cl  Cl1       1.0  0.3395360817619277  0.3232083717155588  0.5714618822555552  1.0000
  Cl  Cl2       1.0  0.6604473534473243  0.6767878970893261  0.42854588304069813  1.0000
  Cl  Cl3       1.0  0.5693260723796313  0.39388853046507677  0.24191662526481392  1.0000
  Cl  Cl4       1.0  0.43066640658049243  0.6061002952579243  0.7581016497197125  1.0000
  O   O1        1.0  0.13386144734872832  0.9822158632496565  0.8040563809460294  1.0000
  O   O2        1.0  0.8661392247247903  0.017774191011696396  0.19596131406117928  1.0000
  O   O3        1.0  0.43215078678878877  0.8426333646627739  0.9728068939927537  1.0000
  O   O4        1.0  0.5678791635280547  0.15737137088926537  0.0272028720835777  1.0000
  O   O5        1.0  0.19177001027544088  0.7886561089895351  0.2050261259806304  1.0000
  O   O6        1.0  0.8082461070651945  0.21133943647161857  0.7949842615656806  1.0000
  O   O7        1.0  0.17656743666542238  0.2183255247310427  0.012857158067873785  1.0000
  O   O8        1.0  0.8234501440866566  0.7816365602807095  0.9871504765965751  1.0000
