data_image0
_chemical_formula_structural       Mn2H30C46N2O8F12
_chemical_formula_sum              "Mn2 H30 C46 N2 O8 F12"
_cell_length_a       7.373414424746068
_cell_length_b       12.280900898749287
_cell_length_c       14.45352931808799
_cell_angle_alpha    105.68345089238858
_cell_angle_beta     104.8485729255416
_cell_angle_gamma    89.99425321998093

_space_group_name_H-M_alt    "P 1"
_space_group_IT_number       1

loop_
  _space_group_symop_operation_xyz
  'x, y, z'

loop_
  _atom_site_type_symbol
  _atom_site_label
  _atom_site_symmetry_multiplicity
  _atom_site_fract_x
  _atom_site_fract_y
  _atom_site_fract_z
  _atom_site_occupancy
  Mn  Mn1       1.0  0.16550182528605717  6.669435322239987e-05  0.00010052527561299249  1.0000
  Mn  Mn2       1.0  0.6804926664303038  0.0002732250168052005  0.9999372242187334  1.0000
  H   H1        1.0  0.49809824865779734  0.6777194238001912  0.7542493060273401  1.0000
  H   H2        1.0  0.7444332880444763  0.32256682368106493  0.24643923999456524  1.0000
  H   H3        1.0  0.3305199128515071  0.4982918596162591  0.6413260605528635  1.0000
  H   H4        1.0  0.689192561479537  0.5018586974779282  0.3590698923565939  1.0000
  H   H5        1.0  0.929789005401638  0.5284285846938985  0.8173675199622892  1.0000
  H   H6        1.0  0.11231200760736472  0.471297211940538  0.1820353007978497  1.0000
  H   H7        1.0  0.09346944387873181  0.7120748546097887  0.9258330312586408  1.0000
  H   H8        1.0  0.16809808428804024  0.28773131397366575  0.0738344954133439  1.0000
  H   H9        1.0  0.2304831245864492  0.342344753690533  0.816013157943388  1.0000
  H   H10       1.0  0.41394867752289594  0.6574231078675224  0.18388949503310673  1.0000
  H   H11       1.0  0.1606412525008238  0.22663222385484977  0.9202528430095924  1.0000
  H   H12       1.0  0.23980765452402156  0.7730949176538503  0.07951878149154368  1.0000
  H   H13       1.0  0.5831356657933001  0.17182751670043223  0.7474612681577854  1.0000
  H   H14       1.0  0.835409122873344  0.8282434680608688  0.25202387732479536  1.0000
  H   H15       1.0  0.6522719142694555  0.28100061892014594  0.6385752761030048  1.0000
  H   H16       1.0  0.013487027823771269  0.7189970691691697  0.3610147157603335  1.0000
  H   H17       1.0  0.8384818735672611  0.85390056042624  0.8329628618131792  1.0000
  H   H18       1.0  0.0058721850583368035  0.14603100652745132  0.1669405333837517  1.0000
  H   H19       1.0  0.7371323628539203  0.7815431068243369  0.64728000005924  1.0000
  H   H20       1.0  0.09023182720671488  0.21843906750320494  0.3525724292673332  1.0000
  H   H21       1.0  0.939934732620827  0.8341195770047561  0.5480766785193865  1.0000
  H   H22       1.0  0.3924181963236464  0.16589130383248832  0.4521252308181332  1.0000
  H   H23       1.0  0.3157856924034519  0.027373560565628507  0.8256711694013603  1.0000
  H   H24       1.0  0.4910175254767069  0.97291773724875  0.1748062764659295  1.0000
  H   H25       1.0  0.41935860359252086  0.9548643836592206  0.6556434306840303  1.0000
  H   H26       1.0  0.7645549044659603  0.0453369895275628  0.3451805470023714  1.0000
  H   H27       1.0  0.26906512193941984  0.061885676679963815  0.6308956347558237  1.0000
  H   H28       1.0  0.6388733937327588  0.9382580975545666  0.36971061912060316  1.0000
  H   H29       1.0  0.23076708840674334  0.9248092187478247  0.5445877290584561  1.0000
  H   H30       1.0  0.6868901108311221  0.07535994708557328  0.4560312065140266  1.0000
  C   C1        1.0  0.41181968793006263  0.8142532635125121  0.9147367080699667  1.0000
  C   C2        1.0  0.49797980938251385  0.18588220611582076  0.08556914021293953  1.0000
  C   C3        1.0  0.3098649154940106  0.7048213586012724  0.848663989666136  1.0000
  C   C4        1.0  0.46173517234094413  0.2951912724250221  0.15155826414015644  1.0000
  C   C5        1.0  0.37358467598528483  0.6438970293957667  0.76762314542475  1.0000
  C   C6        1.0  0.6063636582283821  0.3562052872263025  0.23280702587599933  1.0000
  C   C7        1.0  0.2785057834029701  0.5423169182532491  0.7043171662126468  1.0000
  C   C8        1.0  0.5742544446600776  0.4577476972807589  0.2959308111698888  1.0000
  C   C9        1.0  0.119033952046145  0.4989294338340216  0.7221525239942891  1.0000
  C   C10       1.0  0.39677878703998465  0.5009716589039783  0.2777354903990812  1.0000
  C   C11       1.0  0.054212869126409706  0.5607743945515794  0.8028592433573891  1.0000
  C   C12       1.0  0.25136296296631844  0.43904620042729187  0.19682301182894688  1.0000
  C   C13       1.0  0.1474661378093884  0.6630485423997144  0.8650131215665908  1.0000
  C   C14       1.0  0.28281588831776366  0.3368144378824597  0.1348329174075147  1.0000
  C   C15       1.0  0.0040920814269327045  0.38828183937951627  0.655160472291307  1.0000
  C   C16       1.0  0.3488714581282579  0.6115766221985268  0.3446434241764464  1.0000
  C   C17       1.0  0.1163644502156913  0.3085792470115081  0.5900347608374261  1.0000
  C   C18       1.0  0.5264313918020633  0.6913714689998259  0.40989314368953705  1.0000
  C   C19       1.0  0.8326429809509578  0.4242361600348303  0.5836079219283475  1.0000
  C   C20       1.0  0.24908471293884563  0.5755083018588679  0.41606583742967024  1.0000
  C   C21       1.0  0.9471111185407041  0.31999557279814894  0.7194016583226457  1.0000
  C   C22       1.0  0.2273590229801458  0.679845392273329  0.28034450576668496  1.0000
  C   C23       1.0  0.08837472428790251  0.30424105154956044  0.7997908704156913  1.0000
  C   C24       1.0  0.28805944508867043  0.6955455227935375  0.2000090642621544  1.0000
  C   C25       1.0  0.04896867491127921  0.2411431628570568  0.8598437911391201  1.0000
  C   C26       1.0  0.18853507239322204  0.7586310905305284  0.1398522230530688  1.0000
  C   C27       1.0  0.8658348819643963  0.194053349846719  0.8416196483887576  1.0000
  C   C28       1.0  0.023727562748753393  0.8058672280059512  0.1579850605649469  1.0000
  C   C29       1.0  0.7248235947983802  0.2093894122405331  0.7614543844798191  1.0000
  C   C30       1.0  0.9631128472305335  0.7906556630817435  0.23816131691447853  1.0000
  C   C31       1.0  0.7650397011883426  0.2710236474254586  0.7003024609469719  1.0000
  C   C32       1.0  0.06446718758740394  0.7289411591491872  0.2993446055332143  1.0000
  C   C33       1.0  0.8194629296667983  0.1262886355714201  0.9047629281481946  1.0000
  C   C34       1.0  0.9139955617663135  0.8738404495374541  0.09495324370305984  1.0000
  C   C35       1.0  0.9215885868172506  0.8758668280576744  0.7872228948100854  1.0000
  C   C36       1.0  0.1348323795796276  0.12411983879734828  0.2127965754193539  1.0000
  C   C37       1.0  0.8662995479924405  0.8358196080718941  0.6839052108426386  1.0000
  C   C38       1.0  0.1828818679432658  0.1641934463509429  0.316101702666117  1.0000
  C   C39       1.0  0.9794866327178583  0.865481664497679  0.629277456619377  1.0000
  C   C40       1.0  0.3507466505929813  0.1345332412405682  0.37092027847837267  1.0000
  C   C41       1.0  0.1449089836111384  0.9354751607598714  0.6785742914958277  1.0000
  C   C42       1.0  0.46700336804673265  0.06464313112960701  0.3217939571166255  1.0000
  C   C43       1.0  0.18855993129077586  0.9726270823216938  0.7827876656713998  1.0000
  C   C44       1.0  0.40650355553308504  0.027537106736929204  0.2175612042088986  1.0000
  C   C45       1.0  0.2727140736107287  0.970614199142993  0.6241897409705928  1.0000
  C   C46       1.0  0.649272818840693  0.029540283543127502  0.3764488125474941  1.0000
  N   N1        1.0  0.08050944427530032  0.9433875369694891  0.8357624487542239  1.0000
  N   N2        1.0  0.24533959698378283  0.05667455703630248  0.1644289393261431  1.0000
  O   O1        1.0  0.3560405608135824  0.8681935694726166  0.990421351475625  1.0000
  O   O2        1.0  0.3664530473065071  0.1317418208689318  0.009799841727108608  1.0000
  O   O3        1.0  0.551715933320807  0.8510845680486768  0.8922436686773808  1.0000
  O   O4        1.0  0.6606557863210157  0.14930309255046836  0.10810902741391003  1.0000
  O   O5        1.0  0.9442809896975675  0.11762433790560323  0.9828561038272668  1.0000
  O   O6        1.0  0.9606205785804319  0.882777828366031  0.016997748438576807  1.0000
  O   O7        1.0  0.6554663701794683  0.0770339636298232  0.8796373398527209  1.0000
  O   O8        1.0  0.7752430597263428  0.9230694408034666  0.12009396413819222  1.0000
  F   F1        1.0  0.025063916618329095  0.20372778658933297  0.5452053639102843  1.0000
  F   F2        1.0  0.4797682182375524  0.7961689165772298  0.4546655696141215  1.0000
  F   F3        1.0  0.288621428581557  0.29245035077576637  0.645898614918238  1.0000
  F   F4        1.0  0.6427540631906297  0.707646082338897  0.35417740229599565  1.0000
  F   F5        1.0  0.14778213537695004  0.34865699839065206  0.5158512073749222  1.0000
  F   F6        1.0  0.6322770887736766  0.6513663719573586  0.4841413272353705  1.0000
  F   F7        1.0  0.731834158055193  0.3350799879631552  0.5087959260569335  1.0000
  F   F8        1.0  0.22290382235480166  0.664601483950527  0.4907773592735083  1.0000
  F   F9        1.0  0.8891337806911039  0.49753779171253143  0.5391351711578238  1.0000
  F   F10       1.0  0.35019146573390714  0.50231564895509  0.4606909374419459  1.0000
  F   F11       1.0  0.7105694681161837  0.4781116730013224  0.6341107608718134  1.0000
  F   F12       1.0  0.07645861068311892  0.5214832489495151  0.3653407390506658  1.0000
