data_image0
_chemical_formula_structural       Al4Cd2H120C120N12Cl4O24
_chemical_formula_sum              "Al4 Cd2 H120 C120 N12 Cl4 O24"
_cell_length_a       15.15506540016529
_cell_length_b       15.294931606554387
_cell_length_c       21.02058351562752
_cell_angle_alpha    79.61088862603582
_cell_angle_beta     68.8248008259146
_cell_angle_gamma    60.31649769171938

_space_group_name_H-M_alt    "P 1"
_space_group_IT_number       1

loop_
  _space_group_symop_operation_xyz
  'x, y, z'

loop_
  _atom_site_type_symbol
  _atom_site_label
  _atom_site_symmetry_multiplicity
  _atom_site_fract_x
  _atom_site_fract_y
  _atom_site_fract_z
  _atom_site_occupancy
  Al  Al1       1.0  0.7639960379517419  0.47850295416687066  0.005989053976897208  1.0000
  Al  Al2       1.0  0.7482515993988488  0.021704946486934808  0.4940429385317343  1.0000
  Al  Al3       1.0  0.23599812360792777  0.5215021933958469  0.9940107229358259  1.0000
  Al  Al4       1.0  0.2517488514047132  0.9782963397453912  0.5059602372685744  1.0000
  Cd  Cd1       1.0  0.4999993727374273  0.9999990873425875  1.818222550299223e-06  1.0000
  Cd  Cd2       1.0  1.6703750845623813e-06  0.49999831988584015  0.49999962589301106  1.0000
  H   H1        1.0  0.7853326581344362  0.12835302183142971  0.9840262855088467  1.0000
  H   H2        1.0  0.39759979931587713  0.3715750065506995  0.515872993359828  1.0000
  H   H3        1.0  0.21467125062934408  0.8716468808774067  0.015972697313884496  1.0000
  H   H4        1.0  0.6024015320766692  0.628423313422026  0.4841286439574545  1.0000
  H   H5        1.0  0.7189450517406614  0.0060638040953265  0.9849153820009064  1.0000
  H   H6        1.0  0.20984251050440159  0.49383640704839143  0.5150523392850842  1.0000
  H   H7        1.0  0.28106034608897806  0.993933726768262  0.015087529410422547  1.0000
  H   H8        1.0  0.7901582943536668  0.5061619181651907  0.48494911471487256  1.0000
  H   H9        1.0  0.45557295796220376  0.3611814727016878  0.03642413101079002  1.0000
  H   H10       1.0  0.35317975340156255  0.13869832107550908  0.46343727985870936  1.0000
  H   H11       1.0  0.5444329458272322  0.6388140109484296  0.9635715004066225  1.0000
  H   H12       1.0  0.6468281373283064  0.8612986030245438  0.5365606050565643  1.0000
  H   H13       1.0  0.8334872107959653  0.45684920250592864  0.633883142700604  1.0000
  H   H14       1.0  0.42449251331954935  0.04253854087483692  0.8664614684675697  1.0000
  H   H15       1.0  0.166509615633963  0.5431506780950245  0.36611657032148054  1.0000
  H   H16       1.0  0.5755034023421997  0.957463520611505  0.1335409092497457  1.0000
  H   H17       1.0  0.5127677041123637  0.42435005844882323  0.9357455735415667  1.0000
  H   H18       1.0  0.3725532133057999  0.07571256113924113  0.5643648285515893  1.0000
  H   H19       1.0  0.48723202255477827  0.5756506715611209  0.0642508165303468  1.0000
  H   H20       1.0  0.6274494085413383  0.9242858385908332  0.43563406207575633  1.0000
  H   H21       1.0  0.6413897507038937  0.36615559176200924  0.8763635426503027  1.0000
  H   H22       1.0  0.383595177521123  0.13394130322465972  0.623704545050735  1.0000
  H   H23       1.0  0.3586117904237014  0.6338436229199971  0.12363319580179424  1.0000
  H   H24       1.0  0.6164083817354327  0.866057124215665  0.3762933935544908  1.0000
  H   H25       1.0  0.5757376275997435  0.4992139037850905  0.8884096136856099  1.0000
  H   H26       1.0  0.46297651537447154  0.0008922821416206078  0.6116612123157308  1.0000
  H   H27       1.0  0.4242624797631507  0.5007860738017414  0.11158676725906957  1.0000
  H   H28       1.0  0.5370260486428934  0.9991061366844463  0.388337018983229  1.0000
  H   H29       1.0  0.5436074960839932  0.7811849551628073  0.10933514229949286  1.0000
  H   H30       1.0  0.9338523300415531  0.7189997153524814  0.390628078226797  1.0000
  H   H31       1.0  0.4563854916899642  0.2188170613847548  0.8906687728274034  1.0000
  H   H32       1.0  0.06614733272926561  0.2810008671304304  0.6093734031548619  1.0000
  H   H33       1.0  0.5495099894738757  0.7377062218566125  0.1923852485343289  1.0000
  H   H34       1.0  0.9795153651580725  0.7624985706109301  0.3075900193524674  1.0000
  H   H35       1.0  0.4504846080827108  0.2622965643425843  0.8076180903323403  1.0000
  H   H36       1.0  0.020484767326791987  0.23749901266127443  0.6924110588856037  1.0000
  H   H37       1.0  0.4837699552904624  0.7028181244041323  0.1531694235728409  1.0000
  H   H38       1.0  0.8396059783169818  0.7975065018637723  0.3468352172260935  1.0000
  H   H39       1.0  0.5162281555275002  0.2971816693311595  0.8468332933974309  1.0000
  H   H40       1.0  0.16039418434707653  0.20249186678264416  0.6531647347997732  1.0000
  H   H41       1.0  0.7790314497131944  0.4506213478128061  0.7620619787276864  1.0000
  H   H42       1.0  0.4918874593604771  0.048651090843087316  0.7382693221483122  1.0000
  H   H43       1.0  0.2209680395683122  0.5493792919580615  0.23793752466882268  1.0000
  H   H44       1.0  0.5081096552089619  0.9513517073437756  0.2617336146482215  1.0000
  H   H45       1.0  0.7957139107741258  0.17059718054878198  0.09795648616614736  1.0000
  H   H46       1.0  0.5644878719814984  0.3294201471875056  0.40199910845390713  1.0000
  H   H47       1.0  0.20428095434727578  0.8294064812637031  0.9020426131637219  1.0000
  H   H48       1.0  0.43551334274216913  0.6705812240430261  0.598001137339139  1.0000
  H   H49       1.0  0.6547975506907023  0.21668338536848353  0.12835651374668794  1.0000
  H   H50       1.0  0.5000396328769909  0.2834260041605604  0.3715750770165868  1.0000
  H   H51       1.0  0.34519517710425884  0.7833225250990664  0.8716429056586177  1.0000
  H   H52       1.0  0.49996553262423776  0.7165746161528121  0.6284251242137413  1.0000
  H   H53       1.0  0.7163126204504807  0.2658647665710774  0.16102223188769219  1.0000
  H   H54       1.0  0.6434546633749039  0.2341583930898352  0.33893790676118835  1.0000
  H   H55       1.0  0.28367987349679447  0.7341396304359905  0.8389774619568723  1.0000
  H   H56       1.0  0.35654704922332325  0.7658467904358802  0.6610606639411215  1.0000
  H   H57       1.0  0.0004176055483639771  0.4152225793921148  0.10174077987934278  1.0000
  H   H58       1.0  0.01742581989088886  0.08502196683274123  0.398130879380929  1.0000
  H   H59       1.0  0.9995795135683565  0.5847757825074993  0.8982593908993335  1.0000
  H   H60       1.0  0.982584884076566  0.914972027332226  0.6018642223354717  1.0000
  H   H61       1.0  0.9372478615943934  0.5286090420929809  0.14998823955230733  1.0000
  H   H62       1.0  0.11587703309528054  0.9715634148153143  0.34991149617559353  1.0000
  H   H63       1.0  0.06275165634703946  0.47138778014184624  0.8500131222522638  1.0000
  H   H64       1.0  0.8841300982617571  0.028428987999277004  0.6500865527290925  1.0000
  H   H65       1.0  0.9973299601831158  0.5272052017790259  0.060039889371651674  1.0000
  H   H66       1.0  0.08449411051451253  0.9730273222202327  0.43984217245979096  1.0000
  H   H67       1.0  0.0026711097111659634  0.47279240920342147  0.9399602368442997  1.0000
  H   H68       1.0  0.9155121437914886  0.02696662363254629  0.5601545760425921  1.0000
  H   H69       1.0  0.7138073820843617  0.7043854242808223  0.8281866635271838  1.0000
  H   H70       1.0  0.7464131401501463  0.7955573019588941  0.6718065787256576  1.0000
  H   H71       1.0  0.28619287111725805  0.295615300488258  0.17180990986205555  1.0000
  H   H72       1.0  0.25358148859496055  0.20444325654867876  0.3281957067962722  1.0000
  H   H73       1.0  0.8494811995916863  0.6776304473295343  0.7985107044035045  1.0000
  H   H74       1.0  0.8256443251835184  0.8224790038310842  0.7013222891554418  1.0000
  H   H75       1.0  0.15051688711363923  0.32236872765454894  0.20148738814084768  1.0000
  H   H76       1.0  0.17435238153900215  0.17751472220714962  0.29868200158294655  1.0000
  H   H77       1.0  0.7645484513502867  0.7335225630765619  0.8814149971269741  1.0000
  H   H78       1.0  0.8794720219739601  0.7666613557585013  0.6184056361506689  1.0000
  H   H79       1.0  0.2354502800776714  0.2664781583191171  0.11858168563867368  1.0000
  H   H80       1.0  0.12052556331886428  0.2333354301518042  0.38159697036974893  1.0000
  H   H81       1.0  0.40564526155508673  0.2323119180570928  0.027799513994821702  1.0000
  H   H82       1.0  0.16572332199344686  0.2675710763421294  0.4720987010133654  1.0000
  H   H83       1.0  0.5943564238919737  0.7676834408968957  0.9722004015221086  1.0000
  H   H84       1.0  0.8342843348887282  0.7324243342974412  0.5278994583411745  1.0000
  H   H85       1.0  0.00983525135025341  0.2356407381130623  0.8638688526696681  1.0000
  H   H86       1.0  0.6092607663356376  0.2644693975501227  0.6362000180394531  1.0000
  H   H87       1.0  0.9901615137119608  0.7643605848052887  0.13613303990936745  1.0000
  H   H88       1.0  0.3907395386291912  0.7355311414999547  0.363802965316296  1.0000
  H   H89       1.0  0.028678334781410686  0.30479625018531226  0.7858136951736227  1.0000
  H   H90       1.0  0.6190982792887357  0.19533371909178499  0.7142490922795729  1.0000
  H   H91       1.0  0.9713215050166609  0.6952028517882315  0.21418692530785685  1.0000
  H   H92       1.0  0.3809024063718453  0.8046660675351874  0.285753881948949  1.0000
  H   H93       1.0  0.9193038059301558  0.27800545404289784  0.8164671549038898  1.0000
  H   H94       1.0  0.5135361605504798  0.22217176428220142  0.6836794508172659  1.0000
  H   H95       1.0  0.08069471576274624  0.7219943726435075  0.1835344267269434  1.0000
  H   H96       1.0  0.486465493708046  0.7778258223634041  0.316321518044397  1.0000
  H   H97       1.0  0.05702706400424519  0.5449602351812217  0.6199216230297251  1.0000
  H   H98       1.0  0.7221935682219613  0.9552426515578459  0.8799402302700583  1.0000
  H   H99       1.0  0.9429718997521309  0.45503739676467353  0.3800777699169303  1.0000
  H   H100      1.0  0.2778038676941892  0.044754810391630394  0.1200650226911293  1.0000
  H   H101      1.0  0.02011595551414291  0.5331993120578958  0.7467420571448711  1.0000
  H   H102      1.0  0.8001688583462323  0.9670625476590902  0.7530932500894989  1.0000
  H   H103      1.0  0.9798840034814167  0.4667983285022643  0.25325704310805014  1.0000
  H   H104      1.0  0.19982784736694018  0.03293419144498701  0.24691096778141733  1.0000
  H   H105      1.0  0.7374772379181138  0.552933384251908  0.2602422427127776  1.0000
  H   H106      1.0  0.050829424550905083  0.9470592079043596  0.23957237482078134  1.0000
  H   H107      1.0  0.26252099007865587  0.44707097420167247  0.7397588082939917  1.0000
  H   H108      1.0  0.949167257559566  0.052944528424617915  0.7604241611364697  1.0000
  H   H109      1.0  0.7502344652933176  0.7832973101853894  0.11039043020277  1.0000
  H   H110      1.0  0.14377036359968542  0.717109732311137  0.3896387401697509  1.0000
  H   H111      1.0  0.24976479266911908  0.21670340596942592  0.8896064358802033  1.0000
  H   H112      1.0  0.8562270763643341  0.2828939223930291  0.6103606164183688  1.0000
  H   H113      1.0  0.7438716004454022  0.8752159018099379  0.20063323057544838  1.0000
  H   H114      1.0  0.3195921464036146  0.6249609058270524  0.2993720798835113  1.0000
  H   H115      1.0  0.25613371696110954  0.1247856323087007  0.7993614124613156  1.0000
  H   H116      1.0  0.6804081887404011  0.3750404185972442  0.7006297772600333  1.0000
  H   H117      1.0  0.7312466108086114  0.6542795045527044  0.3442167209334741  1.0000
  H   H118      1.0  0.22996053829661647  0.8455088133893369  0.1555772959820914  1.0000
  H   H119      1.0  0.26875799949822027  0.34572493853757896  0.6557814385714663  1.0000
  H   H120      1.0  0.7700383098002135  0.1544888567485287  0.8444207783077928  1.0000
  C   C1        1.0  0.700062299734128  0.15436143400174981  0.9950955153654346  1.0000
  C   C2        1.0  0.34942522320838537  0.345552972992671  0.5048115390548061  1.0000
  C   C3        1.0  0.29994146319091886  0.8456377215248382  0.004903275012736718  1.0000
  C   C4        1.0  0.6505752009539381  0.6544461046440233  0.49518992407238466  1.0000
  C   C5        1.0  0.8498108036881508  0.5228590565552765  0.08977243524454794  1.0000
  C   C6        1.0  0.9623361602722655  0.977432310174123  0.41018919579464347  1.0000
  C   C7        1.0  0.15018575770556472  0.4771415382768113  0.9102286055615421  1.0000
  C   C8        1.0  0.037664351899010774  0.02256753374080491  0.5898118004487214  1.0000
  C   C9        1.0  0.8997751661330043  0.39251336928909814  0.8737977069528708  1.0000
  C   C10       1.0  0.6659026684417529  0.10758823180594129  0.6263006908546699  1.0000
  C   C11       1.0  0.10022206763391489  0.6074879674843814  0.1262037096151047  1.0000
  C   C12       1.0  0.33410050405249336  0.8924107814344712  0.373703007515921  1.0000
  C   C13       1.0  0.6258330255518701  0.25605062798376116  0.010206561769777502  1.0000
  C   C14       1.0  0.3920106117324807  0.24385208797313143  0.48967652318273014  1.0000
  C   C15       1.0  0.3741670818110236  0.7439493496030779  0.9897898191749019  1.0000
  C   C16       1.0  0.6079949380024416  0.7561463566957229  0.5103208300350417  1.0000
  C   C17       1.0  0.6551988371521063  0.6278824477560861  0.1110645262340171  1.0000
  C   C18       1.0  0.8940916544314916  0.8723231218383989  0.38892584515775036  1.0000
  C   C19       1.0  0.34479801591906756  0.3721196414404987  0.8889368994611926  1.0000
  C   C20       1.0  0.10590452626647814  0.1276782254168012  0.6110752047755739  1.0000
  C   C21       1.0  0.8662343106489058  0.487657819061937  0.8409157358219018  1.0000
  C   C22       1.0  0.6947261377972325  0.012404913980319107  0.6591513386372866  1.0000
  C   C23       1.0  0.1337647989461885  0.5123405600662068  0.15908384956931337  1.0000
  C   C24       1.0  0.3052752202365525  0.987595614588038  0.3408520113531138  1.0000
  C   C25       1.0  0.6645812950108055  0.08645775639945441  0.994329307439784  1.0000
  C   C26       1.0  0.24529917168506904  0.4134485319374761  0.5055748934724135  1.0000
  C   C27       1.0  0.3354253364529994  0.9135368602516324  0.005670270820694185  1.0000
  C   C28       1.0  0.7547029512781692  0.586549068563251  0.4944255993781965  1.0000
  C   C29       1.0  0.7093490427243623  0.3190622841335794  0.06151626432166066  1.0000
  C   C30       1.0  0.5898840117295734  0.18096871117568716  0.43843856820524235  1.0000
  C   C31       1.0  0.2906420164488709  0.6809458888441571  0.9384829991480143  1.0000
  C   C32       1.0  0.41011901745454793  0.8190311447269067  0.5615620259679871  1.0000
  C   C33       1.0  0.7499033111790043  0.6012727692353296  0.1255966993393757  1.0000
  C   C34       1.0  0.9767079855953542  0.8990198868980385  0.37433983470353377  1.0000
  C   C35       1.0  0.2500934538832099  0.3987285536830214  0.8744051932396529  1.0000
  C   C36       1.0  0.023290949501095823  0.10098156258390394  0.6256576998350523  1.0000
  C   C37       1.0  0.6399991191748455  0.4140892779048004  0.9671533440701692  1.0000
  C   C38       1.0  0.5209936979030659  0.0859749108488828  0.5328550734297082  1.0000
  C   C39       1.0  0.36000060749229595  0.5859114521051438  0.0328430460017444  1.0000
  C   C40       1.0  0.47900740116106294  0.9140264985736268  0.46714385370656686  1.0000
  C   C41       1.0  0.6604066854932854  0.330383705946133  0.012336516288350204  1.0000
  C   C42       1.0  0.5030144618247973  0.16953231070423416  0.4875541097176707  1.0000
  C   C43       1.0  0.3395916954181002  0.6696185532468776  0.9876590493923201  1.0000
  C   C44       1.0  0.49699105773093794  0.8304653485904013  0.5124443697122983  1.0000
  C   C45       1.0  0.8100773106831842  0.5781947939000673  0.8786173295308257  1.0000
  C   C46       1.0  0.7667118792758818  0.9219304175297937  0.6213592516829393  1.0000
  C   C47       1.0  0.18992100986982766  0.4218058945445052  0.12138048857426036  1.0000
  C   C48       1.0  0.23328824967102704  0.07806858896380929  0.37864466544046127  1.0000
  C   C49       1.0  0.5176738363480382  0.2838013409870399  0.02377766388445928  1.0000
  C   C50       1.0  0.3251942242549931  0.21609376076964545  0.47610315912893236  1.0000
  C   C51       1.0  0.48233068796851364  0.7161963096933307  0.9762211082392438  1.0000
  C   C52       1.0  0.6748107109364979  0.7839039228618391  0.5238944776553323  1.0000
  C   C53       1.0  0.8707900072418229  0.4753109147826039  0.661566523541843  1.0000
  C   C54       1.0  0.5079214613918881  0.024200622686578306  0.8386760188131956  1.0000
  C   C55       1.0  0.12921091681373298  0.524685949017595  0.3384334102295483  1.0000
  C   C56       1.0  0.4920758000256099  0.9757999096166902  0.16132718329537002  1.0000
  C   C57       1.0  0.5889110248016534  0.42708837999027344  0.9144884423969657  1.0000
  C   C58       1.0  0.4301662999374542  0.07300013881319962  0.5855815714586541  1.0000
  C   C59       1.0  0.4110879983037563  0.5729138357699028  0.08550862525780187  1.0000
  C   C60       1.0  0.5698396304932275  0.9269975534325495  0.4144157726318767  1.0000
  C   C61       1.0  0.5515557534936663  0.7168305759402499  0.14456492320932313  1.0000
  C   C62       1.0  0.9128187904375484  0.7833989895647023  0.35542490990810177  1.0000
  C   C63       1.0  0.44844106939831346  0.2831707278821156  0.8554376286980909  1.0000
  C   C64       1.0  0.0871799962915676  0.21660012289056144  0.6445753439387331  1.0000
  C   C65       1.0  0.8949765305748656  0.49198201897192473  0.765432950656205  1.0000
  C   C66       1.0  0.6524918514959099  0.007867913113457803  0.7346418225673901  1.0000
  C   C67       1.0  0.10502190664703191  0.5080156182148272  0.23456625897312475  1.0000
  C   C68       1.0  0.3475046183508966  0.9921333386618159  0.26536252400784827  1.0000
  C   C69       1.0  0.8420490161458364  0.4708557523903494  0.7324245148021616  1.0000
  C   C70       1.0  0.5455137576052923  0.028646222374220504  0.767799381864826  1.0000
  C   C71       1.0  0.1579509428497232  0.5291418881698107  0.2675745854507596  1.0000
  C   C72       1.0  0.45448382667819226  0.9713535766019278  0.23220315178811995  1.0000
  C   C73       1.0  0.718097178253558  0.23840526242207724  0.11563077799505096  1.0000
  C   C74       1.0  0.5722904722093887  0.2616457099101552  0.3843210286717422  1.0000
  C   C75       1.0  0.2818976566886562  0.7615976140161893  0.8843694475470228  1.0000
  C   C76       1.0  0.4277124991449667  0.7383541650884313  0.6156789061731017  1.0000
  C   C77       1.0  0.9510318140562714  0.49732387154911356  0.10245271149259587  1.0000
  C   C78       1.0  0.05079572241736238  0.0029245472353239045  0.39745333528808396  1.0000
  C   C79       1.0  0.0489663581294056  0.5026744798687801  0.8975478259207319  1.0000
  C   C80       1.0  0.9492100631839339  0.997069384762341  0.6025438892253588  1.0000
  C   C81       1.0  0.7843952332707219  0.6792445053752516  0.8443419779386897  1.0000
  C   C82       1.0  0.8079570221488409  0.820827022072166  0.6555590942789705  1.0000
  C   C83       1.0  0.21560285343461064  0.32075466960883153  0.15565611460566228  1.0000
  C   C84       1.0  0.1920402981077701  0.1791704780692811  0.3444448400254457  1.0000
  C   C85       1.0  0.7451253296135575  0.6594858951076786  0.1776862379192394  1.0000
  C   C86       1.0  0.08233409155499045  0.8407585389099456  0.3222430634519071  1.0000
  C   C87       1.0  0.2548732800882976  0.3405146978569533  0.8223148768277679  1.0000
  C   C88       1.0  0.917664259177208  0.15924293490883915  0.6777536284409748  1.0000
  C   C89       1.0  0.4887586377616345  0.2121672315768777  0.02007536644183011  1.0000
  C   C90       1.0  0.2209452815577252  0.28771853857267626  0.4798223553941482  1.0000
  C   C91       1.0  0.511247524997465  0.7878273712190877  0.9799246878297081  1.0000
  C   C92       1.0  0.77905950779504  0.7122783978765597  0.5201750889455568  1.0000
  C   C93       1.0  0.9694319522243408  0.2972776649186884  0.8323183695776706  1.0000
  C   C94       1.0  0.5988326636775557  0.20284305526747207  0.6677816366535579  1.0000
  C   C95       1.0  0.03056557422937083  0.7027221531534524  0.16768350474688987  1.0000
  C   C96       1.0  0.40116913641969615  0.7971552785603822  0.3322195246526718  1.0000
  C   C97       1.0  0.9976316486702428  0.5222805624891436  0.6536499334874718  1.0000
  C   C98       1.0  0.6738332842677436  0.977683632653573  0.846295219890173  1.0000
  C   C99       1.0  0.002370124785777309  0.47771556274307175  0.3463495151456327  1.0000
  C   C100      1.0  0.3261645625233457  0.022313862247010312  0.15370889773156904  1.0000
  C   C101      1.0  0.975179464335895  0.5174736532692279  0.7240249925672302  1.0000
  C   C102      1.0  0.7168215948059146  0.9825890847552899  0.7759136560007178  1.0000
  C   C103      1.0  0.024820318641751275  0.48252245473446453  0.2759750414533357  1.0000
  C   C104      1.0  0.28317668950135305  0.0174106516920389  0.22409103895470384  1.0000
  C   C105      1.0  0.7392743532235855  0.6242500441491502  0.24482092641037664  1.0000
  C   C106      1.0  0.10847176279445844  0.8758225843117134  0.25505273387047817  1.0000
  C   C107      1.0  0.260724666343869  0.37575359483243886  0.7551789801297131  1.0000
  C   C108      1.0  0.8915274338002495  0.12417957416050743  0.7449463117694389  1.0000
  C   C109      1.0  0.7468936386269291  0.7518341222011956  0.16169155871784824  1.0000
  C   C110      1.0  0.16036938960399294  0.7484347436643335  0.3382838206970361  1.0000
  C   C111      1.0  0.2531096857726  0.24816580484448286  0.8383065814591715  1.0000
  C   C112      1.0  0.8396279321718865  0.25156735938738006  0.6617171289871135  1.0000
  C   C113      1.0  0.7425128955861453  0.8030800934839349  0.21226942494651269  1.0000
  C   C114      1.0  0.2578384389019277  0.6970671400322459  0.28768481591524153  1.0000
  C   C115      1.0  0.25748949292323453  0.1969244087617668  0.7877266826323533  1.0000
  C   C116      1.0  0.7421600551403955  0.3029334911243637  0.7123149801749945  1.0000
  C   C117      1.0  0.7356509012345499  0.6808622972484173  0.29173894904857184  1.0000
  C   C118      1.0  0.20839729908488627  0.8190855076569363  0.20810870300607573  1.0000
  C   C119      1.0  0.26435221747779997  0.3191429278426769  0.7082581936205654  1.0000
  C   C120      1.0  0.7916007840824905  0.18091509054855953  0.7918922284236058  1.0000
  N   N1        1.0  0.5606750875625793  0.11494358513947842  0.005883352581534569  1.0000
  N   N2        1.0  0.18145587942279215  0.38493846882432353  0.49403305921736507  1.0000
  N   N3        1.0  0.43933049083226905  0.8850510419933287  0.9941158590442921  1.0000
  N   N4        1.0  0.8185480881800942  0.615058401722685  0.5059666558012238  1.0000
  N   N5        1.0  0.9468707040392205  0.5009830930285304  0.6227672885968261  1.0000
  N   N6        1.0  0.5709273126147636  0.9987527644132401  0.8773321830999022  1.0000
  N   N7        1.0  0.0531298694997774  0.4990153085689998  0.37723152808959526  1.0000
  N   N8        1.0  0.4290702716687208  0.0012470345629154022  0.12267035055304379  1.0000
  N   N9        1.0  0.7369309301038672  0.7695104221857038  0.2765608814268105  1.0000
  N   N10       1.0  0.28306786796891004  0.7304857183353021  0.22334732387707848  1.0000
  N   N11       1.0  0.2630730681881344  0.23049484971163287  0.7234346498918285  1.0000
  N   N12       1.0  0.7169356309292713  0.2695111383565775  0.7766528671525632  1.0000
  Cl  Cl1       1.0  0.31260129317522006  0.14719569111962735  0.9975757303767236  1.0000
  Cl  Cl2       1.0  0.9573085007462012  0.352825746885891  0.5024123234098568  1.0000
  Cl  Cl3       1.0  0.6873977827027388  0.8528033258557102  0.0024278201120254434  1.0000
  Cl  Cl4       1.0  0.04269388725325033  0.6471711393837013  0.49758684165675493  1.0000
  O   O1        1.0  0.7470577954663398  0.3759970741538154  0.06540960837175899  1.0000
  O   O2        1.0  0.6883997903872939  0.12418141038461529  0.4346064135346381  1.0000
  O   O3        1.0  0.25292989375563496  0.6240132486256512  0.9345933811916748  1.0000
  O   O4        1.0  0.31160317742911314  0.8758198878353769  0.5653963601955424  1.0000
  O   O5        1.0  0.6655738936265649  0.4825102331122295  0.9676348015873086  1.0000
  O   O6        1.0  0.6154356399087461  0.017641801161474308  0.532443777629737  1.0000
  O   O7        1.0  0.33442070645862276  0.5174941429313905  0.03236562552655897  1.0000
  O   O8        1.0  0.3845681798367267  0.9823603483349644  0.4675555992093479  1.0000
  O   O9        1.0  0.8629086049291885  0.47015614225665564  0.04267780762615552  1.0000
  O   O10       1.0  0.8755952438849449  0.030087308508171904  0.4573313045809115  1.0000
  O   O11       1.0  0.1370833901341938  0.5298474555210648  0.9573234884416805  1.0000
  O   O12       1.0  0.1244078129497623  0.9699117429242181  0.5426710751329152  1.0000
  O   O13       1.0  0.8764946580815974  0.3807427321826538  0.9387441727098675  1.0000
  O   O14       1.0  0.6956715359719042  0.11940858444386754  0.5613571043399475  1.0000
  O   O15       1.0  0.1234980983732896  0.6192593607488562  0.0612571051034934  1.0000
  O   O16       1.0  0.30433386185773514  0.8805889464197207  0.4386458070713886  1.0000
  O   O17       1.0  0.6515118053557604  0.580265427455778  0.06829510541306413  1.0000
  O   O18       1.0  0.7999718198501783  0.9199285025890022  0.43174778559085775  1.0000
  O   O19       1.0  0.34848282389928187  0.4197427470279039  0.9317041226211273  1.0000
  O   O20       1.0  0.20002708253847612  0.080070571674284  0.5682537869127413  1.0000
  O   O21       1.0  0.7761107790259487  0.5809325336082908  0.9439267924934427  1.0000
  O   O22       1.0  0.8006372470567915  0.9192650860388057  0.5560445830974529  1.0000
  O   O23       1.0  0.22388877061393947  0.4190696769110218  0.056070458478650685  1.0000
  O   O24       1.0  0.19936340842460265  0.0807339152139406  0.4439595173432734  1.0000
