data_image0
_chemical_formula_structural       Al6H36C48Br2O28
_chemical_formula_sum              "Al6 H36 C48 Br2 O28"
_cell_length_a       11.339400210346797
_cell_length_b       11.93214546258368
_cell_length_c       19.29254867855028
_cell_angle_alpha    89.65825327498248
_cell_angle_beta     84.3256467906447
_cell_angle_gamma    56.41381227227115

_space_group_name_H-M_alt    "P 1"
_space_group_IT_number       1

loop_
  _space_group_symop_operation_xyz
  'x, y, z'

loop_
  _atom_site_type_symbol
  _atom_site_label
  _atom_site_symmetry_multiplicity
  _atom_site_fract_x
  _atom_site_fract_y
  _atom_site_fract_z
  _atom_site_occupancy
  Al  Al1       1.0  0.5610125591135572  0.0536254239127274  0.7323310322373613  1.0000
  Al  Al2       1.0  0.7817233485138005  0.29763390467402207  0.2518561917836947  1.0000
  Al  Al3       1.0  0.26025101770462566  0.08588381039458426  0.7456478936924922  1.0000
  Al  Al4       1.0  0.4876914282892458  0.5884102741135704  0.268471573632084  1.0000
  Al  Al5       1.0  0.26060183417312993  0.3376127612031822  0.7549411548713323  1.0000
  Al  Al6       1.0  0.7590705988398129  0.57885012978938  0.24455930566348627  1.0000
  H   H1        1.0  0.370642359089402  0.7483638159146792  0.4492177528776438  1.0000
  H   H2        1.0  0.2648509714833481  0.44617082114418577  0.5593714196076576  1.0000
  H   H3        1.0  0.7419029627407169  0.6919671754541239  0.4294041665111407  1.0000
  H   H4        1.0  0.7056938176527796  0.8038544613000906  0.5376290714086734  1.0000
  H   H5        1.0  0.29882188072905796  0.4426413599459876  0.43716269284121967  1.0000
  H   H6        1.0  0.868262966188453  0.24217938751926482  0.05179039047324348  1.0000
  H   H7        1.0  0.10692639352897261  0.10596797652529938  0.9424050527257322  1.0000
  H   H8        1.0  0.6280776655935086  0.12186305112550845  0.5381416334234428  1.0000
  H   H9        1.0  0.04906828353207261  0.13873197804823428  0.06357067262239718  1.0000
  H   H10       1.0  0.926060382883989  0.21527093382021423  0.9306065559674576  1.0000
  H   H11       1.0  0.7527161765784737  0.49211301705746285  0.03819877880174261  1.0000
  H   H12       1.0  0.2579443726957819  0.1997089459665418  0.9569994264538193  1.0000
  H   H13       1.0  0.8192820596521528  0.4669218523762453  0.9188788346061614  1.0000
  H   H14       1.0  0.19217091783202994  0.24116514521048055  0.07646323682956077  1.0000
  H   H15       1.0  0.11169210646338726  0.4160605259545916  0.06777282222947177  1.0000
  H   H16       1.0  0.9256008715927494  0.5304854465700471  0.9290866676000036  1.0000
  H   H17       1.0  0.1839160295463672  0.3736462187965726  0.9483221688321704  1.0000
  H   H18       1.0  0.8488297449216802  0.5662184298136024  0.0486434514724152  1.0000
  H   H19       1.0  0.2842630362273015  0.922603091201864  0.44284716121499196  1.0000
  H   H20       1.0  0.7178961554963479  0.1891856886273047  0.5683649955156865  1.0000
  H   H21       1.0  0.2673651511724488  0.9281360620280874  0.5655955446633667  1.0000
  H   H22       1.0  0.7429087812586702  0.26293792570226054  0.45830122080999997  1.0000
  H   H23       1.0  0.40838615364459946  0.7575898993974661  0.5671691414345759  1.0000
  H   H24       1.0  0.5088980323794203  0.05055942100110399  0.5193419758189036  1.0000
  H   H25       1.0  0.6867136944067481  0.1649529530111238  0.4253779634219299  1.0000
  H   H26       1.0  0.6529358245457433  0.6176856292835706  0.4643380981514225  1.0000
  H   H27       1.0  0.34776555727530944  0.27113138504703466  0.5478281482823348  1.0000
  H   H28       1.0  0.6603661419095205  0.6937323404984923  0.5730281683858605  1.0000
  H   H29       1.0  0.42130239880694376  0.26585573144958363  0.42938868280452164  1.0000
  H   H30       1.0  0.37955249640585004  0.5846463879189372  0.484207922792713  1.0000
  H   H31       1.0  0.6047702312481746  0.932182915930248  0.40960258005932804  1.0000
  H   H32       1.0  0.38446520556747993  0.5427966683145369  0.601996197627315  1.0000
  H   H33       1.0  0.33730720885857585  0.0852395727161621  0.5106378383356116  1.0000
  H   H34       1.0  0.5624654139483596  0.5208755451487547  0.48072581613266147  1.0000
  H   H35       1.0  0.7929183846080791  0.9086937352957701  0.7616844495892748  1.0000
  H   H36       1.0  0.86371643530925  0.08000353820218459  0.2873859821194031  1.0000
  C   C1        1.0  0.4633986453426361  0.29895983407630666  0.6498729421812753  1.0000
  C   C2        1.0  0.3632022343362634  0.3528518162834188  0.537008762642614  1.0000
  C   C3        1.0  0.6452827470897946  0.7134320951415487  0.4613024435686839  1.0000
  C   C4        1.0  0.5024531030341708  0.9472636758144756  0.4288223428315162  1.0000
  C   C5        1.0  0.48009163732131555  0.4621386053968236  0.5702362444958452  1.0000
  C   C6        1.0  0.5128871697630332  0.8137073801062372  0.4234585246870707  1.0000
  C   C7        1.0  0.48930033214161034  0.3295693848994148  0.5754793923063415  1.0000
  C   C8        1.0  0.5425549851025481  0.7545417242772458  0.34915497243252946  1.0000
  C   C9        1.0  0.47837744241772373  0.8925557118224391  0.5546971727028732  1.0000
  C   C10       1.0  0.5188570110441829  0.37625044294831156  0.4443822065846275  1.0000
  C   C11       1.0  0.6326525375263755  0.7712153099669478  0.5350131413646932  1.0000
  C   C12       1.0  0.39375537955577045  0.3584378833374515  0.4576785895578083  1.0000
  C   C13       1.0  0.4517658619206771  0.005727097962107994  0.5050934795711938  1.0000
  C   C14       1.0  0.4837428422315995  0.49559720843040367  0.49315575888300583  1.0000
  C   C15       1.0  0.9720579411843103  0.22785436659115987  0.0372361683749531  1.0000
  C   C16       1.0  0.011759604506153196  0.20721037178821428  0.9570829169518542  1.0000
  C   C17       1.0  0.8580146593079833  0.4765634154495187  0.027064635444233397  1.0000
  C   C18       1.0  0.16060853994733296  0.30121411720045893  0.9688861411603752  1.0000
  C   C19       1.0  0.11533743496131886  0.3276984929968164  0.0484010357414064  1.0000
  C   C20       1.0  0.9041317937505299  0.4555736063432788  0.9475518629748476  1.0000
  C   C21       1.0  0.0945264592975477  0.30749891141697105  0.6633257715492886  1.0000
  C   C22       1.0  0.9140752854173542  0.394211927397798  0.34210719465176  1.0000
  C   C23       1.0  0.9669068012260027  0.35143525901608536  0.06457344794196729  1.0000
  C   C24       1.0  0.3751825705785167  0.8516843945116223  0.5414778459673143  1.0000
  C   C25       1.0  0.03978035394113993  0.3130647572603209  0.9307243248735443  1.0000
  C   C26       1.0  0.4977450707535951  0.7825324043498509  0.0918010925248893  1.0000
  C   C27       1.0  0.47824219938650714  0.3024945502172969  0.9164226833361223  1.0000
  C   C28       1.0  0.48048517139231  0.8377179638834631  0.9624706539865996  1.0000
  C   C29       1.0  0.4858106796718006  0.3529783681368314  0.04478143553321697  1.0000
  C   C30       1.0  0.6555072423237646  0.24748303124236762  0.4633524570887174  1.0000
  C   C31       1.0  0.4887378157146358  0.808961326019272  0.030346952987571292  1.0000
  C   C32       1.0  0.4799951768510697  0.32752125931453685  0.9776053342609355  1.0000
  C   C33       1.0  0.47488672016540834  0.8634407707909441  0.9008578212164834  1.0000
  C   C34       1.0  0.49395649148027604  0.37499941226001693  0.10544999998672469  1.0000
  C   C35       1.0  0.45855895170882394  0.9440287572315851  0.6299072661465316  1.0000
  C   C36       1.0  0.5377551836456862  0.4064320686760609  0.3688005366984014  1.0000
  C   C37       1.0  0.4608868334234728  0.27140324246756353  0.847571671300102  1.0000
  C   C38       1.0  0.5294461261835934  0.7292984709815896  0.15956582170172595  1.0000
  C   C39       1.0  0.09348348175251434  0.2906483782563213  0.8541509814614654  1.0000
  C   C40       1.0  0.9205623487181214  0.3794553045734546  0.1421459701109171  1.0000
  C   C41       1.0  0.4573041691741934  0.9157910621849865  0.8321875654666187  1.0000
  C   C42       1.0  0.5334947974055667  0.3945956565934876  0.17083037905003803  1.0000
  C   C43       1.0  0.964980946368705  0.3807907393468353  0.4091290341417774  1.0000
  C   C44       1.0  0.03418057711664354  0.34522664885779614  0.5986647121612874  1.0000
  C   C45       1.0  0.010412024581341906  0.3603006592169677  0.5377082620344282  1.0000
  C   C46       1.0  0.9857476620106881  0.37294729480703376  0.47044883070606847  1.0000
  C   C47       1.0  0.3768980873968675  0.8337863968892517  0.4622943627780528  1.0000
  C   C48       1.0  0.6308863254200502  0.2123035421106678  0.5380716310160664  1.0000
  Br  Br1       1.0  0.37180919316909206  0.07824534799151188  0.36465480011163  1.0000
  Br  Br2       1.0  0.6359969419802383  0.453900714486842  0.6149155828727685  1.0000
  O   O1        1.0  0.5469204607142685  0.9673823231244112  0.648612350569955  1.0000
  O   O2        1.0  0.9056417800169  0.29684152411430625  0.17611026950886802  1.0000
  O   O3        1.0  0.12047539165757125  0.18506696532923428  0.8211203695334672  1.0000
  O   O4        1.0  0.34022745570883484  0.9497986516228847  0.8084082930306234  1.0000
  O   O5        1.0  0.661810538095672  0.31099664146464073  0.18029654661057037  1.0000
  O   O6        1.0  0.358968538018857  0.15970055945743408  0.7455137612819839  1.0000
  O   O7        1.0  0.6752338496766727  0.490850430339222  0.25563445511424016  1.0000
  O   O8        1.0  0.4455186103683104  0.5257899282497149  0.3499378988574121  1.0000
  O   O9        1.0  0.5532168182007595  0.18528230608306012  0.6705807955677938  1.0000
  O   O10       1.0  0.4551168941538535  0.7306668982573682  0.3280172880176622  1.0000
  O   O11       1.0  0.3442132909692431  0.38885857051755573  0.6855041788447095  1.0000
  O   O12       1.0  0.6606492442529801  0.7208531994175329  0.31397701883452095  1.0000
  O   O13       1.0  0.12380867670518823  0.38476831846307386  0.6910249209011992  1.0000
  O   O14       1.0  0.8962758551711901  0.4938749528121063  0.3074523740911275  1.0000
  O   O15       1.0  0.12218092963770041  0.1948189861799107  0.6849487090545876  1.0000
  O   O16       1.0  0.8852571153742164  0.31041540840157467  0.3260173515084119  1.0000
  O   O17       1.0  0.35009049285170607  0.9629045024750834  0.6699216286790275  1.0000
  O   O18       1.0  0.6434493706160822  0.3158460306556917  0.3289842303355498  1.0000
  O   O19       1.0  0.5523462409355773  0.930029366154443  0.8030119967770871  1.0000
  O   O20       1.0  0.4388244101269337  0.4966430909148156  0.21208151907065795  1.0000
  O   O21       1.0  0.5508251975956568  0.15537275764973654  0.8194369384352028  1.0000
  O   O22       1.0  0.4440183693049138  0.7041646958960325  0.19268120965556787  1.0000
  O   O23       1.0  0.3487619682758238  0.36690365483451604  0.8223096360112975  1.0000
  O   O24       1.0  0.11871908091649885  0.37500331203566617  0.8272297278755119  1.0000
  O   O25       1.0  0.6453027532321657  0.7050590381741628  0.17913947299474836  1.0000
  O   O26       1.0  0.8943098611473773  0.4914723000158359  0.1690958077261939  1.0000
  O   O27       1.0  0.7470079330728656  0.9529209545909646  0.7211032823676644  1.0000
  O   O28       1.0  0.8817400347051745  0.1213122986170845  0.2481707389636369  1.0000
