data_image0
_chemical_formula_structural       Nd4H32C24O40
_chemical_formula_sum              "Nd4 H32 C24 O40"
_cell_length_a       6.15865266601014
_cell_length_b       7.499082149012711
_cell_length_c       23.600894352267982
_cell_angle_alpha    90.0001430556394
_cell_angle_beta     93.92077839948058
_cell_angle_gamma    90.00014268482411

_space_group_name_H-M_alt    "P 1"
_space_group_IT_number       1

loop_
  _space_group_symop_operation_xyz
  'x, y, z'

loop_
  _atom_site_type_symbol
  _atom_site_label
  _atom_site_symmetry_multiplicity
  _atom_site_fract_x
  _atom_site_fract_y
  _atom_site_fract_z
  _atom_site_occupancy
  Nd  Nd1       1.0  0.6965170796732566  0.8861311422286915  0.8506142878468383  1.0000
  Nd  Nd2       1.0  0.8034739006211921  0.38613860755715723  0.6493823078087219  1.0000
  Nd  Nd3       1.0  0.3034852830752471  0.11386415907772117  0.14938887954772184  1.0000
  Nd  Nd4       1.0  0.19652684777752677  0.6138633612069455  0.35061489856095573  1.0000
  H   H1        1.0  0.7906099526261271  0.08098945992551168  0.021096447432242402  1.0000
  H   H2        1.0  0.7093949203722332  0.5809790236591323  0.4789005960085647  1.0000
  H   H3        1.0  0.2094005553659457  0.9190111753625625  0.9789034768240017  1.0000
  H   H4        1.0  0.290605826123894  0.41901094363954167  0.5210974577477644  1.0000
  H   H5        1.0  0.27888850469191345  0.8436209782159168  0.7126837911291446  1.0000
  H   H6        1.0  0.2210899699272559  0.34361868796251827  0.7873123441271662  1.0000
  H   H7        1.0  0.7211089820398656  0.15638365754931263  0.28731632254229583  1.0000
  H   H8        1.0  0.7789042617100035  0.6563779468200293  0.21268771097024344  1.0000
  H   H9        1.0  0.36762971010806217  0.9268322281217606  0.6215150293238382  1.0000
  H   H10       1.0  0.13235391906724198  0.4268238041228896  0.8784821123749824  1.0000
  H   H11       1.0  0.632366150022271  0.07317107414352357  0.37848463136584354  1.0000
  H   H12       1.0  0.8676484521584628  0.5731741641616708  0.12151724175772223  1.0000
  H   H13       1.0  0.960271137078884  0.16184841644506048  0.93040916903081  1.0000
  H   H14       1.0  0.5397402612909019  0.6618477702063429  0.5695884628205194  1.0000
  H   H15       1.0  0.03973448735630569  0.8381562193289651  0.06959109106713161  1.0000
  H   H16       1.0  0.4602572329569057  0.33814753106994283  0.43040826127982973  1.0000
  H   H17       1.0  0.5655655851224423  0.12275187518837778  0.7537371099276488  1.0000
  H   H18       1.0  0.9344066151362399  0.6227480751029402  0.746263598886209  1.0000
  H   H19       1.0  0.43442864275790066  0.8772500935869018  0.2462646399555979  1.0000
  H   H20       1.0  0.0655827319917393  0.37724589268458414  0.253737215745936  1.0000
  H   H21       1.0  0.684922184466714  0.0369569098111455  0.6037832647725667  1.0000
  H   H22       1.0  0.8150660069858942  0.5369527079194042  0.8962185108777591  1.0000
  H   H23       1.0  0.3150769260290858  0.9630410584798379  0.3962185729648697  1.0000
  H   H24       1.0  0.18494124121989594  0.46304926086995823  0.10378347328789064  1.0000
  H   H25       1.0  0.35310145453343017  0.15243190244767385  0.9096644579116815  1.0000
  H   H26       1.0  0.146894284472161  0.6524343021835363  0.5903360728580582  1.0000
  H   H27       1.0  0.6468976597280616  0.8475660658366803  0.09033568504220572  1.0000
  H   H28       1.0  0.8531048288522952  0.34756633309552837  0.4096644937928603  1.0000
  H   H29       1.0  0.2611379268271606  0.005118943285353298  0.8658506425936711  1.0000
  H   H30       1.0  0.2388589568355997  0.505123205212044  0.6341489440260377  1.0000
  H   H31       1.0  0.7388628178058667  0.9948830254853716  0.1341482585595628  1.0000
  H   H32       1.0  0.7611401517971002  0.49488676455099057  0.3658537411083032  1.0000
  C   C1        1.0  0.789247048035783  0.8087689870382986  0.9917593194671074  1.0000
  C   C2        1.0  0.71075343818584  0.30875782530456053  0.5082395041788957  1.0000
  C   C3        1.0  0.21076020958423672  0.19123298173450107  0.008238427739669903  1.0000
  C   C4        1.0  0.28925218434236655  0.6912321420109887  0.4917616033045463  1.0000
  C   C5        1.0  0.8766348663295744  0.00037547213482719993  0.9904107656539056  1.0000
  C   C6        1.0  0.6233694886256202  0.5003731921509311  0.5095874582873351  1.0000
  C   C7        1.0  0.12336913338919689  0.9996291636324768  0.009588194071064003  1.0000
  C   C8        1.0  0.37662799996926566  0.4996194421422401  0.49041180798719364  1.0000
  C   C9        1.0  0.615723151830295  0.7694095726981657  0.7133571176659218  1.0000
  C   C10       1.0  0.8842544249592661  0.26940494012147553  0.7866387201365228  1.0000
  C   C11       1.0  0.384272712061339  0.23059106256744136  0.2866408482390668  1.0000
  C   C12       1.0  0.11573004521275719  0.7305996956230485  0.21335946446895807  1.0000
  C   C13       1.0  0.4369274502815088  0.9119001579012643  0.711977216599138  1.0000
  C   C14       1.0  0.0630528737451357  0.41189888710601236  0.7880202774518071  1.0000
  C   C15       1.0  0.5630700373873054  0.08810181086925438  0.28802247337527126  1.0000
  C   C16       1.0  0.9369397294187891  0.5881030816625381  0.21198017205847466  1.0000
  C   C17       1.0  0.4412904303456244  0.013225960365893694  0.6551914081430043  1.0000
  C   C18       1.0  0.0587015992230704  0.5132101699446209  0.8448072501570041  1.0000
  C   C19       1.0  0.5587151969248082  0.9867853428858024  0.34480758087012486  1.0000
  C   C20       1.0  0.941300768225965  0.4867811308639317  0.15519379875640746  1.0000
  C   C21       1.0  0.3075607766379492  0.18600296848438796  0.6548940190664327  1.0000
  C   C22       1.0  0.1924220543869382  0.6859981187722041  0.8451054587501973  1.0000
  C   C23       1.0  0.692441588947986  0.8140003337962227  0.3451078772438835  1.0000
  C   C24       1.0  0.8075786874152372  0.3139998495139124  0.15489471348898587  1.0000
  O   O1        1.0  0.714516255830844  0.7403190192868647  0.9452332707403958  1.0000
  O   O2        1.0  0.7854758731007151  0.24031770707649258  0.5547628057406231  1.0000
  O   O3        1.0  0.2854828678470795  0.25968028247745417  0.054762635255180214  1.0000
  O   O4        1.0  0.21452812378063163  0.7596789277166208  0.4452374250685908  1.0000
  O   O5        1.0  0.8030903776020324  0.7323345911838642  0.039917183021671604  1.0000
  O   O6        1.0  0.6969052168980171  0.23232693602614046  0.4600848985535465  1.0000
  O   O7        1.0  0.1969103651437578  0.2676647105971171  0.9600825655221998  1.0000
  O   O8        1.0  0.3030971486681792  0.7676643647857232  0.5399169977516394  1.0000
  O   O9        1.0  0.8430312569638049  0.07166127805788848  0.9348196597181089  1.0000
  O   O10       1.0  0.6569831006505852  0.5716635013845845  0.565177529842977  1.0000
  O   O11       1.0  0.1569743731155313  0.928340690713149  0.0651780582033652  1.0000
  O   O12       1.0  0.34301926963588864  0.4283358003981588  0.43482224798619745  1.0000
  O   O13       1.0  0.7586915082966642  0.7730996663952039  0.7553531457787418  1.0000
  O   O14       1.0  0.7412844446544541  0.27311441866491043  0.7446464791670099  1.0000
  O   O15       1.0  0.24129621127746498  0.22688630041140098  0.24464763956468263  1.0000
  O   O16       1.0  0.2587081594596725  0.7268928840880945  0.25535354664966553  1.0000
  O   O17       1.0  0.6132641349208897  0.6578237587866834  0.6735855120005567  1.0000
  O   O18       1.0  0.8867293557108836  0.15781144132582622  0.8264079810008911  1.0000
  O   O19       1.0  0.3867398695159707  0.34218754445496546  0.32641132924783284  1.0000
  O   O20       1.0  0.11326813100772881  0.8421851934602383  0.17359213266712462  1.0000
  O   O21       1.0  0.4610093883404645  0.0220794783017766  0.7611816477852714  1.0000
  O   O22       1.0  0.0389663912240721  0.5220841548253147  0.7388184200293112  1.0000
  O   O23       1.0  0.5389897230945663  0.9779171564910171  0.23881976625570908  1.0000
  O   O24       1.0  0.9610278394805362  0.4779178139449981  0.2611820587662663  1.0000
  O   O25       1.0  0.6634845241114676  0.05196688348392088  0.6442921737965082  1.0000
  O   O26       1.0  0.8365053508543595  0.5519557405659438  0.8557066781078081  1.0000
  O   O27       1.0  0.3365162195801333  0.9480350852884668  0.355707151052613  1.0000
  O   O28       1.0  0.16349375681278386  0.4480395607369515  0.14429643071614615  1.0000
  O   O29       1.0  0.40985268482403814  0.33112480058247934  0.6468799626187052  1.0000
  O   O30       1.0  0.0901420212361259  0.8311104722441199  0.8531177258811129  1.0000
  O   O31       1.0  0.5901545577463735  0.6688851691959808  0.3531245637256931  1.0000
  O   O32       1.0  0.9098587328045511  0.16888749602046718  0.14687693831153587  1.0000
  O   O33       1.0  0.10686391591499239  0.17508145485724919  0.6615014398586754  1.0000
  O   O34       1.0  0.3931253836671901  0.6750662913347867  0.8385006879253754  1.0000
  O   O35       1.0  0.8931351955397845  0.8249271814042912  0.3384999741874354  1.0000
  O   O36       1.0  0.6068818616945819  0.324923675990803  0.16150256732279905  1.0000
  O   O37       1.0  0.3958980116344861  0.07128189636135568  0.8794398960007543  1.0000
  O   O38       1.0  0.10409746410401512  0.5712911134665289  0.6205588705545468  1.0000
  O   O39       1.0  0.6041059843142093  0.9287200724195158  0.12056075850663463  1.0000
  O   O40       1.0  0.8959016482943837  0.42871885628987627  0.3794421197962521  1.0000
