data_image0
_chemical_formula_structural       Cu3H42C66N36
_chemical_formula_sum              "Cu3 H42 C66 N36"
_cell_length_a       9.000268429844777
_cell_length_b       15.993825927117998
_cell_length_c       15.992976351809153
_cell_angle_alpha    116.56254838462245
_cell_angle_beta     100.81947000032
_cell_angle_gamma    100.79793076577006

_space_group_name_H-M_alt    "P 1"
_space_group_IT_number       1

loop_
  _space_group_symop_operation_xyz
  'x, y, z'

loop_
  _atom_site_type_symbol
  _atom_site_label
  _atom_site_symmetry_multiplicity
  _atom_site_fract_x
  _atom_site_fract_y
  _atom_site_fract_z
  _atom_site_occupancy
  Cu  Cu1       1.0  0.5000021023487875  0.5000004461140646  0.500001625207929  1.0000
  Cu  Cu2       1.0  5.874903549313128e-07  0.49999585557102916  0.9999990903939134  1.0000
  Cu  Cu3       1.0  1.7069015709996412e-07  3.608962487099999e-06  0.5000012034634267  1.0000
  H   H1        1.0  0.02134727702382828  0.3664584682269165  0.1420971874952457  1.0000
  H   H2        1.0  0.8792353667569586  0.857914180714445  0.22443018929232747  1.0000
  H   H3        1.0  0.6548587730347676  0.7756371777219683  0.6335844984309916  1.0000
  H   H4        1.0  0.9786539603668061  0.6335387493727469  0.857904731840641  1.0000
  H   H5        1.0  0.1207665968664102  0.142084506652175  0.7755643354570836  1.0000
  H   H6        1.0  0.3451420369091736  0.2243637147115009  0.3664171439843358  1.0000
  H   H7        1.0  0.172922051578567  0.249381431486043  0.14888514443689624  1.0000
  H   H8        1.0  0.024020618300447213  0.8511061983018844  0.1005905002639763  1.0000
  H   H9        1.0  0.9234693113445047  0.8994949193279922  0.7505945907518381  1.0000
  H   H10       1.0  0.8270795538274882  0.7506165210650905  0.8511177677115356  1.0000
  H   H11       1.0  0.9759813162604943  0.14889469396644023  0.8994050077788601  1.0000
  H   H12       1.0  0.0765311002151705  0.10050744303757847  0.24940579144949737  1.0000
  H   H13       1.0  0.4056149092591497  0.29365613100833327  0.9637692711084327  1.0000
  H   H14       1.0  0.44171523971894544  0.036370350423304394  0.3300068166320501  1.0000
  H   H15       1.0  0.11201422367788177  0.6701181331642303  0.7063288592660157  1.0000
  H   H16       1.0  0.5943881946581939  0.7063425564107177  0.036234127606981324  1.0000
  H   H17       1.0  0.5582867271704615  0.9636283369886411  0.6699908348545449  1.0000
  H   H18       1.0  0.8879903147470288  0.32988569884454927  0.2936713644763103  1.0000
  H   H19       1.0  0.4686872608749155  0.3607395071979128  0.7329717387579536  1.0000
  H   H20       1.0  0.7359559077410864  0.26689253569978877  0.6278057665807638  1.0000
  H   H21       1.0  0.10828440508323209  0.37222856639181856  0.6391842235260796  1.0000
  H   H22       1.0  0.531315444658169  0.6392606501532396  0.2670303997434757  1.0000
  H   H23       1.0  0.2640456924393105  0.7331054167788192  0.37219214278816537  1.0000
  H   H24       1.0  0.891725086691089  0.6277715905033361  0.3608180042392206  1.0000
  H   H25       1.0  0.5416553300832305  0.3763101018820265  0.5954223862481243  1.0000
  H   H26       1.0  0.9462640724797851  0.40450733709673153  0.7809003279323576  1.0000
  H   H27       1.0  0.1654880661564704  0.21911209848868649  0.6237561358697762  1.0000
  H   H28       1.0  0.45835113625928864  0.6236907901880643  0.4045804770240622  1.0000
  H   H29       1.0  0.05374095282309816  0.5954884102929655  0.21909945683854914  1.0000
  H   H30       1.0  0.8345165330061307  0.7808873237529497  0.3762446226754435  1.0000
  H   H31       1.0  0.4026502972664048  0.6265625297044791  0.6681713650100392  1.0000
  H   H32       1.0  0.7345119963757583  0.33187321787332275  0.9584306681902035  1.0000
  H   H33       1.0  0.776133523475302  0.04167839297454629  0.37358379905811745  1.0000
  H   H34       1.0  0.5973558017139027  0.3734376274232004  0.33183113079704185  1.0000
  H   H35       1.0  0.26548700320670804  0.6681217949101567  0.04156565221641983  1.0000
  H   H36       1.0  0.22386689004399324  0.9583239694182238  0.6264184591855297  1.0000
  H   H37       1.0  0.3191709768752275  0.6188736418314701  0.8059291542675523  1.0000
  H   H38       1.0  0.5132833074148878  0.1941357905417433  0.8130074740116342  1.0000
  H   H39       1.0  0.7004260293573454  0.18711931818716476  0.3812189624881626  1.0000
  H   H40       1.0  0.6808335925717373  0.38112798530280395  0.19407196222365997  1.0000
  H   H41       1.0  0.4867126370201404  0.8058621623093101  0.1869898398478682  1.0000
  H   H42       1.0  0.29957814431818264  0.8128837789154701  0.6187833951788094  1.0000
  C   C1        1.0  0.1073316805664248  0.3492767661758336  0.10191259443792688  1.0000
  C   C2        1.0  0.005385143928371951  0.898151558991664  0.2474569469914486  1.0000
  C   C3        1.0  0.7580365030407138  0.7526349903627221  0.6507768938620728  1.0000
  C   C4        1.0  0.8926684256751399  0.6507204514983227  0.8980892057960758  1.0000
  C   C5        1.0  0.99461642392356  0.10184859834332367  0.7525388189337221  1.0000
  C   C6        1.0  0.24196617277672772  0.2473673718810616  0.3492256025853422  1.0000
  C   C7        1.0  0.19135890911409353  0.2851325114422777  0.10565758137634869  1.0000
  C   C8        1.0  0.0856679477022907  0.8943828905510072  0.17956820539580315  1.0000
  C   C9        1.0  0.9062017879672055  0.8205253862864268  0.7148723418628364  1.0000
  C   C10       1.0  0.8086423282765411  0.7148647061573855  0.8943443379595309  1.0000
  C   C11       1.0  0.914333620802843  0.1056172667930397  0.8204281858768071  1.0000
  C   C12       1.0  0.0938008865438249  0.17947697593923098  0.28512890388970646  1.0000
  C   C13       1.0  0.31867679388630427  0.30838324936024003  0.003457159166636363  1.0000
  C   C14       1.0  0.315105612424432  0.9966663862101511  0.30502612444635696  1.0000
  C   C15       1.0  0.010339443632439283  0.6950943633348315  0.6916541117633487  1.0000
  C   C16       1.0  0.6813255740001977  0.6916139681558703  0.9965442539236947  1.0000
  C   C17       1.0  0.6848963538117729  0.0033323011927351  0.6949709016928054  1.0000
  C   C18       1.0  0.989664361374459  0.30490799880727326  0.3083466277436457  1.0000
  C   C19       1.0  0.23401521757355676  0.3724215618161394  0.9984203436903201  1.0000
  C   C20       1.0  0.23551349498679033  0.0017262939129451995  0.37409199359959183  1.0000
  C   C21       1.0  0.8616566795468542  0.6260297653190461  0.6276983633710529  1.0000
  C   C22       1.0  0.7659867816443151  0.627574920739427  0.0015794512400331704  1.0000
  C   C23       1.0  0.7644854445111945  0.998273128646744  0.6259044173515775  1.0000
  C   C24       1.0  0.1383467594042429  0.3739718618987808  0.3723032593657081  1.0000
  C   C25       1.0  0.2541144930982426  0.42060567125329834  0.9409565924584555  1.0000
  C   C26       1.0  0.31313069296864177  0.0591576627528454  0.4797275345779397  1.0000
  C   C27       1.0  0.8336453929471547  0.5203985652339398  0.579513448594291  1.0000
  C   C28       1.0  0.7458871374509994  0.5793900763417382  0.05904158431192028  1.0000
  C   C29       1.0  0.6868678791671246  0.9408410248644329  0.5202685089081243  1.0000
  C   C30       1.0  0.16636067631750961  0.4796037967863782  0.4204894051587829  1.0000
  C   C31       1.0  0.3200547158482792  0.47372000632915245  0.8502743808413412  1.0000
  C   C32       1.0  0.4699174407472668  0.1496913415294472  0.623484286467523  1.0000
  C   C33       1.0  0.846640351579488  0.3766273603032815  0.5262896281064826  1.0000
  C   C34       1.0  0.6799465195827352  0.5262772112433112  0.14972566245223354  1.0000
  C   C35       1.0  0.5300811320417084  0.8503073460969046  0.37651238236598056  1.0000
  C   C36       1.0  0.15336834669233912  0.6233757365014012  0.47371320596803185  1.0000
  C   C37       1.0  0.3838280430829569  0.48722987810497637  0.7786470398105579  1.0000
  C   C38       1.0  0.6053616119491494  0.22127314448297847  0.7086241091798301  1.0000
  C   C39       1.0  0.896876676124883  0.2914681631855984  0.5127634573352822  1.0000
  C   C40       1.0  0.6161742950879088  0.5127695443037651  0.22135473122576596  1.0000
  C   C41       1.0  0.3946362274218131  0.7787240732766917  0.2913730754183419  1.0000
  C   C42       1.0  0.10313202214693712  0.7085349336190842  0.48723937673922524  1.0000
  C   C43       1.0  0.4527529667665248  0.42045237060152363  0.7204524574081362  1.0000
  C   C44       1.0  0.7324982038488131  0.2794227146496339  0.7000225828179937  1.0000
  C   C45       1.0  0.032586677116057665  0.30001912589133173  0.5795210594191859  1.0000
  C   C46       1.0  0.5472493727107517  0.5795470518253579  0.27955056432305975  1.0000
  C   C47       1.0  0.2675026609539515  0.720573767935093  0.29997396627329215  1.0000
  C   C48       1.0  0.9674201559354644  0.6999825011120961  0.4204815459706738  1.0000
  C   C49       1.0  0.4935480671126626  0.4291041613996285  0.6445737782087946  1.0000
  C   C50       1.0  0.8490996992269898  0.35533837850639555  0.7845657210207264  1.0000
  C   C51       1.0  0.06462013795761828  0.21547124560748185  0.5709309561148714  1.0000
  C   C52       1.0  0.5064565320499312  0.5708952608420076  0.35542698033642495  1.0000
  C   C53       1.0  0.15090306312453808  0.6446573690232141  0.21543320019897286  1.0000
  C   C54       1.0  0.9353840641271347  0.7845296465843886  0.42906979291123554  1.0000
  C   C55       1.0  0.41475358154124814  0.5687094393447791  0.6849132841851286  1.0000
  C   C56       1.0  0.7299262445828489  0.3150726834149111  0.8838477914786722  1.0000
  C   C57       1.0  0.8461471883746086  0.1162532965186784  0.4313879673351977  1.0000
  C   C58       1.0  0.5852517523457835  0.4312914527816644  0.3150882092903018  1.0000
  C   C59       1.0  0.2700727563060284  0.6849223293866943  0.11614977962283052  1.0000
  C   C60       1.0  0.1538566179387002  0.8837490656415522  0.5686140228666686  1.0000
  C   C61       1.0  0.3687182676790357  0.5642046595003477  0.7610197293273373  1.0000
  C   C62       1.0  0.6078152070323314  0.23895606838699732  0.8032239964063663  1.0000
  C   C63       1.0  0.8046943475245812  0.19688220014856478  0.4358541303073055  1.0000
  C   C64       1.0  0.6312852036005268  0.4357947628611072  0.23898403685318215  1.0000
  C   C65       1.0  0.392183395472287  0.761040414346709  0.19677231448114424  1.0000
  C   C66       1.0  0.1953120884490858  0.8031208968050975  0.5641484655634343  1.0000
  N   N1        1.0  0.1278048745101259  0.3924616972275885  0.04836329559486789  1.0000
  N   N2        1.0  0.07935636011007564  0.9517472781210187  0.34418713301081283  1.0000
  N   N3        1.0  0.7353516809651168  0.6559207967121878  0.6076553136931295  1.0000
  N   N4        1.0  0.8721933645515207  0.6075340506181134  0.9516363999121609  1.0000
  N   N5        1.0  0.9206422113724811  0.04825140948720019  0.6558082851278115  1.0000
  N   N6        1.0  0.26465062814332185  0.3440808305982656  0.3923474406366196  1.0000
  N   N7        1.0  0.2972764870547095  0.2645435201613324  0.05634389646714767  1.0000
  N   N8        1.0  0.24085784951067524  0.9437490555987935  0.20830516997959592  1.0000
  N   N9        1.0  0.03274750364074222  0.7918078505189784  0.7354515364147931  1.0000
  N   N10       1.0  0.7027273806494989  0.7354544322408216  0.943659253885045  1.0000
  N   N11       1.0  0.7591448507967443  0.056251101679833895  0.7916919657423378  1.0000
  N   N12       1.0  0.9672566674219567  0.20819524654739743  0.2645483198624277  1.0000
  N   N13       1.0  0.17248876545637867  0.4842559382400251  0.9419081019583757  1.0000
  N   N14       1.0  0.23065105771647154  0.058166056287994594  0.542446051363882  1.0000
  N   N15       1.0  0.688417164261601  0.4577232667410556  0.5158549485180332  1.0000
  N   N16       1.0  0.8275102367389168  0.5157390745797201  0.058090719837999016  1.0000
  N   N17       1.0  0.7693497767174478  0.9418326311803114  0.4575502303259499  1.0000
  N   N18       1.0  0.31158967009633903  0.5422783602805055  0.4841489075666986  1.0000
  N   N19       1.0  0.21383746307598972  0.5191953437453305  0.8847735594333912  1.0000
  N   N20       1.0  0.32924877146085413  0.11521877808579718  0.6345013122660674  1.0000
  N   N21       1.0  0.6949424980501603  0.365666145764983  0.48084384319638923  1.0000
  N   N22       1.0  0.7861626709215912  0.480799669008988  0.115226006812307  1.0000
  N   N23       1.0  0.6707509318239885  0.8847799094569948  0.36549485032188034  1.0000
  N   N24       1.0  0.3050647030167895  0.634336216189915  0.5191597550060081  1.0000
  N   N25       1.0  0.34807715431337277  0.41135414736511683  0.8831251462769389  1.0000
  N   N26       1.0  0.4649442064197444  0.11691099281193121  0.5282555560389427  1.0000
  N   N27       1.0  0.9369426883789913  0.47183428177385167  0.5887160884048939  1.0000
  N   N28       1.0  0.6519255789757209  0.5886438050661977  0.11687475823618593  1.0000
  N   N29       1.0  0.5350536032355818  0.8830884298403773  0.471741986505215  1.0000
  N   N30       1.0  0.06306374759468275  0.5281688151798107  0.4112865074658529  1.0000
  N   N31       1.0  0.47275984270863364  0.5010786301539766  0.6259060677987237  1.0000
  N   N32       1.0  0.8469350861882532  0.3740328631471499  0.8751899948539048  1.0000
  N   N33       1.0  0.9717831576446656  0.12485809803457926  0.4990198838178159  1.0000
  N   N34       1.0  0.5272466242870876  0.4989222619251805  0.37409742082090247  1.0000
  N   N35       1.0  0.1530654416211378  0.625960679611609  0.12480645417372221  1.0000
  N   N36       1.0  0.028220648668650556  0.8751442641256518  0.5009821063840505  1.0000
