data_image0
_chemical_formula_structural       AlH6C27N7Cl6O6
_chemical_formula_sum              "Al1 H6 C27 N7 Cl6 O6"
_cell_length_a       3.983663329616444
_cell_length_b       18.131424360045756
_cell_length_c       18.124919564001296
_cell_angle_alpha    119.98697891583642
_cell_angle_beta     94.19817171568458
_cell_angle_gamma    92.96050271673315

_space_group_name_H-M_alt    "P 1"
_space_group_IT_number       1

loop_
  _space_group_symop_operation_xyz
  'x, y, z'

loop_
  _atom_site_type_symbol
  _atom_site_label
  _atom_site_symmetry_multiplicity
  _atom_site_fract_x
  _atom_site_fract_y
  _atom_site_fract_z
  _atom_site_occupancy
  Al  Al1       1.0  0.006421262266229575  0.999777182145536  0.49851128951807044  1.0000
  H   H1        1.0  0.38175715639737706  0.3102293069855762  0.4118360921255259  1.0000
  H   H2        1.0  0.48024618896135945  0.08220668042132218  0.8950731188871682  1.0000
  H   H3        1.0  0.337582101702793  0.6006624765454378  0.179177934535943  1.0000
  H   H4        1.0  0.7127701864040573  0.31870742160101884  0.8984047117536347  1.0000
  H   H5        1.0  0.5499029134425796  0.6040686482992185  0.41747550707059816  1.0000
  H   H6        1.0  0.6315921692089219  0.08494316432136631  0.18809589593287504  1.0000
  C   C1        1.0  0.5007599650447858  0.065231767973934  0.4330916339043326  1.0000
  C   C2        1.0  0.5622913328648238  0.06562154328360488  0.630481366899964  1.0000
  C   C3        1.0  0.45760500969686285  0.8680334929219242  0.43235216527035886  1.0000
  C   C4        1.0  0.4347448753597048  0.24364389887862356  0.3807360030467704  1.0000
  C   C5        1.0  0.5075123037082887  0.20226292290233516  0.29543741161982234  1.0000
  C   C6        1.0  0.5310939908853953  0.11574017897537202  0.8607114327841429  1.0000
  C   C7        1.0  0.5973469741118222  0.20508401941798837  0.9059874218682819  1.0000
  C   C8        1.0  0.44491334650552244  0.5931628020122587  0.2936830701815792  1.0000
  C   C9        1.0  0.3820217379780216  0.6363564886354212  0.24886028588184655  1.0000
  C   C10       1.0  0.6623963086813943  0.24929525929987054  0.8626636552286652  1.0000
  C   C11       1.0  0.662881891024284  0.20342497119168  0.7740524309980683  1.0000
  C   C12       1.0  0.5878935480785258  0.1138519583172837  0.726800432710803  1.0000
  C   C13       1.0  0.5210465985440321  0.0711833023838153  0.7718566299776197  1.0000
  C   C14       1.0  0.373962038118897  0.724705082619856  0.29443499111405186  1.0000
  C   C15       1.0  0.4399531321488863  0.771970988240973  0.38448902349828235  1.0000
  C   C16       1.0  0.5045957054863663  0.7270163689139224  0.42784152674713005  1.0000
  C   C17       1.0  0.5015492919580777  0.6383467685270076  0.3834118953213304  1.0000
  C   C18       1.0  0.5755335568229892  0.11640221417131609  0.2543207257077923  1.0000
  C   C19       1.0  0.5717505056324297  0.0726003865092011  0.29911953857598655  1.0000
  C   C20       1.0  0.5002267829257645  0.1127626893068836  0.38473998977948287  1.0000
  C   C21       1.0  0.4314034108727113  0.1987559431193162  0.4244275040290402  1.0000
  C   C22       1.0  0.4691274533694596  0.37650147030517894  0.2522163838147832  1.0000
  C   C23       1.0  0.5674252231425426  0.24623683256765366  0.12234698979103337  1.0000
  C   C24       1.0  0.5124626840667472  0.249378567748316  0.24868998225875316  1.0000
  C   C25       1.0  0.4595725482514509  0.49975758905682  0.24661944560464363  1.0000
  C   C26       1.0  0.5261998970588236  0.37915353832058685  0.12028834667430024  1.0000
  C   C27       1.0  0.5869664564402582  0.2523454777366396  0.9995508819319593  1.0000
  N   N1        1.0  0.5210386583783373  0.3339984460848981  0.16494103669089807  1.0000
  N   N2        1.0  0.5740724493125384  0.20528417304581137  0.16623207948934746  1.0000
  N   N3        1.0  0.4545346040416191  0.33227658136552657  0.2926831126153002  1.0000
  N   N4        1.0  0.43560249186357675  0.4601089933970428  0.2923260861364553  1.0000
  N   N5        1.0  0.4979160095883301  0.4630262864421725  0.1626852035340817  1.0000
  N   N6        1.0  0.6023847372151109  0.20609366852658437  0.03890017105288726  1.0000
  N   N7        1.0  0.5585241208793335  0.336874976888474  0.036673776345949614  1.0000
  Cl  Cl1       1.0  0.6608967587425524  0.9673709378592433  0.2485814689780381  1.0000
  Cl  Cl2       1.0  0.3379777480787992  0.249746945137872  0.5290859453088003  1.0000
  Cl  Cl3       1.0  0.6049347613314211  0.7819480753621165  0.5376272660631826  1.0000
  Cl  Cl4       1.0  0.2735163998490079  0.7763392241404575  0.23881372254226804  1.0000
  Cl  Cl5       1.0  0.7617510754360594  0.2578651760962245  0.7218101191565507  1.0000
  Cl  Cl6       1.0  0.40860277526881805  0.9622201759319468  0.7167002380556153  1.0000
  O   O1        1.0  0.24112113548095948  0.9037111514079258  0.4839448569799814  1.0000
  O   O2        1.0  0.2448846323621297  0.012763894304946196  0.4170318345010385  1.0000
  O   O3        1.0  0.31926162896275656  0.08078762029817452  0.5921937827738688  1.0000
  O   O4        1.0  0.6940902935633627  0.9066307731901375  0.41718638756961435  1.0000
  O   O5        1.0  0.7787757706648218  0.013751511161267197  0.5944487731731839  1.0000
  O   O6        1.0  0.7581041205808245  0.08130890716110169  0.48628969349495305  1.0000
