data_image0
_chemical_formula_structural       Zn8C48Cl24O26
_chemical_formula_sum              "Zn8 C48 Cl24 O26"
_cell_length_a       18.659568617246496
_cell_length_b       18.659523332037416
_cell_length_c       18.659518128064526
_cell_angle_alpha    90.00025181840128
_cell_angle_beta     119.99997474665153
_cell_angle_gamma    120.00001755607371

_space_group_name_H-M_alt    "P 1"
_space_group_IT_number       1

loop_
  _space_group_symop_operation_xyz
  'x, y, z'

loop_
  _atom_site_type_symbol
  _atom_site_label
  _atom_site_symmetry_multiplicity
  _atom_site_fract_x
  _atom_site_fract_y
  _atom_site_fract_z
  _atom_site_occupancy
  Zn  Zn1       1.0  0.5858057499285392  0.6287054306950779  0.042903186521343124  1.0000
  Zn  Zn2       1.0  0.4141928067103677  0.45709608211294045  0.8712944969661081  1.0000
  Zn  Zn3       1.0  0.414200904142028  0.45709848232471734  0.04290094753275038  1.0000
  Zn  Zn4       1.0  0.5857970777128118  0.4570998147373403  0.04290261429422057  1.0000
  Zn  Zn5       1.0  0.4141929758514562  0.8712949476748902  0.4570970459527715  1.0000
  Zn  Zn6       1.0  0.5857983274798784  0.04290302444756832  0.45710077476802985  1.0000
  Zn  Zn7       1.0  0.5858059833504965  0.04290276045589551  0.6287060330311007  1.0000
  Zn  Zn8       1.0  0.4142001161751593  0.04289899793645451  0.45709862505080423  1.0000
  C   C1        1.0  0.49999840531199136  0.6372664163379013  0.8627308186480818  1.0000
  C   C2        1.0  0.22546425362403966  0.3627327074455735  0.862736534293923  1.0000
  C   C3        1.0  0.5000018371851593  0.637270688519912  0.13726899866189493  1.0000
  C   C4        1.0  0.49999714586561333  0.362732941020809  0.13726688737620646  1.0000
  C   C5        1.0  0.7745359296367126  0.6372634056405958  0.13726938287697257  1.0000
  C   C6        1.0  0.500000852487382  0.36273252552260266  0.862733348460985  1.0000
  C   C7        1.0  0.49999786992697165  0.8627319839091641  0.362731188565803  1.0000
  C   C8        1.0  0.7745371930205208  0.137269448070164  0.637271755039599  1.0000
  C   C9        1.0  0.4999979473616703  0.8627313353709525  0.637268863508396  1.0000
  C   C10       1.0  0.5000000503736785  0.1372671171218656  0.6372671660998109  1.0000
  C   C11       1.0  0.22546330879070786  0.8627348599243161  0.3627327136729902  1.0000
  C   C12       1.0  0.4999939219819252  0.13726893469198134  0.36273128895766854  1.0000
  C   C13       1.0  0.8900065937878237  0.6950030720472711  0.1950048963200216  1.0000
  C   C14       1.0  0.10999238832188488  0.8049962499256935  0.3049981439133376  1.0000
  C   C15       1.0  0.9462301267974881  0.6581786393458912  0.22311601712320325  1.0000
  C   C16       1.0  0.053769911707170936  0.8418210826601538  0.27688540763081443  1.0000
  C   C17       1.0  0.053770218316948476  0.7119494478802935  0.2768862366073179  1.0000
  C   C18       1.0  0.9462289450407932  0.7880507117043293  0.22311528649405657  1.0000
  C   C19       1.0  0.10999467698683668  0.30499806673253  0.8049999568646484  1.0000
  C   C20       1.0  0.8900061508199568  0.19500346994584566  0.6950048075309496  1.0000
  C   C21       1.0  0.05376952018886522  0.27688554484861067  0.8418219788104936  1.0000
  C   C22       1.0  0.9462275195798711  0.22311417287895816  0.6581792838018005  1.0000
  C   C23       1.0  0.94622899109509  0.22311495510270885  0.7880515405398683  1.0000
  C   C24       1.0  0.05377078030646486  0.27688618153311495  0.7119516238128085  1.0000
  C   C25       1.0  0.4999987416596736  0.6949999640125953  0.19500116505821544  1.0000
  C   C26       1.0  0.4999982027006806  0.8049966638476747  0.3049965689359907  1.0000
  C   C27       1.0  0.435065174171548  0.6581803395979406  0.2231162163614825  1.0000
  C   C28       1.0  0.5649345329474328  0.8418223328374453  0.27688611454772166  1.0000
  C   C29       1.0  0.4350635277258374  0.7119499138605005  0.27688489852886267  1.0000
  C   C30       1.0  0.5649351980524526  0.7880504645078903  0.2231147980248664  1.0000
  C   C31       1.0  0.5000001288575717  0.30499680542014573  0.8049976647086298  1.0000
  C   C32       1.0  0.49999989885998974  0.19500327480605503  0.6950040200402797  1.0000
  C   C33       1.0  0.5649361480406867  0.2768848634607012  0.8418215453492977  1.0000
  C   C34       1.0  0.43506475482379864  0.223114779186929  0.6581800410522548  1.0000
  C   C35       1.0  0.5649363005051313  0.2231151079425118  0.7880505084321002  1.0000
  C   C36       1.0  0.4350643460364977  0.27688559110843164  0.7119504138917138  1.0000
  C   C37       1.0  0.4999985035384567  0.6950028530406627  0.8049958980663947  1.0000
  C   C38       1.0  0.499999630544572  0.8049986491684322  0.695003067047729  1.0000
  C   C39       1.0  0.4350636425138245  0.6581786839938176  0.7119496174887914  1.0000
  C   C40       1.0  0.5649343853891292  0.8418200865823235  0.7880509022855192  1.0000
  C   C41       1.0  0.4350635088170732  0.7119497982733592  0.6581793014589649  1.0000
  C   C42       1.0  0.5649347003390587  0.7880498099191798  0.841821308944489  1.0000
  C   C43       1.0  0.4999958099944379  0.30499526667172466  0.1950044046488272  1.0000
  C   C44       1.0  0.4999969019737235  0.1950030022572662  0.3049972733320275  1.0000
  C   C45       1.0  0.5649345329573094  0.27688471797692676  0.22311612170683753  1.0000
  C   C46       1.0  0.43506047305907447  0.22311518863936186  0.2768840237056267  1.0000
  C   C47       1.0  0.5649331726779393  0.22311342244649515  0.2768856907479814  1.0000
  C   C48       1.0  0.43506128957892537  0.2768839713206148  0.22311418277703857  1.0000
  Cl  Cl1       1.0  0.8894306898326146  0.546934502512066  0.19471488488139949  1.0000
  Cl  Cl2       1.0  0.11056829225996258  0.9530648194451175  0.3052827961481909  1.0000
  Cl  Cl3       1.0  0.1105690771144052  0.6575033307221858  0.3052865743349073  1.0000
  Cl  Cl4       1.0  0.889430961400542  0.8424963912933238  0.1947180659413731  1.0000
  Cl  Cl5       1.0  0.11056731072757481  0.30528514542734086  0.9530650104585093  1.0000
  Cl  Cl6       1.0  0.8894286726325049  0.1947141722545212  0.5469335802701067  1.0000
  Cl  Cl7       1.0  0.8894319864745697  0.19471478570561365  0.8424975321124606  1.0000
  Cl  Cl8       1.0  0.11056927889626418  0.30528653217480445  0.6575042355473926  1.0000
  Cl  Cl9       1.0  0.3522200614238925  0.5469349945767162  0.19471616122059734  1.0000
  Cl  Cl10      1.0  0.6477794644367729  0.9530668402375395  0.30528447129832853  1.0000
  Cl  Cl11      1.0  0.3522181008247711  0.6575032776128608  0.30528375398879587  1.0000
  Cl  Cl12      1.0  0.6477806249535188  0.84249710075553  0.19471594256494018  1.0000
  Cl  Cl13      1.0  0.647779870690165  0.30528461582824923  0.9530657717352612  1.0000
  Cl  Cl14      1.0  0.35222015702568393  0.19471546439638132  0.5469353770932699  1.0000
  Cl  Cl15      1.0  0.6477830689391268  0.19471757044315305  0.8424971900372497  1.0000
  Cl  Cl16      1.0  0.3522188152557675  0.3052843662620006  0.6575038151975079  1.0000
  Cl  Cl17      1.0  0.352218008935864  0.5469334811094199  0.6575020054989267  1.0000
  Cl  Cl18      1.0  0.6477808941105886  0.9530648518849885  0.8424973440872703  1.0000
  Cl  Cl19      1.0  0.35221737924696556  0.6575038074894548  0.5469343280792529  1.0000
  Cl  Cl20      1.0  0.6477803923348515  0.8424960194915839  0.9530660635376903  1.0000
  Cl  Cl21      1.0  0.6477792281653335  0.3052861346739206  0.19471682095061027  1.0000
  Cl  Cl22      1.0  0.3522184344159029  0.19471708487191117  0.30528518867402715  1.0000
  Cl  Cl23      1.0  0.6477790577769937  0.19471435185275968  0.30528517016622914  1.0000
  Cl  Cl24      1.0  0.3522160983753294  0.3052817667209595  0.194715050302662  1.0000
  O   O1        1.0  0.4999985892347211  0.5000020064571516  0.9999987740847872  1.0000
  O   O2        1.0  0.5602394762849625  0.6751202805662331  0.9453581873166995  1.0000
  O   O3        1.0  0.27023897121836876  0.38512154953954786  0.8248774987289096  1.0000
  O   O4        1.0  0.4397585464812011  0.5546388112452547  0.11487880942995325  1.0000
  O   O5        1.0  0.4397587781397903  0.5546382065187319  0.8248768956830335  1.0000
  O   O6        1.0  0.560244066470588  0.6751244249621422  0.11488190876902839  1.0000
  O   O7        1.0  0.27023764997553446  0.385116259568484  0.9453595849970925  1.0000
  O   O8        1.0  0.439759682533399  0.3851177673248499  0.1148831476961333  1.0000
  O   O9        1.0  0.729760442204231  0.5546400235459855  0.11488192101136702  1.0000
  O   O10       1.0  0.5602382350356762  0.3851189972292133  0.11487971616167407  1.0000
  O   O11       1.0  0.7297615088411148  0.6751217883210289  0.11488121409536932  1.0000
  O   O12       1.0  0.4397606080857343  0.3851158874033516  0.824881044972706  1.0000
  O   O13       1.0  0.560244239987078  0.3851234788877989  0.9453618282241795  1.0000
  O   O14       1.0  0.4999996199231233  0.9999976017369647  0.5000023722390452  1.0000
  O   O15       1.0  0.43975862859036124  0.8248786099655661  0.385118700595278  1.0000
  O   O16       1.0  0.7297582271941961  0.11488032647097414  0.5546373448694482  1.0000
  O   O17       1.0  0.560240668669614  0.9453626393280175  0.6751237976313716  1.0000
  O   O18       1.0  0.5602382477415091  0.9453616046560072  0.38511831358745496  1.0000
  O   O19       1.0  0.43975873286603206  0.8248793276215663  0.5546408153256266  1.0000
  O   O20       1.0  0.7297640755601194  0.11488351883952673  0.6751230159682109  1.0000
  O   O21       1.0  0.5602416825730927  0.11488120486064456  0.6751223071573379  1.0000
  O   O22       1.0  0.27023853988834634  0.9453592984111978  0.38511576001822323  1.0000
  O   O23       1.0  0.43976019458232674  0.114879039104494  0.5546393803606833  1.0000
  O   O24       1.0  0.27023703569599156  0.8248777524420134  0.3851221432718502  1.0000
  O   O25       1.0  0.5602404242457055  0.11488330187832213  0.3851216917795455  1.0000
  O   O26       1.0  0.4397549144845384  0.1148790528907782  0.3851152136407946  1.0000
