data_image0
_chemical_formula_structural       Mg6H30C60S6N6O30
_chemical_formula_sum              "Mg6 H30 C60 S6 N6 O30"
_cell_length_a       6.789065808383496
_cell_length_b       33.952546047988946
_cell_length_c       33.97824670600104
_cell_angle_alpha    119.57344905819895
_cell_angle_beta     93.82674975107405
_cell_angle_gamma    93.80522691480428

_space_group_name_H-M_alt    "P 1"
_space_group_IT_number       1

loop_
  _space_group_symop_operation_xyz
  'x, y, z'

loop_
  _atom_site_type_symbol
  _atom_site_label
  _atom_site_symmetry_multiplicity
  _atom_site_fract_x
  _atom_site_fract_y
  _atom_site_fract_z
  _atom_site_occupancy
  Mg  Mg1       1.0  0.7805704515266425  0.32337149856285646  0.6917426899351966  1.0000
  Mg  Mg2       1.0  0.7742459742206121  0.6682841766202189  0.36551058449672513  1.0000
  Mg  Mg3       1.0  0.45694143421368244  0.3683778260379143  0.6765439192857272  1.0000
  Mg  Mg4       1.0  0.10589998808887909  0.6972978793129626  0.33178708070160917  1.0000
  Mg  Mg5       1.0  0.08881440157471591  0.3081806981570949  0.6315681179476655  1.0000
  Mg  Mg6       1.0  0.4085139308501908  0.6345571343905905  0.30282426127340056  1.0000
  H   H1        1.0  0.932918327993299  0.9819352161502266  0.5451034359670786  1.0000
  H   H2        1.0  0.21094537576177427  0.04342943496124011  0.568967343027154  1.0000
  H   H3        1.0  0.31647220976677193  0.18282818512378898  0.545228302714321  1.0000
  H   H4        1.0  0.029872712844216727  0.1930185652708901  0.5966266861509126  1.0000
  H   H5        1.0  0.853114533561225  0.11893732049617262  0.5340734768753279  1.0000
  H   H6        1.0  0.11811438426324364  0.036324371370547184  0.4373497246071594  1.0000
  H   H7        1.0  0.8409523690277183  0.974756150160289  0.4134855686123089  1.0000
  H   H8        1.0  0.4488099850385792  0.8243523638045714  0.41191927764635483  1.0000
  H   H9        1.0  0.15661422523596968  0.8042240991477172  0.43582423260339453  1.0000
  H   H10       1.0  0.045558127497983464  0.8808536060457397  0.4782511435629074  1.0000
  H   H11       1.0  0.9511591415003122  0.5631239968380086  0.018119478321295773  1.0000
  H   H12       1.0  0.16666953920191935  0.5254712798479986  0.9564370082520668  1.0000
  H   H13       1.0  0.1335483676669966  0.3622404578157514  0.8170126847070519  1.0000
  H   H14       1.0  0.8362864018070864  0.4037981539695394  0.8068203957417595  1.0000
  H   H15       1.0  0.7337567800913335  0.41528331239569394  0.8808368468427332  1.0000
  H   H16       1.0  0.08114487257738998  0.4007438162480668  0.963351378734245  1.0000
  H   H17       1.0  0.8671010231329742  0.4385042047278915  0.025154479053462443  1.0000
  H   H18       1.0  0.623639181117717  0.5877440647967517  0.1759066347126676  1.0000
  H   H19       1.0  0.351769917878343  0.6316384158098245  0.19590265952916752  1.0000
  H   H20       1.0  0.164094553267148  0.5972954660361366  0.11932909851136483  1.0000
  H   H21       1.0  0.3878793994404574  0.454853727710919  0.4368166015612687  1.0000
  H   H22       1.0  0.6414020903946279  0.43094514550577406  0.4745506655671435  1.0000
  H   H23       1.0  0.7703928878672954  0.4547676316847742  0.637641314770363  1.0000
  H   H24       1.0  0.4328509633362215  0.4034744214198582  0.5965515529305705  1.0000
  H   H25       1.0  0.31823912750686384  0.46605496588208695  0.5850952240435561  1.0000
  H   H26       1.0  0.679272930707185  0.5626784763362237  0.599046624962426  1.0000
  H   H27       1.0  0.42717501099699706  0.5866170231072516  0.5612592189241424  1.0000
  H   H28       1.0  0.036418990272437585  0.5882146740400598  0.4123792101725882  1.0000
  H   H29       1.0  0.7204515956203038  0.5642514789898457  0.36839859934464414  1.0000
  H   H30       1.0  0.5671475764688622  0.5218788287359502  0.40258831925021343  1.0000
  C   C1        1.0  0.8708229895212581  0.9723970902240565  0.47640382990887525  1.0000
  C   C2        1.0  0.9763042726943636  0.9939739820240734  0.5222987907139895  1.0000
  C   C3        1.0  0.12717742550507438  0.027438416000144596  0.5352375997378118  1.0000
  C   C4        1.0  0.19017759067319415  0.04346574886640302  0.5048396110199036  1.0000
  C   C5        1.0  0.5738789557099506  0.1466239387232804  0.5363789340144436  1.0000
  C   C6        1.0  0.4719791865845408  0.1845651157480646  0.5568823901645601  1.0000
  C   C7        1.0  0.5675908067853469  0.2262424138632824  0.5925536920626655  1.0000
  C   C8        1.0  0.7743505898825659  0.22960264428834887  0.6071796939942544  1.0000
  C   C9        1.0  0.8727512966024448  0.19007648097885277  0.5854016319728785  1.0000
  C   C10       1.0  0.7750964483446763  0.1490816287402623  0.55076281970031  1.0000
  C   C11       1.0  0.44771408245347993  0.2648267989637674  0.612401363735664  1.0000
  C   C12       1.0  0.07861622516752928  0.02351575596303951  0.4598229347394138  1.0000
  C   C13       1.0  0.9273706501057217  0.9900919081754934  0.44681912917770444  1.0000
  C   C14       1.0  0.7367684394590767  0.8568814933074904  0.4483228055879706  1.0000
  C   C15       1.0  0.603522148159186  0.8198724782400151  0.4175429639864631  1.0000
  C   C16       1.0  0.6638439732758387  0.7760381445371395  0.39431746657887606  1.0000
  C   C17       1.0  0.8670553948771269  0.7697962077383879  0.401646524303345  1.0000
  C   C18       1.0  0.001350693289126247  0.8089210509666317  0.43118847972315416  1.0000
  C   C19       1.0  0.938421890299942  0.8517473108438408  0.45479366873784943  1.0000
  C   C20       1.0  0.5094238926307  0.7382987529214731  0.3642745275117605  1.0000
  C   C21       1.0  0.8994080590312094  0.5039163320137447  0.027680676054949057  1.0000
  C   C22       1.0  0.9825765663195437  0.5282603003603867  0.006049765700218764  1.0000
  C   C23       1.0  0.09932872761666543  0.5077022496884284  0.9724491310542119  1.0000
  C   C24       1.0  0.14645571945687413  0.4612288730543385  0.9563615475380374  1.0000
  C   C25       1.0  0.42704555705557107  0.38972297314094834  0.8531668933946576  1.0000
  C   C26       1.0  0.28718528838938073  0.3722057459678112  0.8152605012552101  1.0000
  C   C27       1.0  0.3409866637842142  0.3662462757395346  0.7736088300629688  1.0000
  C   C28       1.0  0.544238688424194  0.3775865535378671  0.7702408199641084  1.0000
  C   C29       1.0  0.6822385797900452  0.3954397949637141  0.8097455550317179  1.0000
  C   C30       1.0  0.6256703881758624  0.40173283209514205  0.8506966989972611  1.0000
  C   C31       1.0  0.18266549895155743  0.34753101822363414  0.7350567204538195  1.0000
  C   C32       1.0  0.054974427780635424  0.43609885790782243  0.97627167638948  1.0000
  C   C33       1.0  0.9379853582815368  0.4565638500187815  0.009846796320225289  1.0000
  C   C34       1.0  0.8793050188675974  0.5913630880283165  0.14329355032361932  1.0000
  C   C35       1.0  0.7828680987924839  0.5977255586368599  0.1802955694200462  1.0000
  C   C36       1.0  0.887208463248143  0.6183396465284119  0.2240887989455373  1.0000
  C   C37       1.0  0.09670617078215564  0.6318203151058696  0.23032087898760506  1.0000
  C   C38       1.0  0.1918631595998832  0.6222566341767859  0.1912145340991884  1.0000
  C   C39       1.0  0.08610778890046328  0.6029829309696026  0.14843558999051953  1.0000
  C   C40       1.0  0.7707725097855443  0.6260079597850137  0.26181149463404546  1.0000
  C   C41       1.0  0.39423935989261577  0.5236329793960621  0.49594430266098743  1.0000
  C   C42       1.0  0.4537395437543806  0.47767457808421204  0.4716795799961772  1.0000
  C   C43       1.0  0.5912273838616143  0.46468683022394686  0.492270742249424  1.0000
  C   C44       1.0  0.6843553120732723  0.4951262976450722  0.5387281070214414  1.0000
  C   C45       1.0  0.03674254506265841  0.46368352181830375  0.6104024412979996  1.0000
  C   C46       1.0  0.9143355527444752  0.4431337416682268  0.6277560363744  1.0000
  C   C47       1.0  0.9744635118302651  0.40743301933432713  0.6337024300198948  1.0000
  C   C48       1.0  0.1666325526933221  0.39281734941322816  0.6224472282191442  1.0000
  C   C49       1.0  0.286805045862259  0.41464832811775665  0.6047757138479638  1.0000
  C   C50       1.0  0.22365377264156894  0.4493411035829524  0.5985181700570834  1.0000
  C   C51       1.0  0.8349369254517638  0.38755487492112917  0.6524170494293813  1.0000
  C   C52       1.0  0.6176296110563938  0.540178347887398  0.5637432231107624  1.0000
  C   C53       1.0  0.47995286385663843  0.5532134761704411  0.5432559073668414  1.0000
  C   C54       1.0  0.28812455580337115  0.5517935606230324  0.4085605036789772  1.0000
  C   C55       1.0  0.18558553880078682  0.5825721317443853  0.40233411613269965  1.0000
  C   C56       1.0  0.26922865175646365  0.6058086957443718  0.3817640349831563  1.0000
  C   C57       1.0  0.46505919705585796  0.59849643674864  0.36819732829983565  1.0000
  C   C58       1.0  0.5698784392781207  0.5689545887910227  0.3777835126326181  1.0000
  C   C59       1.0  0.4833108903291146  0.5453340592106669  0.39695417597349075  1.0000
  C   C60       1.0  0.14502030258753248  0.6359086176618189  0.37413855066686336  1.0000
  S   S1        1.0  0.6424991698228412  0.9093225673879675  0.48226901494302155  1.0000
  S   S2        1.0  0.44701544364220774  0.09527940150893241  0.49104774819737423  1.0000
  S   S3        1.0  0.7336562776339121  0.5727908221401635  0.09077327787218789  1.0000
  S   S4        1.0  0.35184643798894644  0.39567211240550654  0.9044760677195142  1.0000
  S   S5        1.0  0.16046439136025728  0.51774964011706  0.4269746217155656  1.0000
  S   S6        1.0  0.9550454566003593  0.5090134840129394  0.6043722175771933  1.0000
  N   N1        1.0  0.7305633280960038  0.9378571889114798  0.45757796540235063  1.0000
  N   N2        1.0  0.3448059931262718  0.07455410648358199  0.5214955881796328  1.0000
  N   N3        1.0  0.7942207445607182  0.5196110307738024  0.062300073294999044  1.0000
  N   N4        1.0  0.2698550579044365  0.4468450775102967  0.9252543782758949  1.0000
  N   N5        1.0  0.27321868939431243  0.5425048329984039  0.4801969717279633  1.0000
  N   N6        1.0  0.8222570568974914  0.47849011773510597  0.5532142033268173  1.0000
  O   O1        1.0  0.26784488926852384  0.2607145593104008  0.5965497611792187  1.0000
  O   O2        1.0  0.5288331831916224  0.3030628288735713  0.6468763387664892  1.0000
  O   O3        1.0  0.8793007652669187  0.2682530656329121  0.6398758570184242  1.0000
  O   O4        1.0  0.33648648595242037  0.7460648899606426  0.3552125222849511  1.0000
  O   O5        1.0  0.5528969076322099  0.6969421948554457  0.34814844047829036  1.0000
  O   O6        1.0  0.9338894770268807  0.7288917269294899  0.38218117752801106  1.0000
  O   O7        1.0  0.42905185991050837  0.9033418922027465  0.4713557678723461  1.0000
  O   O8        1.0  0.7233295930407023  0.9265613087419382  0.5291839893716029  1.0000
  O   O9        1.0  0.5918680270345503  0.06526489869753499  0.466785246388369  1.0000
  O   O10       1.0  0.29992127007818675  0.10721474082805565  0.46699704314772816  1.0000
  O   O11       1.0  0.0068053661371366096  0.33584792929194407  0.7391884947153358  1.0000
  O   O12       1.0  0.22567070917963153  0.34377239159528034  0.6968527158237237  1.0000
  O   O13       1.0  0.6106081523419035  0.3716427467271473  0.7316306556193837  1.0000
  O   O14       1.0  0.5900245284403738  0.6092222276281448  0.25407293733199776  1.0000
  O   O15       1.0  0.8558936899239454  0.6512316331157493  0.3031175605906498  1.0000
  O   O16       1.0  0.20462810202605633  0.6532514418823395  0.2711771004052607  1.0000
  O   O17       1.0  0.5260248148759742  0.5677214350714338  0.09653120300049518  1.0000
  O   O18       1.0  0.7974725029382126  0.6025699726647034  0.07364692826646281  1.0000
  O   O19       1.0  0.5270060529604094  0.4014741854180883  0.9344180997900792  1.0000
  O   O20       1.0  0.1931362385011893  0.35961016674060886  0.8925426701696679  1.0000
  O   O21       1.0  0.670931415267816  0.4034263000672452  0.6641986274840619  1.0000
  O   O22       1.0  0.881798911775412  0.35308069018534394  0.656163737015703  1.0000
  O   O23       1.0  0.2390197302228215  0.36008866609985546  0.6283375085393458  1.0000
  O   O24       1.0  0.9810426336211082  0.644931605328928  0.3909242559331076  1.0000
  O   O25       1.0  0.2046670341230481  0.6520009327475053  0.3489041654520335  1.0000
  O   O26       1.0  0.5513560435370832  0.6179066548990804  0.34674265971585067  1.0000
  O   O27       1.0  0.9577481496148719  0.5285573373436989  0.43187287413040554  1.0000
  O   O28       1.0  0.19488174276943934  0.47084074753914956  0.39727315680264036  1.0000
  O   O29       1.0  0.12405681073398256  0.5332366641744954  0.5985584826384596  1.0000
  O   O30       1.0  0.8322262712504978  0.53315184231991  0.6403847922000877  1.0000
