data_image0
_chemical_formula_structural       Co2H32C58S2N8O8F12
_chemical_formula_sum              "Co2 H32 C58 S2 N8 O8 F12"
_cell_length_a       8.242416872848697
_cell_length_b       13.559272078384366
_cell_length_c       14.838866280403815
_cell_angle_alpha    86.16395846300927
_cell_angle_beta     79.26725364554227
_cell_angle_gamma    83.89594417390481

_space_group_name_H-M_alt    "P 1"
_space_group_IT_number       1

loop_
  _space_group_symop_operation_xyz
  'x, y, z'

loop_
  _atom_site_type_symbol
  _atom_site_label
  _atom_site_symmetry_multiplicity
  _atom_site_fract_x
  _atom_site_fract_y
  _atom_site_fract_z
  _atom_site_occupancy
  Co  Co1       1.0  0.9135874179338047  0.4172469304861364  0.9118427378365581  1.0000
  Co  Co2       1.0  0.08640456295272972  0.5827593870843939  0.0881571457343995  1.0000
  H   H1        1.0  0.7331418721418927  0.24787162914492447  0.15276015287831507  1.0000
  H   H2        1.0  0.26685512276993256  0.7521265209776542  0.8472383617033401  1.0000
  H   H3        1.0  0.6046668599877237  0.1735556214399807  0.30084428333190516  1.0000
  H   H4        1.0  0.3953286619259516  0.8264440136456982  0.699154293218939  1.0000
  H   H5        1.0  0.7488668747580861  0.5214206108092228  0.2786039157890413  1.0000
  H   H6        1.0  0.2511308785850588  0.4785805097782898  0.7213943391802715  1.0000
  H   H7        1.0  0.6108676935923754  0.45070700801864655  0.4274214401586106  1.0000
  H   H8        1.0  0.3891337641784034  0.5492941131076066  0.5725764312599678  1.0000
  H   H9        1.0  0.9228737774497375  0.5899690926986806  0.7799669043151168  1.0000
  H   H10       1.0  0.0771277996362727  0.410031285707248  0.2200316739361696  1.0000
  H   H11       1.0  0.9531855229021106  0.22487385889478861  0.04012688683835819  1.0000
  H   H12       1.0  0.04680987969631902  0.7751265189112073  0.959870982879778  1.0000
  H   H13       1.0  0.46671966599360815  0.7058038315502059  0.0239686438819788  1.0000
  H   H14       1.0  0.53328357973961  0.2941861499630534  0.976034438889762  1.0000
  H   H15       1.0  0.6135618550548261  0.539298889260337  0.029214943076993873  1.0000
  H   H16       1.0  0.3864352598345349  0.46069851769493636  0.9707863000139128  1.0000
  H   H17       1.0  0.46896189052458237  0.35278128910800194  0.7770096181600791  1.0000
  H   H18       1.0  0.5310355059766823  0.6472220588955223  0.2229898857720158  1.0000
  H   H19       1.0  0.17366090259959324  0.31685932275318146  0.7800304746344509  1.0000
  H   H20       1.0  0.8263406747071826  0.6831410555037463  0.21996877750901692  1.0000
  H   H21       1.0  0.7911547090835429  0.7636493059816726  0.7641575259252136  1.0000
  H   H22       1.0  0.20884499496024492  0.2363473584634405  0.2358448421900974  1.0000
  H   H23       1.0  0.13319150832504792  0.0645960278122288  0.0341681626531738  1.0000
  H   H24       1.0  0.8668061261443897  0.9354058351976203  0.9658307332677937  1.0000
  H   H25       1.0  0.3449170154228299  0.3111957009469748  0.6464676608218909  1.0000
  H   H26       1.0  0.6550787892065699  0.688809874441972  0.3535325460310474  1.0000
  H   H27       1.0  0.948632152040446  0.3415776391724208  0.6045622206619895  1.0000
  H   H28       1.0  0.051369662572213294  0.6584212545378136  0.39543440179380696  1.0000
  H   H29       1.0  0.8287438093715167  0.29516431858991865  0.47399949637537725  1.0000
  H   H30       1.0  0.17125342372925448  0.7048323463899988  0.5259990840873314  1.0000
  H   H31       1.0  0.36795458034486467  0.16072883449699296  0.7617080546605166  1.0000
  H   H32       1.0  0.632039587002822  0.8392715434274151  0.23828859512349956  1.0000
  C   C1        1.0  0.8223929949629323  0.4347074173245246  0.11476787162261808  1.0000
  C   C2        1.0  0.17762658313577614  0.5652885087635225  0.8852264187997108  1.0000
  C   C3        1.0  0.7474275547126439  0.38987170019785106  0.2055636760457915  1.0000
  C   C4        1.0  0.25256996044155505  0.6101309055323298  0.7944345130424679  1.0000
  C   C5        1.0  0.7074338360808455  0.29159142754616596  0.21357501372324347  1.0000
  C   C6        1.0  0.29256674350183687  0.7084074661334867  0.7864210626906143  1.0000
  C   C7        1.0  0.634817155914881  0.24993125859442236  0.2976815575193966  1.0000
  C   C8        1.0  0.3651794828173606  0.7500691184971869  0.7023202277015912  1.0000
  C   C9        1.0  0.7142546701543254  0.4458132464532128  0.2839911814745831  1.0000
  C   C10       1.0  0.2857442739127763  0.5541804485699372  0.7160067290078089  1.0000
  C   C11       1.0  0.6383078565580648  0.40517453600934056  0.3677433790174049  1.0000
  C   C12       1.0  0.36169678517719467  0.594822130197066  0.632253760451668  1.0000
  C   C13       1.0  0.6204300699236285  0.7508756841808193  0.8935645369577472  1.0000
  C   C14       1.0  0.3795734578630174  0.2491202380827103  0.1064381544395374  1.0000
  C   C15       1.0  0.824027604607494  0.6200389584266116  0.8331651187949658  1.0000
  C   C16       1.0  0.17597150308086643  0.3799614194711579  0.16683438904898645  1.0000
  C   C17       1.0  0.5424129407093474  0.8514543565375517  0.8834254304132045  1.0000
  C   C18       1.0  0.4575887561334326  0.148545278850051  0.1165752024551523  1.0000
  C   C19       1.0  0.7160527259151196  0.34953027876096593  0.6990208274898035  1.0000
  C   C20       1.0  0.283957735894262  0.6504686138224256  0.30098568228918765  1.0000
  C   C21       1.0  0.7887688951067134  0.37375791936539554  0.778390884208079  1.0000
  C   C22       1.0  0.21125455501467627  0.6262446874541041  0.2216167500843369  1.0000
  C   C23       1.0  0.04563132704041812  0.2069714188983908  0.9794160652039279  1.0000
  C   C24       1.0  0.9543637178330614  0.7930311869196061  0.020580357908265498  1.0000
  C   C25       1.0  0.3797045548603748  0.009041093766107598  0.8844648683818122  1.0000
  C   C26       1.0  0.620294314418274  0.9909607694233173  0.11553389968890569  1.0000
  C   C27       1.0  0.598466441608835  0.3064761732224354  0.3759221313148728  1.0000
  C   C28       1.0  0.4015320267426787  0.6935204916390773  0.6240776690819558  1.0000
  C   C29       1.0  0.5692350748954881  0.6857109025092426  0.9683572905207996  1.0000
  C   C30       1.0  0.4307672183027194  0.3142850194257035  0.0316462026189157  1.0000
  C   C31       1.0  0.2661556638825928  0.09910681021582946  0.8961540160517103  1.0000
  C   C32       1.0  0.7338366740665876  0.9008972797896888  0.1038452924486464  1.0000
  C   C33       1.0  0.577363363310134  0.30085086039148484  0.5501833434067365  1.0000
  C   C34       1.0  0.4226382142174074  0.6991495177164495  0.4498165826289123  1.0000
  C   C35       1.0  0.6513600631881289  0.5909449019449864  0.971756048564387  1.0000
  C   C36       1.0  0.34863299021095884  0.40905473203654436  0.028246153147847505  1.0000
  C   C37       1.0  0.5462041921927608  0.34078769766009015  0.7099186077158849  1.0000
  C   C38       1.0  0.4538020872657427  0.6592141657128678  0.29008343660646563  1.0000
  C   C39       1.0  0.507651875172712  0.2669243667230034  0.4692712552032603  1.0000
  C   C40       1.0  0.492347233840242  0.73307601028079  0.5307322959937792  1.0000
  C   C41       1.0  0.1709448377052922  0.25874020661612446  0.8343155879254667  1.0000
  C   C42       1.0  0.8290498069033488  0.7412572004269647  0.16568388918938837  1.0000
  C   C43       1.0  0.7505080618345729  0.7159678798288879  0.8242678109685072  1.0000
  C   C44       1.0  0.2494928776807229  0.2840287843488197  0.17573645097310475  1.0000
  C   C45       1.0  0.1466479971657009  0.11777872317132679  0.9753530395517273  1.0000
  C   C46       1.0  0.8533480454318793  0.8822253672239451  0.02464655929007622  1.0000
  C   C47       1.0  0.4774982722324808  0.3174905023767919  0.6361546053904732  1.0000
  C   C48       1.0  0.5225020704858495  0.6825098755515596  0.36384544849541806  1.0000
  C   C49       1.0  0.8164400908855426  0.3342926764477738  0.6131074748042948  1.0000
  C   C50       1.0  0.18355555100566784  0.6657062154705783  0.3868938302558007  1.0000
  C   C51       1.0  0.7482542555630616  0.3087313062305127  0.5398697444340285  1.0000
  C   C52       1.0  0.25174520918794485  0.6912668441022447  0.460129188339323  1.0000
  C   C53       1.0  0.276919027878705  0.17239649469298965  0.8242390733322722  1.0000
  C   C54       1.0  0.7230733105120136  0.8276075950145411  0.17576158295244673  1.0000
  C   C55       1.0  0.5234121805801452  0.15080804081205199  0.47821207416790656  1.0000
  C   C56       1.0  0.4765882814534237  0.8491915943959681  0.5217886865506927  1.0000
  C   C57       1.0  0.32083634914738474  0.3051863806432918  0.47363035955316235  1.0000
  C   C58       1.0  0.6791664636308996  0.6948139973462303  0.5263707864166064  1.0000
  S   S1        1.0  0.3698724893557355  0.903273306652366  0.9575955031896581  1.0000
  S   S2        1.0  0.6301242686917448  0.09672632771891897  0.04240698886403042  1.0000
  N   N1        1.0  0.503888932994215  0.0006318410818977001  0.8135630643368541  1.0000
  N   N2        1.0  0.496111410386419  0.9993685363994728  0.18643901122558046  1.0000
  N   N3        1.0  0.5947288569575236  0.9126098538934  0.8130740495765707  1.0000
  N   N4        1.0  0.405274313324945  0.08738829623312228  0.18692786910695955  1.0000
  N   N5        1.0  0.7783287784847917  0.5578915401955982  0.9064406954811588  1.0000
  N   N6        1.0  0.22166415581982332  0.44210883635726356  0.0935614732905492  1.0000
  N   N7        1.0  0.0559061591757271  0.2770599108566715  0.910298940239933  1.0000
  N   N8        1.0  0.9440902400429679  0.7229419522715828  0.08969873574690723  1.0000
  O   O1        1.0  0.8253245868036744  0.38553574459489665  0.04406563566371348  1.0000
  O   O2        1.0  0.1746975830986487  0.6144594371950515  0.9559378664891865  1.0000
  O   O3        1.0  0.9315531291175108  0.4066168261745702  0.764383111274732  1.0000
  O   O4        1.0  0.06846310881681456  0.5933998956357343  0.23559340950832558  1.0000
  O   O5        1.0  0.8741836115982554  0.520384103273848  0.11238624965603346  1.0000
  O   O6        1.0  0.12579825417103052  0.4796236969597274  0.8876193080810778  1.0000
  O   O7        1.0  0.7092979855277194  0.3619520035169187  0.8604118585475148  1.0000
  O   O8        1.0  0.29070725278373294  0.6380409490878376  0.1395888150850979  1.0000
  F   F1        1.0  0.43718905362862165  0.10951344161790638  0.4228168747249014  1.0000
  F   F2        1.0  0.5628101744788054  0.8904861928145491  0.5771867094126647  1.0000
  F   F3        1.0  0.21651904969935032  0.25792988219865975  0.5413322207351996  1.0000
  F   F4        1.0  0.783484879014438  0.7420712383927892  0.4586694383359813  1.0000
  F   F5        1.0  0.29434814696111994  0.4041327712111595  0.48911145305180526  1.0000
  F   F6        1.0  0.7056509609480061  0.5958676065376095  0.5108887286843354  1.0000
  F   F7        1.0  0.2685327295406665  0.293108452927079  0.39376227657366053  1.0000
  F   F8        1.0  0.7314653826312566  0.7068904389034643  0.6062407944624935  1.0000
  F   F9        1.0  0.4666244459948673  0.11685188571143357  0.5654572157510245  1.0000
  F   F10       1.0  0.5333768935645011  0.8831499773901751  0.43454331829575216  1.0000
  F   F11       1.0  0.6852089379173665  0.1139934208022666  0.4561424521582325  1.0000
  F   F12       1.0  0.3147892926867328  0.8860047289039201  0.5438586301419049  1.0000
