data_image0
_chemical_formula_structural       Zn4SiH48C80N16F8
_chemical_formula_sum              "Zn4 Si1 H48 C80 N16 F8"
_cell_length_a       13.94666566307907
_cell_length_b       13.94687176580958
_cell_length_c       15.622812993583794
_cell_angle_alpha    116.50503682157849
_cell_angle_beta     116.50526323426996
_cell_angle_gamma    89.99881025287422

_space_group_name_H-M_alt    "P 1"
_space_group_IT_number       1

loop_
  _space_group_symop_operation_xyz
  'x, y, z'

loop_
  _atom_site_type_symbol
  _atom_site_label
  _atom_site_symmetry_multiplicity
  _atom_site_fract_x
  _atom_site_fract_y
  _atom_site_fract_z
  _atom_site_occupancy
  Zn  Zn1       1.0  0.6595908075331138  0.659548859442907  0.3192358389317392  1.0000
  Zn  Zn2       1.0  0.34040934122376854  0.34045087924177864  0.6807640297241379  1.0000
  Zn  Zn3       1.0  0.8270949569754152  0.8270372840998518  0.6541285351951772  1.0000
  Zn  Zn4       1.0  0.17290583153895517  0.17296245582222267  0.34587197451574536  1.0000
  Si  Si1       1.0  0.49999962763022415  0.49999983581871965  4.368875466047383e-07  1.0000
  H   H1        1.0  0.6827333018636282  0.5574442067520876  0.46017194818362844  1.0000
  H   H2        1.0  0.7774530065402487  0.9026398155984975  0.4603281276303263  1.0000
  H   H3        1.0  0.5574416154374761  0.7773225236586753  0.4603135215386658  1.0000
  H   H4        1.0  0.9027120290894999  0.6827993282390707  0.460219246548789  1.0000
  H   H5        1.0  0.3172665540269223  0.4425569500585525  0.5398301114073618  1.0000
  H   H6        1.0  0.22254736150371462  0.09736173096782605  0.5396727888533234  1.0000
  H   H7        1.0  0.44256000332733697  0.22267840737035263  0.5396861637855678  1.0000
  H   H8        1.0  0.09728834251792773  0.3172006168621023  0.5397816735486103  1.0000
  H   H9        1.0  0.5657761485372603  0.4311034839828378  0.4701450511865274  1.0000
  H   H10       1.0  0.9042346178487153  0.03902329156897363  0.47024491468085466  1.0000
  H   H11       1.0  0.43101590489736463  0.9041683774942723  0.4701575428085789  1.0000
  H   H12       1.0  0.038917546330218045  0.5656965224255543  0.4700677619629375  1.0000
  H   H13       1.0  0.4342230675957881  0.5688976715904203  0.5298563673494315  1.0000
  H   H14       1.0  0.09576584900518265  0.9609772484669817  0.5297552726956738  1.0000
  H   H15       1.0  0.5689843426694452  0.09583035466004468  0.5298415967401838  1.0000
  H   H16       1.0  0.9610824083702598  0.43430362785471727  0.5299335685209315  1.0000
  H   H17       1.0  0.30269730234429915  0.36762632053265065  0.15280431097872338  1.0000
  H   H18       1.0  0.8500686708256494  0.7852193659709951  0.1528872830099457  1.0000
  H   H19       1.0  0.36799772268409475  0.8501330191699308  0.15295730619819642  1.0000
  H   H20       1.0  0.7849375621928731  0.3027542503198147  0.15273500030006196  1.0000
  H   H21       1.0  0.6973021114086182  0.6323728219798709  0.8471956493429857  1.0000
  H   H22       1.0  0.14993105746081878  0.21478217935794663  0.8471129924186727  1.0000
  H   H23       1.0  0.6320024260727807  0.14986671951476174  0.8470425624576876  1.0000
  H   H24       1.0  0.21506290466102473  0.6972462897161406  0.8472651870764665  1.0000
  H   H25       1.0  0.4310641371842651  0.49413031611624086  0.15450336030558273  1.0000
  H   H26       1.0  0.7235608910006165  0.6603719617849889  0.15469074090324134  1.0000
  H   H27       1.0  0.49450790022766716  0.7235384907035608  0.15481844041559606  1.0000
  H   H28       1.0  0.6602001578105714  0.4311750690917645  0.15470564043743443  1.0000
  H   H29       1.0  0.5689349584716298  0.5058680250450108  0.8454962812954819  1.0000
  H   H30       1.0  0.27643851918883666  0.3396287821926832  0.8453092158047256  1.0000
  H   H31       1.0  0.5054915099617859  0.2764622532741114  0.8451815162923709  1.0000
  H   H32       1.0  0.3398007259502692  0.5688252657650921  0.8452941365526243  1.0000
  H   H33       1.0  0.276620139363935  0.5177973692810909  0.31332819852600846  1.0000
  H   H34       1.0  0.036596733622516836  0.7954921528596159  0.3132109219247284  1.0000
  H   H35       1.0  0.5178054391567315  0.036760329352041744  0.31330175508418273  1.0000
  H   H36       1.0  0.7954942904751832  0.27663892782705785  0.3132916430459715  1.0000
  H   H37       1.0  0.7233793696354526  0.4822023681662201  0.6866710290748373  1.0000
  H   H38       1.0  0.9634017887282058  0.20450616398697727  0.6867848326309343  1.0000
  H   H39       1.0  0.4821939745961785  0.9632388131604795  0.6866982052375262  1.0000
  H   H40       1.0  0.20450553662121249  0.7233616109715156  0.6867079032755186  1.0000
  H   H41       1.0  0.08444880706890956  0.5295166707437104  0.31217831147005626  1.0000
  H   H42       1.0  0.22776846163559847  0.782755870303582  0.312314086227147  1.0000
  H   H43       1.0  0.5293700552503111  0.22778116172328564  0.3121544539907574  1.0000
  H   H44       1.0  0.7829174331707592  0.08465986252665657  0.312596531111609  1.0000
  H   H45       1.0  0.915550924781023  0.47048327312007376  0.6878219675722973  1.0000
  H   H46       1.0  0.7722305064162216  0.21724285937597182  0.6876837712115389  1.0000
  H   H47       1.0  0.4706307332640663  0.7722185781987887  0.6878460557201649  1.0000
  H   H48       1.0  0.21708367344063376  0.9153406787466806  0.687404297319958  1.0000
  C   C1        1.0  0.5983018676421494  0.5120743302695273  0.3932273567720798  1.0000
  C   C2        1.0  0.7949550699360941  0.8810893418831257  0.39338393336690564  1.0000
  C   C3        1.0  0.512163690785961  0.7948940362260684  0.39340490782925025  1.0000
  C   C4        1.0  0.8810933660681998  0.5983461034449673  0.39329179865755026  1.0000
  C   C5        1.0  0.40169786420777615  0.4879256135942639  0.606772922270281  1.0000
  C   C6        1.0  0.2050452981078764  0.1189122046832054  0.6066169831167444  1.0000
  C   C7        1.0  0.4878369701243345  0.20510609221430792  0.6065938177192932  1.0000
  C   C8        1.0  0.11890687793514594  0.4016542301745074  0.6067073372774701  1.0000
  C   C9        1.0  0.5325443213687393  0.4420907724750974  0.3983260407941742  1.0000
  C   C10       1.0  0.8656937168609319  0.956221779154163  0.3984373110424785  1.0000
  C   C11       1.0  0.4421420143641868  0.8657093754128268  0.39841578290990043  1.0000
  C   C12       1.0  0.9561178485744861  0.5325298844675003  0.39827420325164553  1.0000
  C   C13       1.0  0.46745531167125887  0.5579101779190621  0.6016749673553009  1.0000
  C   C14       1.0  0.1343050535710262  0.04377896358612788  0.6015620046104501  1.0000
  C   C15       1.0  0.5578565367806831  0.1342895594458326  0.601582484915255  1.0000
  C   C16       1.0  0.04388261827941172  0.46747065556845496  0.6017259841248902  1.0000
  C   C17       1.0  0.42257615325146963  0.39022152683117634  0.31270147748191585  1.0000
  C   C18       1.0  0.8900658524018469  0.9225078569095614  0.3128101441895055  1.0000
  C   C19       1.0  0.3903486322893032  0.8900879778866227  0.31277974514657825  1.0000
  C   C20       1.0  0.922334976084315  0.4225927605896017  0.31259054499351163  1.0000
  C   C21       1.0  0.577423578598463  0.6097784170326078  0.687298801560445  1.0000
  C   C22       1.0  0.10993355778760631  0.0774928870681109  0.6871898125184616  1.0000
  C   C23       1.0  0.6096512936170273  0.10991155438158266  0.6872190720677906  1.0000
  C   C24       1.0  0.07766571362012802  0.5774079858628339  0.6874106938245319  1.0000
  C   C25       1.0  0.3864288306819362  0.4081119650150667  0.22284971973924425  1.0000
  C   C26       1.0  0.8363952678251184  0.8147738279149336  0.2229579680369511  1.0000
  C   C27       1.0  0.4084277540550118  0.836467127856096  0.2230377782742464  1.0000
  C   C28       1.0  0.8145481806269147  0.3864722774453709  0.22281770598427633  1.0000
  C   C29       1.0  0.613570583070981  0.5918871774974547  0.7771502405824647  1.0000
  C   C30       1.0  0.16360318450981742  0.18522611347409418  0.7770410288953329  1.0000
  C   C31       1.0  0.5915734478028511  0.16353400835203047  0.7769623174364567  1.0000
  C   C32       1.0  0.18545228622698312  0.6135282625905844  0.777182481392252  1.0000
  C   C33       1.0  0.457283904887298  0.4787201437560853  0.22334417849696564  1.0000
  C   C34       1.0  0.7661312285618962  0.7446265274160094  0.22350044419308535  1.0000
  C   C35       1.0  0.4790509908708174  0.7661387609064646  0.22362503835005748  1.0000
  C   C36       1.0  0.7444513752385761  0.4573315255633047  0.2234974638446231  1.0000
  C   C37       1.0  0.5427158269626347  0.5212798001077061  0.776656100545388  1.0000
  C   C38       1.0  0.2338687225751172  0.25537522432941984  0.7765008826770411  1.0000
  C   C39       1.0  0.5209498928900302  0.2338615739503922  0.7763747386399941  1.0000
  C   C40       1.0  0.2555484518578268  0.5426690132352688  0.7765020824768669  1.0000
  C   C41       1.0  0.34536296150386653  0.3217850647183622  0.31735295294177485  1.0000
  C   C42       1.0  0.9719206894502153  0.9956012736003642  0.3174538376270705  1.0000
  C   C43       1.0  0.3218217033625095  0.9718796709461155  0.317370121618552  1.0000
  C   C44       1.0  0.995444979328589  0.3454158585793649  0.3172349924848136  1.0000
  C   C45       1.0  0.6546367703460589  0.6782148791454287  0.6826473261005858  1.0000
  C   C46       1.0  0.028078918359099536  0.00439745731657839  0.6825446608666538  1.0000
  C   C47       1.0  0.6781781272973505  0.028119266387307097  0.6826294283166874  1.0000
  C   C48       1.0  0.004555392278838465  0.6545840865218011  0.6827659276125856  1.0000
  C   C49       1.0  0.25127919836622686  0.35937463709755235  0.31700964823981087  1.0000
  C   C50       1.0  0.06564069243827221  0.957649344148933  0.3170220362280247  1.0000
  C   C51       1.0  0.3593538793111862  0.06563388179478843  0.31700999814940195  1.0000
  C   C52       1.0  0.9575954280740788  0.25133538886459655  0.3169379492241902  1.0000
  C   C53       1.0  0.7487208515807213  0.6406261081175018  0.6829909495231944  1.0000
  C   C54       1.0  0.9343583996541582  0.04235059847747635  0.6829776017592976  1.0000
  C   C55       1.0  0.6406463682556236  0.9343648503595361  0.6829891413993607  1.0000
  C   C56       1.0  0.042405038779818924  0.7486651511713588  0.6830622381523385  1.0000
  C   C57       1.0  0.22689101266970374  0.46001794630867465  0.3155337396752884  1.0000
  C   C58       1.0  0.0885655264074927  0.8555122649723116  0.3154929726910182  1.0000
  C   C59       1.0  0.4599650254052321  0.08863315826574342  0.31551147344180913  1.0000
  C   C60       1.0  0.8555048767373068  0.2269475848238826  0.3155263842912177  1.0000
  C   C61       1.0  0.7731091360871717  0.539981792376018  0.6844661289805883  1.0000
  C   C62       1.0  0.9114337597413427  0.1444872660585189  0.6845052034683192  1.0000
  C   C63       1.0  0.5400348052546278  0.9113657790676797  0.6844880764934302  1.0000
  C   C64       1.0  0.1444953672660391  0.7730527487955925  0.6844727516438028  1.0000
  C   C65       1.0  0.1293190355763016  0.46659565317629154  0.3158367024336854  1.0000
  C   C66       1.0  0.18649207120263614  0.8492886088621601  0.3158939361039685  1.0000
  C   C67       1.0  0.46648424036850145  0.18652364683746467  0.3158277108899981  1.0000
  C   C68       1.0  0.8493674401449527  0.12948838057298664  0.3160713554865211  1.0000
  C   C69       1.0  0.8706819722251568  0.5334058946274138  0.6841648551050099  1.0000
  C   C70       1.0  0.813507342550274  0.15071053365036136  0.6841060242177406  1.0000
  C   C71       1.0  0.5335159083883739  0.813476091847228  0.6841721577658858  1.0000
  C   C72       1.0  0.15063280385839328  0.8705119530464955  0.6839277804484923  1.0000
  C   C73       1.0  0.0944914600228799  0.37116777769163883  0.319424101788556  1.0000
  C   C74       1.0  0.22490870972252003  0.9483232756570671  0.31952343003865025  1.0000
  C   C75       1.0  0.3710714494424821  0.2248858534701057  0.3194809439064912  1.0000
  C   C76       1.0  0.9483629285519726  0.09463990511947881  0.31960545181864575  1.0000
  C   C77       1.0  0.9055092296815701  0.6288329687608041  0.6805771370294879  1.0000
  C   C78       1.0  0.77509070403039  0.0516758668554543  0.6804765302830588  1.0000
  C   C79       1.0  0.6289286993143932  0.7751138852145869  0.6805189247493927  1.0000
  C   C80       1.0  0.0516365804474078  0.9053598323278252  0.6803937757822  1.0000
  N   N1        1.0  0.5611260779484865  0.5314064092856368  0.30830350701324244  1.0000
  N   N2        1.0  0.7472521633576293  0.7768339622082718  0.30847129598939915  1.0000
  N   N3        1.0  0.5316319201585671  0.7471942537720576  0.30856107071568317  1.0000
  N   N4        1.0  0.7767960222991876  0.5611900443881553  0.30844903474739754  1.0000
  N   N5        1.0  0.43887429365894104  0.46859353581553603  0.6916974130841496  1.0000
  N   N6        1.0  0.25274788658931874  0.22316678300678913  0.6915293017736062  1.0000
  N   N7        1.0  0.4683682285983154  0.2528054849126348  0.6914387979402008  1.0000
  N   N8        1.0  0.22320486146166021  0.43881029046870174  0.6915507422426614  1.0000
  N   N9        1.0  0.170195086364906  0.30803438594180216  0.32055037986630447  1.0000
  N   N10       1.0  0.1503142251033296  0.012570130201161997  0.3206326882264107  1.0000
  N   N11       1.0  0.30797788761402245  0.15026897220300833  0.3205892018618499  1.0000
  N   N12       1.0  0.012541331778024287  0.17028779167795696  0.32058557635448887  1.0000
  N   N13       1.0  0.8298058261900892  0.6919665669271209  0.6794519103932471  1.0000
  N   N14       1.0  0.8496856055565303  0.987428807132261  0.6793668617088214  1.0000
  N   N15       1.0  0.6920223599527875  0.849729759951309  0.6794099376869127  1.0000
  N   N16       1.0  0.9874591350758736  0.8297127483580053  0.6794146110220467  1.0000
  F   F1        1.0  0.742948356260115  0.7429374608811018  0.48621233743364206  1.0000
  F   F2        1.0  0.25705253106418974  0.25706127251060445  0.5137874431701519  1.0000
  F   F3        1.0  0.5715327348815151  0.571593884436808  0.1429639693151826  1.0000
  F   F4        1.0  0.4284656222069501  0.42840546201743723  0.8570357603379648  1.0000
  F   F5        1.0  0.3773922802255855  0.5003248216784968  9.629355264457e-05  1.0000
  F   F6        1.0  0.6226062997134322  0.49967473119222205  0.9999044875420182  1.0000
  F   F7        1.0  0.5002166134605943  0.6225590433385831  0.9998336215275927  1.0000
  F   F8        1.0  0.4997832171992727  0.37743989399483274  0.00016592840763963797  1.0000
