data_image0
_chemical_formula_structural       Zn16H36C96S16N4O52
_chemical_formula_sum              "Zn16 H36 C96 S16 N4 O52"
_cell_length_a       19.688107159522417
_cell_length_b       19.68165290502332
_cell_length_c       33.37311668113412
_cell_angle_alpha    79.11244788078963
_cell_angle_beta     79.09728247316681
_cell_angle_gamma    63.86635078549033

_space_group_name_H-M_alt    "P 1"
_space_group_IT_number       1

loop_
  _space_group_symop_operation_xyz
  'x, y, z'

loop_
  _atom_site_type_symbol
  _atom_site_label
  _atom_site_symmetry_multiplicity
  _atom_site_fract_x
  _atom_site_fract_y
  _atom_site_fract_z
  _atom_site_occupancy
  Zn  Zn1       1.0  0.0544522824000566  0.3998835735542912  0.47787718988821853  1.0000
  Zn  Zn2       1.0  0.9846759844995603  0.4831526639809311  0.5609984058631953  1.0000
  Zn  Zn3       1.0  0.05942689527896761  0.5589184430203743  0.4825923768377863  1.0000
  Zn  Zn4       1.0  0.9024417952386585  0.555397707825726  0.4791795458565817  1.0000
  Zn  Zn5       1.0  0.6943191853835273  0.34914155008704023  0.27228587487245903  1.0000
  Zn  Zn6       1.0  0.6896843303151741  0.18939930295147175  0.2660905195979098  1.0000
  Zn  Zn7       1.0  0.76781894738442  0.2672945435706282  0.1910052916779819  1.0000
  Zn  Zn8       1.0  0.848957218492558  0.19517360845522788  0.27249244243115106  1.0000
  Zn  Zn9       1.0  0.2672974767714821  0.7653822658720626  0.6895694033536516  1.0000
  Zn  Zn10      1.0  0.3489733970248139  0.6954034702090225  0.7723682254732013  1.0000
  Zn  Zn11      1.0  0.19411908458477004  0.8464886694492223  0.771146046185038  1.0000
  Zn  Zn12      1.0  0.18973119385495352  0.6883544005105336  0.7664299884910762  1.0000
  Zn  Zn13      1.0  0.5601001437945072  0.06023586868366953  0.9835216594932563  1.0000
  Zn  Zn14      1.0  0.401585181949109  0.05473465572234192  0.9781192458394943  1.0000
  Zn  Zn15      1.0  0.5545569325365848  0.9012033705256852  0.9779307912605051  1.0000
  Zn  Zn16      1.0  0.4837846210108837  0.9838522225833441  0.06051718468523864  1.0000
  H   H1        1.0  0.955167292125978  0.24937321954314495  0.3512365860603667  1.0000
  H   H2        1.0  0.7457552984706695  0.45227521371369755  0.35075305543912094  1.0000
  H   H3        1.0  0.00012704288237589916  0.30182768305748203  0.39855023530937933  1.0000
  H   H4        1.0  0.0958508868866872  0.5974372636082989  0.6997600785774838  1.0000
  H   H5        1.0  0.20348750093918264  0.6998061537722292  0.5985525056290514  1.0000
  H   H6        1.0  0.048243414480957404  0.5529007318860694  0.6498108318105834  1.0000
  H   H7        1.0  0.2852708670060551  0.5105166381931739  0.4090783988933638  1.0000
  H   H8        1.0  0.4643892553555631  0.2386447964807347  0.34102347112099823  1.0000
  H   H9        1.0  0.7720703938013573  0.546224823850366  0.6485524239214443  1.0000
  H   H10       1.0  0.47891507151022966  0.7034117666410251  0.6017921691297233  1.0000
  H   H11       1.0  0.04673602591260109  0.27085712272373297  0.6486800220346751  1.0000
  H   H12       1.0  0.2040902054477201  0.9777470366187443  0.6016853688284202  1.0000
  H   H13       1.0  0.8003260265189669  0.7798956248896612  0.40300081907804514  1.0000
  H   H14       1.0  0.9493126354923831  0.9706785310927304  0.3471850092144706  1.0000
  H   H15       1.0  0.5512269557581534  0.04974520805870943  0.15350359450449966  1.0000
  H   H16       1.0  0.6494510583083439  0.1534164891389906  0.04823191069323941  1.0000
  H   H17       1.0  0.6028468758119558  0.09802702184698112  0.19949528345904358  1.0000
  H   H18       1.0  0.7032393101755972  0.47852907668602296  0.10168911879294029  1.0000
  H   H19       1.0  0.5465889872643929  0.7719864622221164  0.14825776450297215  1.0000
  H   H20       1.0  0.0874196691291687  0.10795469660681788  0.21033802832566556  1.0000
  H   H21       1.0  0.16354076704300982  0.14156234121895042  0.04016413088682211  1.0000
  H   H22       1.0  0.5007394795077857  0.7947492929525097  0.8985121742137566  1.0000
  H   H23       1.0  0.2978499976474041  0.004195492635062682  0.899248298509761  1.0000
  H   H24       1.0  0.4481675943263141  0.7498609054126106  0.851290539132407  1.0000
  H   H25       1.0  0.449240053800402  0.47072762342421026  0.8474880485015179  1.0000
  H   H26       1.0  0.3008167325704037  0.2792569027706832  0.9026895844362387  1.0000
  H   H27       1.0  0.9635652308520765  0.7382787234271645  0.8409997817049658  1.0000
  H   H28       1.0  0.7856709847311621  0.010548090055777858  0.9089396958876251  1.0000
  H   H29       1.0  0.795272843582886  0.5420903225346547  0.419111599044392  1.0000
  H   H30       1.0  0.7253353393442126  0.5476942281495525  0.3909359993441371  1.0000
  H   H31       1.0  0.14222301631063772  0.6432731330402534  0.5193521661798998  1.0000
  H   H32       1.0  0.19503826225457033  0.6886898014788301  0.5306044504394265  1.0000
  H   H33       1.0  0.7306535970201015  0.23060117089480037  0.10707377455362627  1.0000
  H   H34       1.0  0.7154540229346223  0.22316437640780176  0.05794788860099939  1.0000
  H   H35       1.0  0.2078132940491102  0.9546179781942996  0.8310120424351483  1.0000
  H   H36       1.0  0.2021457733484837  0.02454635895131929  0.8592420614310896  1.0000
  C   C1        1.0  0.06133549877758781  0.3155954886053677  0.5618099273498559  1.0000
  C   C2        1.0  0.06880199241469141  0.5716723592256373  0.5689805547813337  1.0000
  C   C3        1.0  0.18416474053788082  0.4382790982879854  0.43884446832142743  1.0000
  C   C4        1.0  0.938172156959169  0.6841814129919895  0.43852819760944334  1.0000
  C   C5        1.0  0.9298149017106709  0.43229070211238957  0.4296688958654968  1.0000
  C   C6        1.0  0.8165140201165855  0.5607680971416045  0.5617353072491015  1.0000
  C   C7        1.0  0.5654838743196962  0.3111719521918914  0.3111315751351357  1.0000
  C   C8        1.0  0.6828732747122643  0.179704438263954  0.17971902516495672  1.0000
  C   C9        1.0  0.6885019917036176  0.4341868541383461  0.188576387225261  1.0000
  C   C10       1.0  0.9349774561219562  0.18958065153664452  0.18932845245623045  1.0000
  C   C11       1.0  0.818858294762137  0.3193562617786014  0.3202012204305477  1.0000
  C   C12       1.0  0.8117558285787183  0.06592856438421528  0.3113143518041639  1.0000
  C   C13       1.0  0.43431346517830605  0.689063592380684  0.6885741015010824  1.0000
  C   C14       1.0  0.3173983474829001  0.8200655697432778  0.8203575168935943  1.0000
  C   C15       1.0  0.18935420741259892  0.9330226995256795  0.6884483382325756  1.0000
  C   C16       1.0  0.0647537507514855  0.8105389971649258  0.8105549374558194  1.0000
  C   C17       1.0  0.18159755668909136  0.6789858677940896  0.6803332527111295  1.0000
  C   C18       1.0  0.31162433305441084  0.5658764690402337  0.8115790620553796  1.0000
  C   C19       1.0  0.4383329292924004  0.18394151254053528  0.9385801673340384  1.0000
  C   C20       1.0  0.4308181971119752  0.9310025531111775  0.9298402310559484  1.0000
  C   C21       1.0  0.6841094460226032  0.9387550118985643  0.9389553979444544  1.0000
  C   C22       1.0  0.5613226938471881  0.816266094625298  0.06143582644902075  1.0000
  C   C23       1.0  0.5685370747827676  0.07076624415812917  0.06965934036563941  1.0000
  C   C24       1.0  0.31593818832033094  0.060994901088022836  0.0611971478351236  1.0000
  C   C25       1.0  0.8992474327765478  0.4061968910335523  0.4014616181271578  1.0000
  C   C26       1.0  0.8473611666869659  0.34866058688439255  0.34857595024997323  1.0000
  C   C27       1.0  0.8256825647770756  0.45073254612606206  0.3879836845114256  1.0000
  C   C28       1.0  0.9199459583103078  0.3049260035479764  0.3617033779683325  1.0000
  C   C29       1.0  0.8015419124666396  0.4197088187392096  0.36153046538215966  1.0000
  C   C30       1.0  0.9444334446640144  0.33417525955049837  0.38775415583367584  1.0000
  C   C31       1.0  0.0983963757856401  0.6007790956656366  0.596163368323694  1.0000
  C   C32       1.0  0.1526335241603007  0.6511631541930425  0.6514481783272502  1.0000
  C   C33       1.0  0.14299685682209431  0.6432067729862466  0.5806464607724351  1.0000
  C   C34       1.0  0.1085189052385047  0.6095668563552721  0.6667376074422935  1.0000
  C   C35       1.0  0.16936736626154672  0.6673553726439893  0.609426426099738  1.0000
  C   C36       1.0  0.08240819799439691  0.5852290672853826  0.6390496435010321  1.0000
  C   C37       1.0  0.30313621973333227  0.4534811248089312  0.4012073663921925  1.0000
  C   C38       1.0  0.44656245461838756  0.2956436884721755  0.3489362405791497  1.0000
  C   C39       1.0  0.2589838250699898  0.4129095668426431  0.41390001388382563  1.0000
  C   C40       1.0  0.4906997397679405  0.33618715594509035  0.33621533074706633  1.0000
  C   C41       1.0  0.37825510911744686  0.3382475987021323  0.3725799121124496  1.0000
  C   C42       1.0  0.3714047866548285  0.4109359464414196  0.3775489437706129  1.0000
  C   C43       1.0  0.7268306997174819  0.5753991584672847  0.6288959578704266  1.0000
  C   C44       1.0  0.5241424321837729  0.6739835815267341  0.6214509114501326  1.0000
  C   C45       1.0  0.7415100799392818  0.585720645889495  0.5864989108458121  1.0000
  C   C46       1.0  0.509484686752991  0.663622920550104  0.66386544513189  1.0000
  C   C47       1.0  0.6031959328623273  0.6418410197733448  0.6086493078265677  1.0000
  C   C48       1.0  0.6477521589732549  0.6073905334082779  0.6416795698050635  1.0000
  C   C49       1.0  0.07612680922529341  0.22569371106121844  0.6289719867415331  1.0000
  C   C50       1.0  0.1747832746259732  0.02294521827354859  0.6213856006742446  1.0000
  C   C51       1.0  0.0865740832525077  0.24044519757346455  0.5865679107936616  1.0000
  C   C52       1.0  0.16437883492882585  0.008154674661184871  0.6637820702693064  1.0000
  C   C53       1.0  0.1427592629067931  0.1020627088467236  0.6086458122333342  1.0000
  C   C54       1.0  0.10821457345699773  0.14657646832287696  0.6417066078367599  1.0000
  C   C55       1.0  0.8446731570402193  0.8003550783340786  0.39793284872114054  1.0000
  C   C56       1.0  0.9051891287203163  0.949920875703249  0.3521124425393367  1.0000
  C   C57       1.0  0.9136791844619695  0.7589801369446505  0.4136131304847482  1.0000
  C   C58       1.0  0.8362629146423475  0.9910735379993625  0.3363262871981051  1.0000
  C   C59       1.0  0.9084556257478482  0.8803684417004332  0.3744525426392686  1.0000
  C   C60       1.0  0.8415599922942505  0.869734446638013  0.3754408611012181  1.0000
  C   C61       1.0  0.655266713744517  0.15276833716062296  0.15039054357999504  1.0000
  C   C62       1.0  0.5978498435638073  0.09934734391884345  0.09806741779043904  1.0000
  C   C63       1.0  0.669430786725556  0.16934409693325145  0.10679719037604943  1.0000
  C   C64       1.0  0.5839759521276379  0.08293870756673975  0.14099674153941066  1.0000
  C   C65       1.0  0.6394820370495324  0.14168182103153973  0.08155235596324671  1.0000
  C   C66       1.0  0.6126411857664706  0.1097151297656822  0.16620580690638326  1.0000
  C   C67       1.0  0.6738809315785302  0.5237883586357698  0.12135263892795932  1.0000
  C   C68       1.0  0.5758875695591001  0.7266478978788269  0.1286441319555323  1.0000
  C   C69       1.0  0.6633403566524477  0.5091920995885602  0.16377246372005771  1.0000
  C   C70       1.0  0.5864265620203926  0.7411733606476145  0.08623936898906955  1.0000
  C   C71       1.0  0.6076753761025557  0.6475576454006385  0.14148127729789914  1.0000
  C   C72       1.0  0.6421120909395627  0.6028625940436428  0.10849149901297751  1.0000
  C   C73       1.0  0.08045168938316753  0.12454516291251849  0.17788249405689532  1.0000
  C   C74       1.0  0.170425300402016  0.12490597148447335  0.07262123009505221  1.0000
  C   C75       1.0  0.009553643409738298  0.16414810621740372  0.16410772737887672  1.0000
  C   C76       1.0  0.2413038861936414  0.0856427485781808  0.08643458845983083  1.0000
  C   C77       1.0  0.1118013952841181  0.13911679177537198  0.10584978200149923  1.0000
  C   C78       1.0  0.13907437767821312  0.11019484999978599  0.14464227416559794  1.0000
  C   C79       1.0  0.34369858245720764  0.8506733667404591  0.8484901297844304  1.0000
  C   C80       1.0  0.40148081960000337  0.9025681066642908  0.9013817291730464  1.0000
  C   C81       1.0  0.29931398214289123  0.9242863394819808  0.8620041591069311  1.0000
  C   C82       1.0  0.44514314672213123  0.8300213166549922  0.8881390102612202  1.0000
  C   C83       1.0  0.33041331744285424  0.9483853874281534  0.8884599056892244  1.0000
  C   C84       1.0  0.41577306859942104  0.8055560989260685  0.8621221898656375  1.0000
  C   C85       1.0  0.4051877676837847  0.4498885233856029  0.8523437724956723  1.0000
  C   C86       1.0  0.3449825117117271  0.2999477182815726  0.8977675152451283  1.0000
  C   C87       1.0  0.3363274094461702  0.4910073432638812  0.8365028902094735  1.0000
  C   C88       1.0  0.41382700140352574  0.25878270574931134  0.9136214399011069  1.0000
  C   C89       1.0  0.34176523281379195  0.36946013834397456  0.8753991417291687  1.0000
  C   C90       1.0  0.40850672072912886  0.3802666944955463  0.8746042054472911  1.0000
  C   C91       1.0  0.945993300121124  0.7953140158165796  0.8488014488191667  1.0000
  C   C92       1.0  0.8033064615118377  0.9535132199958127  0.9011211696121182  1.0000
  C   C93       1.0  0.9902014933828625  0.8357546806011911  0.8357843532870534  1.0000
  C   C94       1.0  0.7589737690008889  0.9131849254902135  0.9139678982101104  1.0000
  C   C95       1.0  0.8713992021591751  0.9107132929794307  0.8774038072857524  1.0000
  C   C96       1.0  0.8779549399707136  0.8380648256389591  0.8725841559598139  1.0000
  S   S1        1.0  0.2999788260222118  0.32321008609000046  0.3972101926169813  1.0000
  S   S2        1.0  0.44961828560134626  0.42600863417133883  0.3528383695088095  1.0000
  S   S3        1.0  0.659637317666828  0.6342207663944278  0.5619834199013313  1.0000
  S   S4        1.0  0.5913307482819334  0.6149920962942089  0.6883447169464889  1.0000
  S   S5        1.0  0.13523925433121056  0.15858791954202905  0.5620211753927721  1.0000
  S   S6        1.0  0.11576367900681818  0.09001630393768072  0.6883354744854772  1.0000
  S   S7        1.0  0.9749539688484959  0.8040335304294217  0.4011730261582472  1.0000
  S   S8        1.0  0.7752148854614376  0.9458331239293757  0.34852083340260265  1.0000
  S   S9        1.0  0.6149365775270682  0.5912476840889695  0.18817719685623058  1.0000
  S   S10       1.0  0.634808195502231  0.6591831941839246  0.061793975088335173  1.0000
  S   S11       1.0  0.0136938790992005  0.1840269338955238  0.11086724953042902  1.0000
  S   S12       1.0  0.23717980601755076  0.06571694995353275  0.13966103596965954  1.0000
  S   S13       1.0  0.2754136608637623  0.4455700785445699  0.8485082580103838  1.0000
  S   S14       1.0  0.474851070761197  0.3040977369413156  0.9014957001920793  1.0000
  S   S15       1.0  0.9495311126307868  0.9255881156110067  0.8523523647909885  1.0000
  S   S16       1.0  0.799610322169393  0.8233648349013478  0.8974368762474116  1.0000
  N   N1        1.0  0.7785895327027745  0.521168587376053  0.39911927832066146  1.0000
  N   N2        1.0  0.16079070522262381  0.661323811862978  0.5398450298209242  1.0000
  N   N3        1.0  0.7104249687538841  0.20983546129709665  0.0887603869601108  1.0000
  N   N4        1.0  0.22898315983628953  0.9714446950669996  0.8508193264564172  1.0000
  O   O1        1.0  0.0006274678298012994  0.49816057091199173  0.5005603024105129  1.0000
  O   O2        1.0  0.0774112546443106  0.31544200191328997  0.5227991867351279  1.0000
  O   O3        1.0  0.03192744581019011  0.5317822761762584  0.5856796023745405  1.0000
  O   O4        1.0  0.1574444014371679  0.5044221234163687  0.45059269197038543  1.0000
  O   O5        1.0  0.025887112367158203  0.3737759881644536  0.581413232041193  1.0000
  O   O6        1.0  0.1526126800403489  0.39187419609893226  0.44648338086834377  1.0000
  O   O7        1.0  0.0820327109023253  0.5881233727897383  0.5298184593522565  1.0000
  O   O8        1.0  0.005962253174452296  0.6550252571344899  0.44846622755900273  1.0000
  O   O9        1.0  0.8886473190355133  0.49912205747183697  0.4411355840228951  1.0000
  O   O10       1.0  0.8899983924968567  0.654854418415951  0.44808927675310184  1.0000
  O   O11       1.0  0.9950325437618376  0.3874015753229755  0.441235672349805  1.0000
  O   O12       1.0  0.8748950948001237  0.5261671786375287  0.5811293599069672  1.0000
  O   O13       1.0  0.8160603961539438  0.5764054585432773  0.5226833008602797  1.0000
  O   O14       1.0  0.7499966170475432  0.2499446084577172  0.2509173016453161  1.0000
  O   O15       1.0  0.5956228876555016  0.3588777479962957  0.3029833077302868  1.0000
  O   O16       1.0  0.6651907253924492  0.16419221311690543  0.21817372405854485  1.0000
  O   O17       1.0  0.7231216492409374  0.3757968468040715  0.16904020927499633  1.0000
  O   O18       1.0  0.5933472374915568  0.24470216989026022  0.29983804426549204  1.0000
  O   O19       1.0  0.6734306295423308  0.43422592794195936  0.2276128145745915  1.0000
  O   O20       1.0  0.7232313147076184  0.21761037731090466  0.16483278282230887  1.0000
  O   O21       1.0  0.8766412395091975  0.22659838807845728  0.16977489621641695  1.0000
  O   O22       1.0  0.8629279235075841  0.2536543489655543  0.30914988163064555  1.0000
  O   O23       1.0  0.9348976521238654  0.1726940260227181  0.22820638558840053  1.0000
  O   O24       1.0  0.7528680449100592  0.3623401320348306  0.3092157554801035  1.0000
  O   O25       1.0  0.7453238495101574  0.09336048269413769  0.2998362410964718  1.0000
  O   O26       1.0  0.8589514458926075  0.09640814840655305  0.3033950418911005  1.0000
  O   O27       1.0  0.25063502278307936  0.7480630902019099  0.7497905208140312  1.0000
  O   O28       1.0  0.3763696764379106  0.724989650396317  0.6688334510401149  1.0000
  O   O29       1.0  0.362131677224383  0.7546654978561873  0.8089092695311211  1.0000
  O   O30       1.0  0.1740984608064551  0.9330369229299436  0.7275048377108464  1.0000
  O   O31       1.0  0.43408263679485515  0.6727866907150215  0.727568176572561  1.0000
  O   O32       1.0  0.2237557840362854  0.8747806523724005  0.668865869350725  1.0000
  O   O33       1.0  0.25065333217268204  0.8612351388512778  0.8088160575264143  1.0000
  O   O34       1.0  0.0949213062502778  0.8582818958943789  0.8018916277270662  1.0000
  O   O35       1.0  0.16465432049331244  0.662972069527143  0.7187140864172792  1.0000
  O   O36       1.0  0.0927366680299713  0.7438213680908419  0.7995672012645232  1.0000
  O   O37       1.0  0.22085013443459195  0.7167214827416971  0.6642832743162047  1.0000
  O   O38       1.0  0.35842479388190907  0.5968131089329844  0.8035742521979189  1.0000
  O   O39       1.0  0.24507719862961613  0.5929430270533089  0.8002293218790585  1.0000
  O   O40       1.0  0.5000329431391749  0.9998035013935008  0.00011741569820601054  1.0000
  O   O41       1.0  0.5052152567677126  0.15605780525178392  0.9495642736460896  1.0000
  O   O42       1.0  0.38776665554746603  0.997018822631908  0.9408844257839067  1.0000
  O   O43       1.0  0.6530358156195321  0.8919071703622377  0.9468298234594387  1.0000
  O   O44       1.0  0.39090478406382806  0.15372319954373379  0.9470093697649633  1.0000
  O   O45       1.0  0.6570474417859206  0.005061783669233823  0.9504281568709844  1.0000
  O   O46       1.0  0.4964304566882377  0.8870513336030964  0.9409690220769635  1.0000
  O   O47       1.0  0.576668802912259  0.816019377506109  0.02241874479543779  1.0000
  O   O48       1.0  0.5303766648337103  0.03220247816707911  0.08616833133037721  1.0000
  O   O49       1.0  0.5267026761315847  0.8745044538447644  0.0810140031407798  1.0000
  O   O50       1.0  0.5841823490631414  0.08699364571472036  0.031104383663645773  1.0000
  O   O51       1.0  0.3156369412272467  0.0771334140915131  0.022291309086071503  1.0000
  O   O52       1.0  0.3743229059610443  0.025646864080655966  0.08074096121244881  1.0000
