data_image0
_chemical_formula_structural       Mn2H24C26N16
_chemical_formula_sum              "Mn2 H24 C26 N16"
_cell_length_a       7.356631416665711
_cell_length_b       10.039416116788102
_cell_length_c       9.90437492753278
_cell_angle_alpha    97.77920131826626
_cell_angle_beta     95.01613746982892
_cell_angle_gamma    102.50321041935135

_space_group_name_H-M_alt    "P 1"
_space_group_IT_number       1

loop_
  _space_group_symop_operation_xyz
  'x, y, z'

loop_
  _atom_site_type_symbol
  _atom_site_label
  _atom_site_symmetry_multiplicity
  _atom_site_fract_x
  _atom_site_fract_y
  _atom_site_fract_z
  _atom_site_occupancy
  Mn  Mn1       1.0  0.21160803409900814  0.6109705972431599  0.4872654583359406  1.0000
  Mn  Mn2       1.0  0.7884222666753259  0.38903833598735116  0.5127117241832053  1.0000
  H   H1        1.0  0.47242447668304527  0.7592212031464882  0.7702877373437786  1.0000
  H   H2        1.0  0.5275832871199596  0.24077620651267753  0.22971418744119623  1.0000
  H   H3        1.0  0.5884938079920589  0.9987119884466795  0.9037631495393939  1.0000
  H   H4        1.0  0.41150489867624157  0.0012864227429289995  0.09623405371277728  1.0000
  H   H5        1.0  0.49444380701314117  0.19724082893390724  0.8066522854767085  1.0000
  H   H6        1.0  0.5055490642949323  0.8027575356820336  0.19335246971997577  1.0000
  H   H7        1.0  0.2914491411981075  0.14638159263573414  0.5805287820651088  1.0000
  H   H8        1.0  0.7085401724441169  0.8536188147642246  0.4194779439894205  1.0000
  H   H9        1.0  0.11633108458073586  0.9804219163702826  0.38782079573375233  1.0000
  H   H10       1.0  0.8836568708472966  0.019574352167602196  0.6121872824398196  1.0000
  H   H11       1.0  0.08356283862048036  0.9474426717003867  0.18032942043233652  1.0000
  H   H12       1.0  0.9164381359276844  0.0525588428543458  0.8196694063059623  1.0000
  H   H13       1.0  0.9101127771672779  0.8777190215360665  0.9450853863203151  1.0000
  H   H14       1.0  0.08988259493269622  0.12228246025038202  0.05491596396078789  1.0000
  H   H15       1.0  0.7384885275550914  0.6362207326824392  0.8644004974629169  1.0000
  H   H16       1.0  0.26150465255427957  0.3637827980092895  0.1356029470505931  1.0000
  H   H17       1.0  0.9278397500628089  0.5239915883613975  0.24710290832807402  1.0000
  H   H18       1.0  0.07216090822301177  0.47600889285836  0.7528957535998089  1.0000
  H   H19       1.0  0.670904673822818  0.3969366189234337  0.8926868746723429  1.0000
  H   H20       1.0  0.3290890088785332  0.6030679561475767  0.10731271193022002  1.0000
  H   H21       1.0  0.5764342592273266  0.3963941365962995  0.051872528272632196  1.0000
  H   H22       1.0  0.42355742527409757  0.603608365683499  0.9481266053345508  1.0000
  H   H23       1.0  0.7886941332706668  0.3432396380221406  0.033838310133241116  1.0000
  H   H24       1.0  0.21129532993329292  0.6567597636536108  0.9661581943074893  1.0000
  C   C1        1.0  0.43477223680739746  0.8482781157312972  0.7333657788691851  1.0000
  C   C2        1.0  0.5652310671251328  0.1517182394680248  0.26663661666206906  1.0000
  C   C3        1.0  0.4977495518503759  0.9818928923352178  0.807103014016981  1.0000
  C   C4        1.0  0.502244238937884  0.0181034227763348  0.19289751221207746  1.0000
  C   C5        1.0  0.4457724703156033  0.09147608402774675  0.753607126897016  1.0000
  C   C6        1.0  0.5542184959573575  0.9085202133191218  0.24639516394361752  1.0000
  C   C7        1.0  0.3323242313569921  0.06390470864755571  0.6282038380160202  1.0000
  C   C8        1.0  0.6676708244806377  0.9360957398039179  0.371797347454681  1.0000
  C   C9        1.0  0.27459436526106634  0.9272469339867727  0.5607104141399546  1.0000
  C   C10       1.0  0.725410806938676  0.07275047171309271  0.43928824685490037  1.0000
  C   C11       1.0  0.15863232308164765  0.8939167629004674  0.4285033201880921  1.0000
  C   C12       1.0  0.8413728025356947  0.10608064003832143  0.571496346487109  1.0000
  C   C13       1.0  0.012617364223501801  0.7393074263750778  0.23038633361971253  1.0000
  C   C14       1.0  0.9873812418189375  0.26069511203318996  0.7696114054995532  1.0000
  C   C15       1.0  0.00828390749378386  0.8405722458586029  0.14513565116349275  1.0000
  C   C16       1.0  0.9917150049964859  0.15943233989208497  0.8548694573389709  1.0000
  C   C17       1.0  0.9099657535691178  0.8019371234055586  0.014148476276616912  1.0000
  C   C18       1.0  0.09003252639645609  0.19806539567516526  0.985856302605022  1.0000
  C   C19       1.0  0.8129012842606899  0.664944318197314  0.9680209926516098  1.0000
  C   C20       1.0  0.18709969028747514  0.3350571963574183  0.031977834086689  1.0000
  C   C21       1.0  0.8147292399621976  0.563293960116738  0.05178562191825619  1.0000
  C   C22       1.0  0.18527146490603033  0.43670652386409614  0.9482120343292878  1.0000
  C   C23       1.0  0.9192283742487106  0.6017550882332544  0.18158050175694035  1.0000
  C   C24       1.0  0.08076828017620846  0.3982453801448572  0.8184157786866137  1.0000
  C   C25       1.0  0.70740829700798  0.41675729095383224  0.004468601249634245  1.0000
  C   C26       1.0  0.2925851160134343  0.5832462535432796  0.9955298148621735  1.0000
  N   N1        1.0  0.3262710082289644  0.8209725879356214  0.6128784826651739  1.0000
  N   N2        1.0  0.6737336711933184  0.17902275937751713  0.3871168316678393  1.0000
  N   N3        1.0  0.11278686574302559  0.76847711338354  0.36316043706498397  1.0000
  N   N4        1.0  0.8872198952294922  0.2315213262504159  0.6368405234755059  1.0000
  N   N5        1.0  0.4135610213677978  0.6040265795853799  0.3482178877594109  1.0000
  N   N6        1.0  0.586444680377312  0.39597390126974114  0.6517903187897289  1.0000
  N   N7        1.0  0.5241395320917449  0.5337928948775854  0.35607840222585446  1.0000
  N   N8        1.0  0.4758705070521713  0.46620348540589873  0.6439266215388314  1.0000
  N   N9        1.0  0.6336018455173615  0.4633815925244421  0.3594349524034186  1.0000
  N   N10       1.0  0.36640619031904015  0.5366199664419896  0.6405594628059318  1.0000
  N   N11       1.0  0.04713850713662282  0.400262575426332  0.40808537526635996  1.0000
  N   N12       1.0  0.9528643040184477  0.599731721386256  0.5919136736030525  1.0000
  N   N13       1.0  0.10351994862340061  0.2988693596550577  0.3707594643731226  1.0000
  N   N14       1.0  0.8964764188460208  0.7011352248974064  0.6292413746588749  1.0000
  N   N15       1.0  0.1547132384791894  0.1989289888196666  0.3346124450205323  1.0000
  N   N16       1.0  0.8452958076487463  0.8010674074311697  0.6653844099268866  1.0000
