data_image0
_chemical_formula_structural       Zn4H42Rh2C72N8O16
_chemical_formula_sum              "Zn4 H42 Rh2 C72 N8 O16"
_cell_length_a       13.96769124159668
_cell_length_b       15.151143429606435
_cell_length_c       15.292966901797602
_cell_angle_alpha    85.37967627207281
_cell_angle_beta     86.19309752779847
_cell_angle_gamma    86.74505744621867

_space_group_name_H-M_alt    "P 1"
_space_group_IT_number       1

loop_
  _space_group_symop_operation_xyz
  'x, y, z'

loop_
  _atom_site_type_symbol
  _atom_site_label
  _atom_site_symmetry_multiplicity
  _atom_site_fract_x
  _atom_site_fract_y
  _atom_site_fract_z
  _atom_site_occupancy
  Zn  Zn1       1.0  0.8950961767209549  0.6021974073295696  0.8388810330318888  1.0000
  Zn  Zn2       1.0  0.6913653510665584  0.6158142397944105  0.8482527230730097  1.0000
  Zn  Zn3       1.0  0.104895451705012  0.39780815410126286  0.16112580616093905  1.0000
  Zn  Zn4       1.0  0.30862682489036086  0.3841820696797598  0.15175146802777556  1.0000
  H   H1        1.0  0.20925367701370587  0.6360100474572121  0.982039673900587  1.0000
  H   H2        1.0  0.06025453170335031  0.5907159491119244  0.7080515184631792  1.0000
  H   H3        1.0  0.23857390906869824  0.5999127844932842  0.703321554896199  1.0000
  H   H4        1.0  0.033296832976518004  0.620903745987185  0.9752836512594598  1.0000
  H   H5        1.0  0.6307966473670916  0.6145985026924238  0.29441123161922167  1.0000
  H   H6        1.0  0.6303354301857383  0.6149688676360868  0.1311311701917148  1.0000
  H   H7        1.0  0.938876250174239  0.6087709931010465  0.12080370406996371  1.0000
  H   H8        1.0  0.6512054255743891  0.6500156124060653  0.5767204343087471  1.0000
  H   H9        1.0  0.6421601524387057  0.6559160418308564  0.4154447768539455  1.0000
  H   H10       1.0  0.9420785244702968  0.5730889667279796  0.3874078551596085  1.0000
  H   H11       1.0  0.9503376109570992  0.5689473401881243  0.5510742976864051  1.0000
  H   H12       1.0  0.6439242331276772  0.3200975825665324  0.876425759750525  1.0000
  H   H13       1.0  0.6506540988585597  0.9121739703109242  0.8617924545545532  1.0000
  H   H14       1.0  0.9444910614156257  0.34209604861637644  0.80100797170315  1.0000
  H   H15       1.0  0.9648996687641541  0.17958452141080977  0.7889703647745137  1.0000
  H   H16       1.0  0.952441978694715  0.8697386750598424  0.793944156284482  1.0000
  H   H17       1.0  0.9680554471062165  0.034983825596128795  0.7906758830487206  1.0000
  H   H18       1.0  0.5465489234077694  0.6789140232112912  0.7193963137798105  1.0000
  H   H19       1.0  0.5307272695792377  0.5710711461548427  0.9764076702367886  1.0000
  H   H20       1.0  0.35219690321872577  0.5630397515166691  0.9792383200259422  1.0000
  H   H21       1.0  0.36772955420845227  0.6820598334652102  0.7117668639963239  1.0000
  H   H22       1.0  0.7907439297896418  0.36396708729613186  0.017959695035550286  1.0000
  H   H23       1.0  0.9397331751142984  0.4092690178614546  0.2919615513824496  1.0000
  H   H24       1.0  0.7614120678593891  0.4000802854054015  0.2966753411894487  1.0000
  H   H25       1.0  0.9667030881542047  0.3790553708570171  0.02472928801678619  1.0000
  H   H26       1.0  0.36920683043658903  0.38540182301650106  0.705587507603191  1.0000
  H   H27       1.0  0.3696634719863781  0.38503678832481114  0.8688648182046137  1.0000
  H   H28       1.0  0.0611240932747847  0.3912353679150939  0.8791875816330545  1.0000
  H   H29       1.0  0.3488005941355042  0.3500039640169064  0.423274202824416  1.0000
  H   H30       1.0  0.35784413296324397  0.3440955547748175  0.5845531278238241  1.0000
  H   H31       1.0  0.0579253325121059  0.42691731985816267  0.6125910991548835  1.0000
  H   H32       1.0  0.04966368762257639  0.43106694008038454  0.4489203050357347  1.0000
  H   H33       1.0  0.3560857383894315  0.6798964812864057  0.12360446911492318  1.0000
  H   H34       1.0  0.3493544074740882  0.08782496043321689  0.1382133128054548  1.0000
  H   H35       1.0  0.055515861989555014  0.6579034361946015  0.19900961071117954  1.0000
  H   H36       1.0  0.035110541326652416  0.8204244573339139  0.2110234899180483  1.0000
  H   H37       1.0  0.047560213945381194  0.13024642012615573  0.20605375897302025  1.0000
  H   H38       1.0  0.03195631952482359  0.9649994106991359  0.20930727454926767  1.0000
  H   H39       1.0  0.45344246698547147  0.3211220612433081  0.2806057765734664  1.0000
  H   H40       1.0  0.46926328085162083  0.4289298720069893  0.0235890815711954  1.0000
  H   H41       1.0  0.6477918945933395  0.4369546676449828  0.020755717677936037  1.0000
  H   H42       1.0  0.6322642492789754  0.3179590299719591  0.2882343486141963  1.0000
  Rh  Rh1       1.0  0.6240620572981468  0.11206966048087713  0.8718900551312315  1.0000
  Rh  Rh2       1.0  0.3759447068109693  0.8879373610190697  0.12810084786976722  1.0000
  C   C1        1.0  0.2395286176848543  0.6184937491598035  0.8429524675547737  1.0000
  C   C2        1.0  0.1800679501298816  0.6245470857610512  0.9199514394829221  1.0000
  C   C3        1.0  0.793588489606101  0.33880764571159716  0.8419380717408771  1.0000
  C   C4        1.0  0.09714335274725983  0.6006335662068167  0.7667975294813514  1.0000
  C   C5        1.0  0.7846259482040595  0.6125872090398373  0.11335424391789668  1.0000
  C   C6        1.0  0.8010294075795841  0.608949924861811  0.5740404418757236  1.0000
  C   C7        1.0  0.19600944789561228  0.6069939325366533  0.76488621808479  1.0000
  C   C8        1.0  0.08185538125205481  0.6172426590162842  0.9168025754341612  1.0000
  C   C9        1.0  0.7874238703225416  0.6104643958082503  0.015711100234455006  1.0000
  C   C10       1.0  0.7858085137494726  0.43677027268045526  0.8506194707305282  1.0000
  C   C11       1.0  0.6982131823724629  0.6148750943383734  0.25437640313801774  1.0000
  C   C12       1.0  0.7903930249289459  0.7816685745100144  0.8318763365982773  1.0000
  C   C13       1.0  0.6973837455781365  0.6145264844933322  0.16379186651595032  1.0000
  C   C14       1.0  0.8693057697607643  0.6114920743491294  0.15789071937665972  1.0000
  C   C15       1.0  0.8047848438775559  0.6077343005745064  0.6719569301955488  1.0000
  C   C16       1.0  0.3445233853797304  0.6220089560448514  0.8448817912238196  1.0000
  C   C17       1.0  0.7867121925954239  0.6140494676003102  0.29365391726778967  1.0000
  C   C18       1.0  0.7915676270769297  0.6129098306775803  0.3900641858325855  1.0000
  C   C19       1.0  0.7144804436412429  0.6327270706024919  0.5348157810715293  1.0000
  C   C20       1.0  0.8004493161052224  0.8798217808482601  0.8277835008551974  1.0000
  C   C21       1.0  0.7098461434103456  0.6350053493702249  0.4442609134495114  1.0000
  C   C22       1.0  0.8785161878634327  0.5892002315246715  0.4296110714930847  1.0000
  C   C23       1.0  0.8830606841136585  0.5873405236689563  0.5204073781240837  1.0000
  C   C24       1.0  0.713202829618993  0.28693471123712294  0.8586253513154813  1.0000
  C   C25       1.0  0.7215879774610344  0.9377493961231237  0.8457588859236862  1.0000
  C   C26       1.0  0.8841412831379002  0.3000148561490974  0.8164945091762874  1.0000
  C   C27       1.0  0.722814042185135  0.19481454172793633  0.8521388350048225  1.0000
  C   C28       1.0  0.8155792820969409  0.1565019887968617  0.8277109797763273  1.0000
  C   C29       1.0  0.8182596699671619  0.06133558901174041  0.8247678986314425  1.0000
  C   C30       1.0  0.894709834338734  0.20926943263949482  0.8092164258495771  1.0000
  C   C31       1.0  0.8907374622934086  0.9148380302029936  0.8075242204315103  1.0000
  C   C32       1.0  0.8988507654507102  0.005782998487298099  0.8059509982177103  1.0000
  C   C33       1.0  0.499846418480999  0.654823049237784  0.7752016570970355  1.0000
  C   C34       1.0  0.49091070086437577  0.5937746597818077  0.919180860102166  1.0000
  C   C35       1.0  0.39166854010533564  0.5910776674806681  0.9205607402899145  1.0000
  C   C36       1.0  0.40076987731954733  0.6551515956672204  0.7714156793007161  1.0000
  C   C37       1.0  0.7604581443023619  0.3814972887815102  0.1570491078919147  1.0000
  C   C38       1.0  0.819927276447956  0.37543332238268334  0.08005240167237558  1.0000
  C   C39       1.0  0.2064167959390488  0.6611965356175489  0.15807338078162297  1.0000
  C   C40       1.0  0.9028453977626753  0.3993468262260293  0.2332086138052532  1.0000
  C   C41       1.0  0.21537181198420538  0.3874257222483024  0.8866432547448895  1.0000
  C   C42       1.0  0.19897485932141015  0.391061653489608  0.4259594269035034  1.0000
  C   C43       1.0  0.8039796634821884  0.39299380159050656  0.2351141586451675  1.0000
  C   C44       1.0  0.9181430228493355  0.3827317564134987  0.0832041363371374  1.0000
  C   C45       1.0  0.21256836498533724  0.3895438539571855  0.9842915945079014  1.0000
  C   C46       1.0  0.2141968518714279  0.5632332882147821  0.149387443560741  1.0000
  C   C47       1.0  0.3017857997803546  0.3851292416529262  0.7456190199021717  1.0000
  C   C48       1.0  0.20961665441257082  0.21832451040200604  0.16811670124266698  1.0000
  C   C49       1.0  0.3026160893755829  0.38547518693717814  0.8362050070550209  1.0000
  C   C50       1.0  0.13069579950089863  0.3885175768986712  0.8421028866497053  1.0000
  C   C51       1.0  0.19520669242383804  0.3922739677277817  0.3280438380042198  1.0000
  C   C52       1.0  0.6554643565011203  0.37799072502352254  0.15511650956496228  1.0000
  C   C53       1.0  0.21328707257334398  0.38595025153978213  0.7063391996756534  1.0000
  C   C54       1.0  0.20842952854831506  0.3870885328322018  0.6099324066342433  1.0000
  C   C55       1.0  0.2855243809008385  0.36728784694120253  0.46518120798602774  1.0000
  C   C56       1.0  0.19955732091116124  0.12017393296383722  0.17221212733449678  1.0000
  C   C57       1.0  0.29015670707177327  0.36500694733633304  0.5557330934709128  1.0000
  C   C58       1.0  0.12148579344562192  0.410801432973301  0.5703863441017558  1.0000
  C   C59       1.0  0.11694283463507561  0.4126724236126691  0.4795878559662725  1.0000
  C   C60       1.0  0.2868077120632647  0.713064103048957  0.14139274267714796  1.0000
  C   C61       1.0  0.27841737207286593  0.0622429666097872  0.15424096894752637  1.0000
  C   C62       1.0  0.11586068574214184  0.6999860966436909  0.1835081886946242  1.0000
  C   C63       1.0  0.27719642596854743  0.8051876972195373  0.1478672510182051  1.0000
  C   C64       1.0  0.18442923049774143  0.8434976475677162  0.172290160008103  1.0000
  C   C65       1.0  0.18174907033071017  0.9386607748102377  0.1752288816104439  1.0000
  C   C66       1.0  0.1052986045372748  0.7907322293151181  0.19078065171542136  1.0000
  C   C67       1.0  0.10926864801187008  0.08515507437626009  0.19246704110233273  1.0000
  C   C68       1.0  0.1011532293341588  0.9942101434482494  0.19403644778983417  1.0000
  C   C69       1.0  0.500141204383489  0.3451918933424665  0.2247942692719817  1.0000
  C   C70       1.0  0.5090794250900785  0.40623363342468366  0.08081736441339869  1.0000
  C   C71       1.0  0.6083238305910542  0.40892861754225857  0.07943946966700818  1.0000
  C   C72       1.0  0.5992167779852764  0.3448547159554779  0.22858221232523587  1.0000
  N   N1        1.0  0.041058072658998405  0.6052392049580604  0.841549712365186  1.0000
  N   N2        1.0  0.5442690752535028  0.6241299096573697  0.8477602476798153  1.0000
  N   N3        1.0  0.8710732858147806  0.6123841181769407  0.2449546898795276  1.0000
  N   N4        1.0  0.7291773339479449  0.026312271625776897  0.8448893185479917  1.0000
  N   N5        1.0  0.9589365655378899  0.3947385331053185  0.15845630913912595  1.0000
  N   N6        1.0  0.45572017949413623  0.3758817293913309  0.15223451753134035  1.0000
  N   N7        1.0  0.12892649999316316  0.38761890364692414  0.7550394755451606  1.0000
  N   N8        1.0  0.2708338479601339  0.9736787810462745  0.15510836109513088  1.0000
  O   O1        1.0  0.8688288338745807  0.6160286689947936  0.9740740547156292  1.0000
  O   O2        1.0  0.725125530763421  0.6234928842995018  0.7154197159791379  1.0000
  O   O3        1.0  0.7073098900827689  0.6028825827232539  0.9820155460413601  1.0000
  O   O4        1.0  0.7030998779305122  0.4769242726884356  0.8504324249277457  1.0000
  O   O5        1.0  0.8859729907751089  0.591438677250231  0.7044584448728982  1.0000
  O   O6        1.0  0.8649009173038779  0.4729585487082133  0.8587087008465557  1.0000
  O   O7        1.0  0.7073723796230239  0.7519337152145339  0.8497410305672444  1.0000
  O   O8        1.0  0.8680500345369493  0.7355929442451627  0.8173162126990333  1.0000
  O   O9        1.0  0.131161187431232  0.3839809198422799  0.025927353958024903  1.0000
  O   O10       1.0  0.27487313350032844  0.3765027535193823  0.2845848364644609  1.0000
  O   O11       1.0  0.29268075863965487  0.39711573465188366  0.017986622059197505  1.0000
  O   O12       1.0  0.2969085731844174  0.5230767018999954  0.14956731611137283  1.0000
  O   O13       1.0  0.11402250213207309  0.4085629593673444  0.295542582254221  1.0000
  O   O14       1.0  0.1351047557157798  0.5270383210677777  0.14130520717127837  1.0000
  O   O15       1.0  0.29264519201517913  0.2480572679818849  0.1502635127513869  1.0000
  O   O16       1.0  0.13196288177412194  0.2644067877798619  0.18267422652439078  1.0000
