data_image0
_chemical_formula_structural       Na2Dy2H40C48N16O16
_chemical_formula_sum              "Na2 Dy2 H40 C48 N16 O16"
_cell_length_a       8.059635423481668
_cell_length_b       13.263333691943384
_cell_length_c       13.435325744354966
_cell_angle_alpha    85.10660334256526
_cell_angle_beta     72.54579891997271
_cell_angle_gamma    73.4775371608854

_space_group_name_H-M_alt    "P 1"
_space_group_IT_number       1

loop_
  _space_group_symop_operation_xyz
  'x, y, z'

loop_
  _atom_site_type_symbol
  _atom_site_label
  _atom_site_symmetry_multiplicity
  _atom_site_fract_x
  _atom_site_fract_y
  _atom_site_fract_z
  _atom_site_occupancy
  Na  Na1       1.0  0.8756546878415679  0.7509518807102893  0.2483911017732581  1.0000
  Na  Na2       1.0  0.1243438337856234  0.2490474626384939  0.7516102079998958  1.0000
  Dy  Dy1       1.0  0.3759268067551815  0.7495900112232263  0.2492805646890588  1.0000
  Dy  Dy2       1.0  0.6240731630982878  0.25040958340616015  0.7507199648534666  1.0000
  H   H1        1.0  0.44546691273543415  0.6028794553654391  0.8650284332234504  1.0000
  H   H2        1.0  0.5461779423924327  0.8627659654267674  0.8974914889581596  1.0000
  H   H3        1.0  0.918689871707258  0.8972398669997617  0.6325142444971659  1.0000
  H   H4        1.0  0.31999004885204124  0.6349340403715971  0.6013869435974044  1.0000
  H   H5        1.0  0.554526514958738  0.39711489691913476  0.13497209631907478  1.0000
  H   H6        1.0  0.4538303688885251  0.1372333951919984  0.1025059196618514  1.0000
  H   H7        1.0  0.08130483951435961  0.1027666857683585  0.3674855048147307  1.0000
  H   H8        1.0  0.6800168873687226  0.36505909005207815  0.3986073441000996  1.0000
  H   H9        1.0  0.7826922607737075  0.5564534373487859  0.790258151921911  1.0000
  H   H10       1.0  0.8366003847375227  0.7886531649251013  0.9436553945186643  1.0000
  H   H11       1.0  0.1372521900538431  0.9418039969884405  0.709147716538112  1.0000
  H   H12       1.0  0.5854253196178762  0.7108347635189034  0.5551910485811646  1.0000
  H   H13       1.0  0.21730566291520162  0.44354714513661264  0.2097392566981071  1.0000
  H   H14       1.0  0.16340530080724144  0.2113484313123237  0.05634279433198229  1.0000
  H   H15       1.0  0.8627413014712106  0.05820678437247302  0.2908512525431561  1.0000
  H   H16       1.0  0.414578642936519  0.2891588608291896  0.444805579808225  1.0000
  H   H17       1.0  0.809928121788623  0.6471913300786696  0.08495619214867389  1.0000
  H   H18       1.0  0.9588578717352406  0.08536407230113947  0.8506144526037643  1.0000
  H   H19       1.0  0.5475571217399352  0.8489742568836789  0.41586058397467696  1.0000
  H   H20       1.0  0.8955756849175528  0.41597229616779435  0.6497713855248861  1.0000
  H   H21       1.0  0.1900665224903763  0.35280626294338907  0.9150458978551086  1.0000
  H   H22       1.0  0.041142994640594836  0.9146402534808118  0.14938529670813236  1.0000
  H   H23       1.0  0.4524390098402481  0.1510293150557374  0.584142286259734  1.0000
  H   H24       1.0  0.10442765587858124  0.5840243176364694  0.3502283637870107  1.0000
  H   H25       1.0  0.06480018218365306  0.5547429234074814  0.816207842374979  1.0000
  H   H26       1.0  0.11682058475187097  0.8154429166703919  0.9451526570935868  1.0000
  H   H27       1.0  0.4438333505309658  0.9417282121944838  0.6845033519255139  1.0000
  H   H28       1.0  0.8904821693222685  0.6860998353396612  0.5562490413125829  1.0000
  H   H29       1.0  0.9351965711547978  0.4452576590757714  0.18379190693692488  1.0000
  H   H30       1.0  0.8831834097179722  0.18455892221587078  0.0548431910651743  1.0000
  H   H31       1.0  0.5561621831109278  0.05827659888155519  0.3154956171557615  1.0000
  H   H32       1.0  0.10951442554081585  0.3138977576859859  0.4437491475380568  1.0000
  H   H33       1.0  0.07905863011949764  0.6004099956882386  0.932517602305502  1.0000
  H   H34       1.0  0.1787037476086654  0.9322799702717363  0.8988155403336932  1.0000
  H   H35       1.0  0.6182260385810996  0.8975022264091166  0.5678682358231555  1.0000
  H   H36       1.0  0.01732708737061727  0.5694643990020225  0.6022912308951334  1.0000
  H   H37       1.0  0.9209359019185043  0.39958784861155994  0.06748682839016598  1.0000
  H   H38       1.0  0.8213031154460211  0.06771913906642615  0.1011826485169465  1.0000
  H   H39       1.0  0.381765428257779  0.1025020821035625  0.4321346344112555  1.0000
  H   H40       1.0  0.9826732654402122  0.4305376825294971  0.39770617772488487  1.0000
  C   C1        1.0  0.2533499670026771  0.6790555217023526  0.0619027177863387  1.0000
  C   C2        1.0  0.4322816579478613  0.060471555955217575  0.8206684208746394  1.0000
  C   C3        1.0  0.996967919471615  0.8207732771298312  0.4354904063418202  1.0000
  C   C4        1.0  0.31697216292091945  0.4373418117953918  0.6803345796806823  1.0000
  C   C5        1.0  0.7466465227788817  0.3209398356996118  0.9381001524480722  1.0000
  C   C6        1.0  0.5677216756888017  0.9395275447504617  0.17932898774537875  1.0000
  C   C7        1.0  0.0030262615244752255  0.1792302948060041  0.5645163650457334  1.0000
  C   C8        1.0  0.6830283164498281  0.562655044655564  0.3196651696312145  1.0000
  C   C9        1.0  0.45177160867629595  0.6492628394995493  0.013203062685192897  1.0000
  C   C10       1.0  0.6007354815683288  0.012104954129043199  0.8502227768285662  1.0000
  C   C11       1.0  0.11829497307702773  0.8497716696401838  0.4851029312776021  1.0000
  C   C12       1.0  0.46857608120450317  0.48669435485000184  0.6497986935968639  1.0000
  C   C13       1.0  0.5482234328789843  0.3507322666218116  0.9868005877798465  1.0000
  C   C14       1.0  0.3992687557501643  0.9878963908277782  0.1497761922527019  1.0000
  C   C15       1.0  0.8817035175707206  0.1502319109295627  0.5149030598793161  1.0000
  C   C16       1.0  0.5314286544240688  0.5133017564009421  0.350194033639383  1.0000
  C   C17       1.0  0.5316592809804418  0.6112902772092494  0.9108833674553054  1.0000
  C   C18       1.0  0.6415115376391614  0.9092492569629087  0.8885414634256106  1.0000
  C   C19       1.0  0.05926742764128106  0.8878223254952856  0.5874215955887649  1.0000
  C   C20       1.0  0.45014737901820495  0.5892990716105402  0.610688853143138  1.0000
  C   C21       1.0  0.46833614353219133  0.3887073158142442  0.08911716208722  1.0000
  C   C22       1.0  0.35849078412240937  0.0907528331982235  0.11145984634754308  1.0000
  C   C23       1.0  0.9407362372650426  0.11217778032276725  0.4125836153375317  1.0000
  C   C24       1.0  0.5498591949534558  0.41069729092172486  0.3893023136318519  1.0000
  C   C25       1.0  0.7173315368425007  0.5854915457044996  0.8696567613081072  1.0000
  C   C26       1.0  0.8012423212649941  0.8683472017523995  0.914110401332266  1.0000
  C   C27       1.0  0.17926200307443454  0.9125847093645022  0.6297093153898955  1.0000
  C   C28       1.0  0.596118283268517  0.6311943375968454  0.5850926071645048  1.0000
  C   C29       1.0  0.2826649386201226  0.4145087855002955  0.1303414275425396  1.0000
  C   C30       1.0  0.19876524480951474  0.1316529040728298  0.08588700728775217  1.0000
  C   C31       1.0  0.8207342376350087  0.08742608062745917  0.37029199438325827  1.0000
  C   C32       1.0  0.4038919044944508  0.3687985501808555  0.4149009003023707  1.0000
  C   C33       1.0  0.8251083207988475  0.5984540593194722  0.9308143588448131  1.0000
  C   C34       1.0  0.9231077514568117  0.9302170509872738  0.9004657281116834  1.0000
  C   C35       1.0  0.36103125348211784  0.898716755139084  0.5692664091083373  1.0000
  C   C36       1.0  0.7622938036767766  0.5704318802152315  0.5995939736145103  1.0000
  C   C37       1.0  0.1748887804697788  0.4015482648580146  0.0691838300058336  1.0000
  C   C38       1.0  0.07689691816514005  0.0697825522767488  0.09953324096958477  1.0000
  C   C39       1.0  0.6389670293441583  0.10128806456800285  0.4307349006648167  1.0000
  C   C40       1.0  0.237715874568913  0.42956374574090006  0.4004003140829936  1.0000
  C   C41       1.0  0.7329123492393993  0.6363617792997543  0.0343636975442578  1.0000
  C   C42       1.0  0.8702231277516645  0.0341591247978242  0.8619160932487873  1.0000
  C   C43       1.0  0.409118076632709  0.8605751847151026  0.4657274640951528  1.0000
  C   C44       1.0  0.7699945515718128  0.46645135383018754  0.6381272236342213  1.0000
  C   C45       1.0  0.26708240728059024  0.36363556244457135  0.9656360517676389  1.0000
  C   C46       1.0  0.12977888110690855  0.9658419688769583  0.1380852165243667  1.0000
  C   C47       1.0  0.5908784100371136  0.13942764201713936  0.5342761863698868  1.0000
  C   C48       1.0  0.23000964667176757  0.5335442634898797  0.3618701849857899  1.0000
  N   N1        1.0  0.5536324588679092  0.6611509572553373  0.073369767324472  1.0000
  N   N2        1.0  0.7156172112001045  0.07295852312714148  0.8375986452692672  1.0000
  N   N3        1.0  0.2923385064223468  0.8366893954861041  0.4258678220080228  1.0000
  N   N4        1.0  0.6283342189570718  0.42687538173382217  0.6626358281175725  1.0000
  N   N5        1.0  0.44636144020462615  0.33884738097318484  0.9266323226793105  1.0000
  N   N6        1.0  0.2843869839317465  0.9270445635232035  0.1623995435813725  1.0000
  N   N7        1.0  0.707659227811746  0.1633124347626591  0.5741327075345026  1.0000
  N   N8        1.0  0.37167044661714516  0.573119239101338  0.3373600200411815  1.0000
  N   N9        1.0  0.006394659135544987  0.5769264897811865  0.8925690139267883  1.0000
  N   N10       1.0  0.08195250381043459  0.8922374268792127  0.9225322107297345  1.0000
  N   N11       1.0  0.4836759319070935  0.9197304821924919  0.6080789816928416  1.0000
  N   N12       1.0  0.9065017343590398  0.6093703457956962  0.5788570039863927  1.0000
  N   N13       1.0  0.9936086044467627  0.423071120508709  0.10743151561573679  1.0000
  N   N14       1.0  0.9180524015007024  0.10776416935678408  0.0774675385821624  1.0000
  N   N15       1.0  0.5163168215709676  0.08027855747346278  0.3919223280803195  1.0000
  N   N16       1.0  0.09349932863106877  0.3906302453214749  0.4211419650948826  1.0000
  O   O1        1.0  0.19728344095780428  0.707320876908426  0.1586559970287453  1.0000
  O   O2        1.0  0.40463051138174694  0.1579979861159941  0.7925801182705142  1.0000
  O   O3        1.0  0.06597748961655057  0.7913151203946355  0.33913504471964007  1.0000
  O   O4        1.0  0.35495273030267777  0.3404009469364624  0.710177620966931  1.0000
  O   O5        1.0  0.8027162653387734  0.2926734926396789  0.8413476534362943  1.0000
  O   O6        1.0  0.595375135088112  0.8419978824846767  0.2074165101188754  1.0000
  O   O7        1.0  0.9340099454464976  0.20868943076258253  0.6608701662066563  1.0000
  O   O8        1.0  0.6450457212701652  0.659596905996537  0.2898268097287371  1.0000
  O   O9        1.0  0.14718994222801046  0.6789169409746592  0.0093253164645688  1.0000
  O   O10       1.0  0.3258899133705668  0.006664431722811104  0.8205381223597783  1.0000
  O   O11       1.0  0.8369830734811504  0.8223388187842885  0.48709095891747  1.0000
  O   O12       1.0  0.15964306274234757  0.489499413079848  0.6794154680010251  1.0000
  O   O13       1.0  0.8528025929915303  0.32107766258621945  0.9906791142310991  1.0000
  O   O14       1.0  0.6741158493880237  0.993336168028989  0.17945928626023994  1.0000
  O   O15       1.0  0.16301691473898236  0.1776607844711222  0.5129173729313337  1.0000
  O   O16       1.0  0.8403576101309442  0.5105011780365984  0.3205842813108717  1.0000
