data_image0
_chemical_formula_structural       In4P4H24C24N4O20
_chemical_formula_sum              "In4 P4 H24 C24 N4 O20"
_cell_length_a       9.149388970843688
_cell_length_b       9.063320025221866
_cell_length_c       11.948685336654416
_cell_angle_alpha    90.00021985989788
_cell_angle_beta     98.03365800395491
_cell_angle_gamma    90.0007131042414

_space_group_name_H-M_alt    "P 1"
_space_group_IT_number       1

loop_
  _space_group_symop_operation_xyz
  'x, y, z'

loop_
  _atom_site_type_symbol
  _atom_site_label
  _atom_site_symmetry_multiplicity
  _atom_site_fract_x
  _atom_site_fract_y
  _atom_site_fract_z
  _atom_site_occupancy
  In  In1       1.0  0.11410743503451931  0.22658262316280536  0.6067265114316385  1.0000
  In  In2       1.0  0.8858840854602404  0.7265924793854095  0.8932828031485798  1.0000
  In  In3       1.0  0.885874562556218  0.7733996108451319  0.39327845398082684  1.0000
  In  In4       1.0  0.11407573871044013  0.273399684600342  0.10671328188893632  1.0000
  P   P1        1.0  0.04389271079082851  0.4080284693914391  0.8417894419166245  1.0000
  P   P2        1.0  0.9561142466917759  0.9080246945520752  0.6582043420922405  1.0000
  P   P3        1.0  0.9561134332038821  0.5919813484560165  0.15820869598946533  1.0000
  P   P4        1.0  0.0438808105220829  0.09197960647412629  0.3417893556042344  1.0000
  H   H1        1.0  0.9181880044689806  0.3166445194704153  0.8377226478405433  1.0000
  H   H2        1.0  0.08181102173340091  0.816646698959431  0.6622650686602967  1.0000
  H   H3        1.0  0.08181159126447572  0.6833664016972988  0.16227986667643532  1.0000
  H   H4        1.0  0.9181850897430195  0.18334987862551338  0.3377253850396258  1.0000
  H   H5        1.0  0.4117234938693955  0.1983053390833476  0.5043925421599981  1.0000
  H   H6        1.0  0.5883038576281907  0.698306605938434  0.9956059925390903  1.0000
  H   H7        1.0  0.5882760029687689  0.8016967552785201  0.4956032668837339  1.0000
  H   H8        1.0  0.4117199830989052  0.30169548858866335  0.004396399849220199  1.0000
  H   H9        1.0  0.3062563268696579  0.12195383695382128  0.8258056709674904  1.0000
  H   H10       1.0  0.6937467403331183  0.6219392370911547  0.6741852284589385  1.0000
  H   H11       1.0  0.6937299004239749  0.8780416372289535  0.17418715673382223  1.0000
  H   H12       1.0  0.3062615615449077  0.3780463070954595  0.3258097741627139  1.0000
  H   H13       1.0  0.5731262428794254  0.0762207678334548  0.9039058356630677  1.0000
  H   H14       1.0  0.4268698310976049  0.576211340724626  0.596100981781227  1.0000
  H   H15       1.0  0.4268611994039874  0.9237846365128916  0.09609464444270803  1.0000
  H   H16       1.0  0.5731354190412148  0.4237764101860363  0.40391129642222984  1.0000
  H   H17       1.0  0.7641603358118446  0.10400389742506627  0.773845216016575  1.0000
  H   H18       1.0  0.2358538104617552  0.6040093888592536  0.726165973295892  1.0000
  H   H19       1.0  0.23583823027105666  0.8960004036587748  0.2261622188303107  1.0000
  H   H20       1.0  0.7641591164916195  0.39599380896930814  0.2738437134423464  1.0000
  H   H21       1.0  0.6838905908941018  0.16586541370328683  0.5709949911732721  1.0000
  H   H22       1.0  0.3161309642561606  0.6658729531537301  0.929013759162011  1.0000
  H   H23       1.0  0.316110157952494  0.8341399907383928  0.42901098480641764  1.0000
  H   H24       1.0  0.6838907308302496  0.33413686480992055  0.07099260665760451  1.0000
  C   C1        1.0  0.9199482741792266  0.47634231252693815  0.5085833906109016  1.0000
  C   C2        1.0  0.08004763835200635  0.9763495220401167  0.9914212202628934  1.0000
  C   C3        1.0  0.08005896107432162  0.5236498517501929  0.49141401782314637  1.0000
  C   C4        1.0  0.9199421349038559  0.023650365600928994  0.008587859143624116  1.0000
  C   C5        1.0  0.4537739169854121  0.1741027758514591  0.5923960975281447  1.0000
  C   C6        1.0  0.546250887641172  0.6741008597475328  0.9076012792721502  1.0000
  C   C7        1.0  0.546222305681127  0.8258938017541195  0.40760189980821343  1.0000
  C   C8        1.0  0.45376959247781906  0.3259023380978617  0.09239743414999423  1.0000
  C   C9        1.0  0.3939523214819972  0.12922088212518898  0.7728312518045612  1.0000
  C   C10       1.0  0.6060497402064869  0.6292099109432028  0.7271595695738071  1.0000
  C   C11       1.0  0.6060406024232706  0.8707878322945389  0.2271672574980599  1.0000
  C   C12       1.0  0.3939574333493212  0.37079328680685814  0.27283364797440873  1.0000
  C   C13       1.0  0.5414515580974639  0.10592579158913645  0.8154707674443104  1.0000
  C   C14       1.0  0.4585580509408801  0.6059282505553937  0.6845299368084242  1.0000
  C   C15       1.0  0.4585424571113848  0.8940718893509041  0.18452701240024547  1.0000
  C   C16       1.0  0.5414548019155633  0.3940793606531726  0.31547472084817946  1.0000
  C   C17       1.0  0.6478279693607761  0.12105535999865674  0.7431549787482297  1.0000
  C   C18       1.0  0.35218417508509253  0.6210524963762935  0.7568543887032606  1.0000
  C   C19       1.0  0.35217168812260985  0.878952251135203  0.2568517266708882  1.0000
  C   C20       1.0  0.6478286900214486  0.3789396679564161  0.24315110710254834  1.0000
  C   C21       1.0  0.6033747246115981  0.15466057614860765  0.6294877110074283  1.0000
  C   C22       1.0  0.3966455383079436  0.6546632671591152  0.8705183687030172  1.0000
  C   C23       1.0  0.3966182857525098  0.8453448282418489  0.3705166655609773  1.0000
  C   C24       1.0  0.6033761320397276  0.34534213740619174  0.1294863207436237  1.0000
  N   N1        1.0  0.35181407530292574  0.16361722393681072  0.6632370895390666  1.0000
  N   N2        1.0  0.6482006663631739  0.6636095510819755  0.8367601024230568  1.0000
  N   N3        1.0  0.6481855326955425  0.8363804570519305  0.33676626313177843  1.0000
  N   N4        1.0  0.3518076355968489  0.336388129937468  0.1632349002242321  1.0000
  O   O1        1.0  0.14312240977191243  0.3483630805833541  0.7594539876875074  1.0000
  O   O2        1.0  0.8568803809016077  0.8483618463189513  0.7405358653698573  1.0000
  O   O3        1.0  0.8568704399022523  0.6516301869444799  0.24053949249153564  1.0000
  O   O4        1.0  0.14311904180981122  0.15164024802916024  0.25945491458291775  1.0000
  O   O5        1.0  0.9895784651210209  0.5636393439836808  0.8047851129376015  1.0000
  O   O6        1.0  0.010424979708382397  0.06363642018294509  0.6952098398866297  1.0000
  O   O7        1.0  0.010427827142081002  0.4363726805881568  0.1952230831550565  1.0000
  O   O8        1.0  0.9895678576709629  0.9363656741301082  0.3047828021292318  1.0000
  O   O9        1.0  0.12615941995178304  0.4057685286697461  0.9630282409706582  1.0000
  O   O10       1.0  0.8738464773696749  0.9057620100296472  0.5369704538317637  1.0000
  O   O11       1.0  0.8738599069497116  0.5942247390235449  0.03696701095614693  1.0000
  O   O12       1.0  0.12613875735167573  0.09422905077300918  0.4630298087495959  1.0000
  O   O13       1.0  0.9029383156874503  0.3478750384040977  0.5468723295444278  1.0000
  O   O14       1.0  0.09706233519221291  0.8478943887499283  0.9531223330920469  1.0000
  O   O15       1.0  0.0970555759246423  0.6521149190739448  0.4531170684655664  1.0000
  O   O16       1.0  0.9029239787018853  0.15211873902391193  0.046876361919316906  1.0000
  O   O17       1.0  0.8167371985376733  0.5686124403399686  0.482599200421042  1.0000
  O   O18       1.0  0.18325668013164886  0.06862943163439175  0.0173953997896206  1.0000
  O   O19       1.0  0.18326327835431042  0.4313697937340634  0.5173883355095583  1.0000
  O   O20       1.0  0.8167342092783302  0.9313803861518931  0.9826146265667576  1.0000
