data_image0
_chemical_formula_structural       Ba6H18C42N6O24
_chemical_formula_sum              "Ba6 H18 C42 N6 O24"
_cell_length_a       9.45599056958316
_cell_length_b       10.971814750949354
_cell_length_c       12.729415994264246
_cell_angle_alpha    115.52344572681376
_cell_angle_beta     91.50727370718602
_cell_angle_gamma    90.01161615731364

_space_group_name_H-M_alt    "P 1"
_space_group_IT_number       1

loop_
  _space_group_symop_operation_xyz
  'x, y, z'

loop_
  _atom_site_type_symbol
  _atom_site_label
  _atom_site_symmetry_multiplicity
  _atom_site_fract_x
  _atom_site_fract_y
  _atom_site_fract_z
  _atom_site_occupancy
  Ba  Ba1       1.0  0.749952401465471  0.9268119672117477  0.9999933207659739  1.0000
  Ba  Ba2       1.0  0.2500455642248554  0.07318810052904469  6.518225575296612e-06  1.0000
  Ba  Ba3       1.0  0.9226950735744098  0.3190427954611152  0.32618105246566403  1.0000
  Ba  Ba4       1.0  0.5771780281127761  0.9927294215802432  0.6738292619855103  1.0000
  Ba  Ba5       1.0  0.0773039266876339  0.6809562784365467  0.6738160742631294  1.0000
  Ba  Ba6       1.0  0.42282414212186137  0.007266589167151902  0.3261730535861105  1.0000
  H   H1        1.0  0.9021769992215669  0.35401237296675003  0.8621630014914956  1.0000
  H   H2        1.0  0.5975987099243129  0.4918186080749224  0.13777472003465635  1.0000
  H   H3        1.0  0.0978241441020344  0.645987695418178  0.1378376765909622  1.0000
  H   H4        1.0  0.4024013832375744  0.5081824733580476  0.8622255348679461  1.0000
  H   H5        1.0  0.74981110853534  0.3036002715673334  0.9999722833163319  1.0000
  H   H6        1.0  0.2501879306121282  0.6964008032492899  2.8737036842693182e-05  1.0000
  H   H7        1.0  0.32442279999879287  0.34631750216563256  0.22161663859161962  1.0000
  H   H8        1.0  0.1756242762386862  0.12475563891538137  0.7783862870629719  1.0000
  H   H9        1.0  0.6755773359012452  0.6536865998506869  0.7783863213049429  1.0000
  H   H10       1.0  0.8243759023547313  0.8752525081499131  0.22161740533646684  1.0000
  H   H11       1.0  0.2778947042342423  0.5877970208459189  0.35783951870410396  1.0000
  H   H12       1.0  0.2221694487881791  0.229972701387986  0.6420593356282184  1.0000
  H   H13       1.0  0.7221085898115902  0.41220710582067693  0.6421603609800927  1.0000
  H   H14       1.0  0.7778316866956558  0.7700284010650051  0.3579378022418568  1.0000
  H   H15       1.0  0.4736280414178467  0.7242224796025526  0.4915782218675489  1.0000
  H   H16       1.0  0.0262806453824282  0.23261847875785696  0.5083614959143219  1.0000
  H   H17       1.0  0.526371017127559  0.2757806201391658  0.508422772806739  1.0000
  H   H18       1.0  0.9737172581718169  0.7673765434744765  0.49163566376216045  1.0000
  C   C1        1.0  0.581413216886574  0.22031073028228584  0.18699788720220312  1.0000
  C   C2        1.0  0.9186496256722096  0.03304399359292629  0.8128805153981774  1.0000
  C   C3        1.0  0.4185868918205387  0.7796913564113979  0.8130035306519334  1.0000
  C   C4        1.0  0.08135787677065312  0.9669570957446537  0.18712065223566307  1.0000
  C   C5        1.0  0.8316640556704514  0.5588102924866831  0.9271479470107027  1.0000
  C   C6        1.0  0.6681255649761653  0.6316082024246227  0.07273508234340646  1.0000
  C   C7        1.0  0.16833598700306854  0.441186753499764  0.07285000766771797  1.0000
  C   C8        1.0  0.3318723696237313  0.36838985479474934  0.9272624307450741  1.0000
  C   C9        1.0  0.834375336962495  0.4298359618578332  0.9239763097894951  1.0000
  C   C10       1.0  0.665334242705022  0.5058052764795349  0.07590553149003651  1.0000
  C   C11       1.0  0.16562364779910152  0.570161082313497  0.07602162647883404  1.0000
  C   C12       1.0  0.33466581161621894  0.49419277956885566  0.9240928022792689  1.0000
  C   C13       1.0  0.7497996542302303  0.40302604541086845  0.999922344421833  1.0000
  C   C14       1.0  0.2502004039437439  0.5969730303019104  7.48007170444511e-05  1.0000
  C   C15       1.0  0.9190797648295757  0.5944800328226945  0.846170276672929  1.0000
  C   C16       1.0  0.5807229532483121  0.7482030622615738  0.15376965003176224  1.0000
  C   C17       1.0  0.0809160267535418  0.40551600544379346  0.15382565755296446  1.0000
  C   C18       1.0  0.41927496970386363  0.2517939848958619  0.8462274839658336  1.0000
  C   C19       1.0  0.7443044030198465  0.6367403063857537  0.5097086530702201  1.0000
  C   C20       1.0  0.7556257051243023  0.1269372865166645  0.49042009323819974  1.0000
  C   C21       1.0  0.2556967558937373  0.3632597427942628  0.4902951604548491  1.0000
  C   C22       1.0  0.24437123374452346  0.8730647899304247  0.5095820532463409  1.0000
  C   C23       1.0  0.5450808024551748  0.3618729134254082  0.27390660617079027  1.0000
  C   C24       1.0  0.9550084825952538  0.08788530571412419  0.7260762608739313  1.0000
  C   C25       1.0  0.4549203292654767  0.6381251204319653  0.7260956653118599  1.0000
  C   C26       1.0  0.044994729961324295  0.9121107260532995  0.2739229376651622  1.0000
  C   C27       1.0  0.4081700503020542  0.4113776879094787  0.2779428651400409  1.0000
  C   C28       1.0  0.09189057899496333  0.1334928628889855  0.7220690596617345  1.0000
  C   C29       1.0  0.5918321781263955  0.5886243976132163  0.7220593733949201  1.0000
  C   C30       1.0  0.9081106458626564  0.8665142759294895  0.27793427205691046  1.0000
  C   C31       1.0  0.38227917410623047  0.5445801890063677  0.35500963742412495  1.0000
  C   C32       1.0  0.1177549917102709  0.1896312942244265  0.6449743842736596  1.0000
  C   C33       1.0  0.6177241083366526  0.45542190313266684  0.6449918356602639  1.0000
  C   C34       1.0  0.8822471978775326  0.8103677659136821  0.3550259331279976  1.0000
  C   C35       1.0  0.4917946309938798  0.6206842399462005  0.42972520545036735  1.0000
  C   C36       1.0  0.008172724027311102  0.1909446947468822  0.570273197370831  1.0000
  C   C37       1.0  0.5082076051847936  0.37931886043965324  0.5702766283148223  1.0000
  C   C38       1.0  0.9918284076485688  0.8090543635761093  0.42972710162074185  1.0000
  C   C39       1.0  0.6240601811986437  0.5619848614904797  0.4245219393918092  1.0000
  C   C40       1.0  0.8759601796801137  0.13729708692760306  0.5754764684485921  1.0000
  C   C41       1.0  0.37593991205278593  0.43801417101126094  0.5754822604929473  1.0000
  C   C42       1.0  0.1240398979813406  0.862701964779042  0.42452459599355324  1.0000
  N   N1        1.0  0.749883183433596  0.6575046340228781  0.9999278225229988  1.0000
  N   N2        1.0  0.25011792104935177  0.3424924089774706  7.09344261551109e-05  1.0000
  N   N3        1.0  0.6508316795799446  0.43592060961342577  0.3452321575018687  1.0000
  N   N4        1.0  0.8492481358049844  0.09042634359422413  0.654715214534221  1.0000
  N   N5        1.0  0.3491694521407068  0.5640774242439476  0.6547701139807813  1.0000
  N   N6        1.0  0.15075401883967027  0.9095696863580752  0.3452839655947884  1.0000
  O   O1        1.0  0.7103624337685303  0.1961494594346149  0.16014292156822313  1.0000
  O   O2        1.0  0.789688031906664  0.0357369884289227  0.8397383582138006  1.0000
  O   O3        1.0  0.28963763999542647  0.8038495970732598  0.8398573590132729  1.0000
  O   O4        1.0  0.2103195287300181  0.9642701756839573  0.16026273238338734  1.0000
  O   O5        1.0  0.48103970943156327  0.13382711592349486  0.1469788053845704  1.0000
  O   O6        1.0  0.0189859096087019  0.9865469994863856  0.8528983489238229  1.0000
  O   O7        1.0  0.5189604498534593  0.8661769572854682  0.8530288576759092  1.0000
  O   O8        1.0  0.9810182714860147  0.013442997730670902  0.1470946741767918  1.0000
  O   O9        1.0  0.9107058997947631  0.71698924998271  0.857915221631778  1.0000
  O   O10       1.0  0.589143312416148  0.8590527192971463  0.1421406176792317  1.0000
  O   O11       1.0  0.08929626649760541  0.28300779003152593  0.1420843375881091  1.0000
  O   O12       1.0  0.4108545949908162  0.1409433225995826  0.8578553533668298  1.0000
  O   O13       1.0  0.7257885528826976  0.7584916107213359  0.5807674951291873  1.0000
  O   O14       1.0  0.7738026723663154  0.1780161803524223  0.4195796179669813  1.0000
  O   O15       1.0  0.2742126020886174  0.24150946772552834  0.4192335620441484  1.0000
  O   O16       1.0  0.22619539824300722  0.821990929014561  0.5804275778246721  1.0000
  O   O17       1.0  0.9917563803181154  0.5043991778071304  0.7708055633828225  1.0000
  O   O18       1.0  0.5080492686209794  0.7334049553381518  0.2291119708121343  1.0000
  O   O19       1.0  0.008229820126587099  0.495591808217277  0.2291859581159414  1.0000
  O   O20       1.0  0.4919433181359311  0.2665890669615578  0.7708815822804383  1.0000
  O   O21       1.0  0.8575394342372815  0.5710911211102285  0.5044484387218163  1.0000
  O   O22       1.0  0.6425854051414106  0.0661845462995672  0.4955596407263202  1.0000
  O   O23       1.0  0.1424616896436035  0.4289079468152153  0.49555029254845107  1.0000
  O   O24       1.0  0.3574104952134292  0.9338195532575071  0.5044424616692567  1.0000
