data_image0
_chemical_formula_structural       Cu12H90C120N24
_chemical_formula_sum              "Cu12 H90 C120 N24"
_cell_length_a       31.399328743729086
_cell_length_b       32.9870554128793
_cell_length_c       34.74088390398503
_cell_angle_alpha    89.44521257398218
_cell_angle_beta     86.79462536289554
_cell_angle_gamma    88.20153075396496

_space_group_name_H-M_alt    "P 1"
_space_group_IT_number       1

loop_
  _space_group_symop_operation_xyz
  'x, y, z'

loop_
  _atom_site_type_symbol
  _atom_site_label
  _atom_site_symmetry_multiplicity
  _atom_site_fract_x
  _atom_site_fract_y
  _atom_site_fract_z
  _atom_site_occupancy
  Cu  Cu1       1.0  0.7643960112081275  0.18488889692979882  0.1402181687992652  1.0000
  Cu  Cu2       1.0  0.819126787841263  0.21082728293855268  0.2084636878533672  1.0000
  Cu  Cu3       1.0  0.7759492056883277  0.12408130831129677  0.21008585577203578  1.0000
  Cu  Cu4       1.0  0.8293496884815497  0.7836474871981238  0.8328614976006322  1.0000
  Cu  Cu5       1.0  0.91703161986802  0.7999868464588645  0.7865747541861623  1.0000
  Cu  Cu6       1.0  0.8340703489571343  0.8507124250321  0.7673296614980103  1.0000
  Cu  Cu7       1.0  0.19925948621443723  0.21014996200012354  0.8658090595518999  1.0000
  Cu  Cu8       1.0  0.13974625406018504  0.20525726987721526  0.7954503420742327  1.0000
  Cu  Cu9       1.0  0.21761422053707244  0.14217262810520034  0.8028557254501507  1.0000
  Cu  Cu10      1.0  0.20417852861907454  0.7818176451638905  0.16556460441900359  1.0000
  Cu  Cu11      1.0  0.12042616123933672  0.7997239919250063  0.21901728039880197  1.0000
  Cu  Cu12      1.0  0.19788904938131682  0.8586395159295676  0.2198355688969613  1.0000
  H   H1        1.0  0.7973070955808552  0.2459107526132486  0.07518396736743681  1.0000
  H   H2        1.0  0.8656635560676663  0.2868115982683648  0.1717705730786747  1.0000
  H   H3        1.0  0.7350345769452032  0.0452777414150773  0.17575988650844473  1.0000
  H   H4        1.0  0.7056143981539761  0.13523962882803886  0.0887560086742809  1.0000
  H   H5        1.0  0.8737355755815486  0.2028811489659148  0.281403280382591  1.0000
  H   H6        1.0  0.8148802860926522  0.0858047988782076  0.2848347794758297  1.0000
  H   H7        1.0  0.8574688888213516  0.71318350457188  0.889338761290304  1.0000
  H   H8        1.0  0.9798529431087034  0.7471762941602905  0.8371329258895416  1.0000
  H   H9        1.0  0.7573469747298065  0.9090407485233882  0.7961645125080565  1.0000
  H   H10       1.0  0.7466552999277168  0.8127023269383712  0.8814126627763558  1.0000
  H   H11       1.0  0.9853738711598511  0.8444746227534665  0.7311410369299126  1.0000
  H   H12       1.0  0.8680446435019817  0.9019085114414764  0.6949416714348331  1.0000
  H   H13       1.0  0.1526015869619997  0.2807292953194818  0.9140588914441495  1.0000
  H   H14       1.0  0.060721504614996015  0.26014112160406466  0.8284476874461788  1.0000
  H   H15       1.0  0.28702572294339035  0.08719059448410599  0.8427780348925609  1.0000
  H   H16       1.0  0.25749706811364353  0.1767809197990431  0.9314078485503643  1.0000
  H   H17       1.0  0.1026410539475719  0.1761520735236246  0.7179359075363578  1.0000
  H   H18       1.0  0.20084108781686896  0.08334597206140161  0.7341097210937875  1.0000
  H   H19       1.0  0.17782022771628186  0.702647647487879  0.1227944539707124  1.0000
  H   H20       1.0  0.06067675509424223  0.7325549725381676  0.1897133595219032  1.0000
  H   H21       1.0  0.27015437990035457  0.9118728759853596  0.1803650213727437  1.0000
  H   H22       1.0  0.28191164483375536  0.8051960348967029  0.10830583683051738  1.0000
  H   H23       1.0  0.05142876139624521  0.850386043716334  0.2709903380044523  1.0000
  H   H24       1.0  0.16351001525588776  0.9214312133753707  0.2833912659283868  1.0000
  H   H25       1.0  0.06338919422707079  0.016512429852752995  0.4650591438956084  1.0000
  H   H26       1.0  0.9484213373567983  0.0912993992015032  0.4694390842621061  1.0000
  H   H27       1.0  0.049830438671648415  0.09980553410695592  0.5200780314811054  1.0000
  H   H28       1.0  0.9618948694517472  0.0025593494897151003  0.5175860659113738  1.0000
  H   H29       1.0  0.005856621417009902  0.052525759034878695  0.3598638951813768  1.0000
  H   H30       1.0  0.013394044195685201  0.03575314101725979  0.6248198697394187  1.0000
  H   H31       1.0  0.046188367255432204  0.47325962168947205  0.9834673463253124  1.0000
  H   H32       1.0  0.9482740795157838  0.47304278863589383  0.07504800591475203  1.0000
  H   H33       1.0  0.9522243038950295  0.5263021038223457  0.9832293234898231  1.0000
  H   H34       1.0  0.0382766630998077  0.5291391781288509  0.0752208998418382  1.0000
  H   H35       1.0  0.9918527549856722  0.360517832237491  0.02192869874675551  1.0000
  H   H36       1.0  0.9907977560596279  0.6409439420430232  0.02573961515887651  1.0000
  H   H37       1.0  0.5359884633722842  0.9064061312382988  0.9615465992568205  1.0000
  H   H38       1.0  0.5286631108864127  0.021741242457963498  0.01861710283341721  1.0000
  H   H39       1.0  0.4722079275341928  0.9288738894979433  0.0428821627469276  1.0000
  H   H40       1.0  0.47775450019319277  0.0027186008919955003  0.9401840836434798  1.0000
  H   H41       1.0  0.651411568629392  0.9655426493075439  0.9875155204279408  1.0000
  H   H42       1.0  0.35634180215706834  0.9806985140960691  0.9994412258552217  1.0000
  H   H43       1.0  0.8873281588440138  0.3468497420307983  0.12600467856626807  1.0000
  H   H44       1.0  0.920640729775535  0.3458614325104747  0.0399697940136434  1.0000
  H   H45       1.0  0.8658342932859856  0.29666171534341873  0.05570555612438001  1.0000
  H   H46       1.0  0.9291968089814802  0.40668947845519193  0.1055553284825734  1.0000
  H   H47       1.0  0.9014433315073023  0.6537700950237237  0.9200227990832914  1.0000
  H   H48       1.0  0.9879341973521323  0.654113180205158  0.959571440252489  1.0000
  H   H49       1.0  0.9836506842015356  0.7017376848512314  0.9064093551160752  1.0000
  H   H50       1.0  0.9155338492253977  0.5931167747890314  0.9630997965018081  1.0000
  H   H51       1.0  0.10505833292383929  0.346438893345173  0.9265387194788274  1.0000
  H   H52       1.0  0.0089707651777857  0.3478882221297965  0.9540268129413719  1.0000
  H   H53       1.0  0.028497152298747608  0.3000200158478635  0.8998816123963422  1.0000
  H   H54       1.0  0.0823268369849899  0.4055177142177797  0.9657989017414151  1.0000
  H   H55       1.0  0.025127134905766013  0.6963187482171378  0.1372927875942054  1.0000
  H   H56       1.0  0.9930232968390272  0.6591832977600376  0.0872527108349743  1.0000
  H   H57       1.0  0.10913905177749683  0.6555461691245553  0.10592676187016539  1.0000
  H   H58       1.0  0.06655980758161922  0.596432153287438  0.0944549443768139  1.0000
  H   H59       1.0  0.651081764262209  0.084619662435351  0.06904471599018082  1.0000
  H   H60       1.0  0.6600597591952706  0.9919838074757694  0.052772524191453805  1.0000
  H   H61       1.0  0.7019718937959497  0.014650741746407901  0.10626373277624879  1.0000
  H   H62       1.0  0.5960672318054349  0.05864188515904091  0.0281064906906394  1.0000
  H   H63       1.0  0.30101642876415724  0.9478912016775282  0.1203669645766681  1.0000
  H   H64       1.0  0.33750596731719174  0.9783517067965729  0.0637086871715411  1.0000
  H   H65       1.0  0.3363681218739672  0.8679480851307274  0.084828134043029  1.0000
  H   H66       1.0  0.4013423175610882  0.9063941153854529  0.06955237149533391  1.0000
  H   H67       1.0  0.6768301639494966  0.8517677227943564  0.9060226862253914  1.0000
  H   H68       1.0  0.6603160961998783  0.944370539489711  0.9184605076729255  1.0000
  H   H69       1.0  0.7072772626428473  0.9288536959041948  0.8634151053034812  1.0000
  H   H70       1.0  0.6123543191301268  0.8707590722061553  0.951693745735021  1.0000
  H   H71       1.0  0.3485037430776786  0.06408307517884991  0.8868060316344852  1.0000
  H   H72       1.0  0.34638344920566067  0.0486245624832122  0.9754189441784646  1.0000
  H   H73       1.0  0.3004472562760085  0.1055013356458119  0.9562553882623349  1.0000
  H   H74       1.0  0.40844497495739773  0.019792463123721404  0.9088150961001631  1.0000
  H   H75       1.0  0.9345024346254575  0.1635250671433397  0.31422022316913  1.0000
  H   H76       1.0  0.986377599740834  0.12084775222540861  0.3482595836955156  1.0000
  H   H77       1.0  0.8745462252410903  0.0956828649900956  0.3406773739979982  1.0000
  H   H78       1.0  0.9101550504386255  0.10220865351138998  0.40423366528005994  1.0000
  H   H79       1.0  0.09974358822663731  0.14265602233990646  0.6491777441864528  1.0000
  H   H80       1.0  0.0842853468820977  0.0514651813746596  0.6350725734775509  1.0000
  H   H81       1.0  0.1352035255350472  0.06308742056863538  0.6839200817442403  1.0000
  H   H82       1.0  0.0630308094868752  0.12831972454394253  0.58801339834514  1.0000
  H   H83       1.0  0.11927886892041069  0.9533138018034819  0.3419080655495179  1.0000
  H   H84       1.0  0.024320965587300198  0.983522791342516  0.3499003942849299  1.0000
  H   H85       1.0  0.0361860632589099  0.9259575549616914  0.3082873144064706  1.0000
  H   H86       1.0  0.10076222923397891  0.0005768131038906  0.3984815792879672  1.0000
  H   H87       1.0  0.9152938610575421  0.9295882594042623  0.6377208491187076  1.0000
  H   H88       1.0  0.00471843777268791  0.9677517158033594  0.6357693700403075  1.0000
  H   H89       1.0  0.996031361071253  0.9129720692664093  0.6825824019855489  1.0000
  H   H90       1.0  0.931011245422944  0.975218015533777  0.5810094393725009  1.0000
  C   C1        1.0  0.8102522949589857  0.25139118472127103  0.1029201521987275  1.0000
  C   C2        1.0  0.8411633935741135  0.279022911293012  0.112428245802235  1.0000
  C   C3        1.0  0.8446984222592137  0.27284002982019473  0.1523176123209282  1.0000
  C   C4        1.0  0.7311127260433211  0.07222647624592332  0.1579709809144916  1.0000
  C   C5        1.0  0.7110404948599367  0.07688869176044481  0.12288558918963588  1.0000
  C   C6        1.0  0.7153438940303689  0.11830888794213479  0.11388655807421338  1.0000
  C   C7        1.0  0.8554441525157587  0.1761048227399442  0.2769908841406306  1.0000
  C   C8        1.0  0.8558890412915546  0.1386583643506896  0.2967699110200783  1.0000
  C   C9        1.0  0.8249465864294977  0.1165403341768112  0.2789511245552916  1.0000
  C   C10       1.0  0.8839790882930387  0.7250483126478215  0.8717699164619432  1.0000
  C   C11       1.0  0.9281835293787921  0.7185120292629108  0.8749888486636763  1.0000
  C   C12       1.0  0.9464342489689984  0.7430829998712555  0.8455204573762529  1.0000
  C   C13       1.0  0.7599354262525182  0.8815664076777523  0.8134382870109249  1.0000
  C   C14       1.0  0.7371910631124622  0.8710571847477054  0.8479609297264759  1.0000
  C   C15       1.0  0.7539453760871878  0.832166012421524  0.8567163307055452  1.0000
  C   C16       1.0  0.9527298535469841  0.8544542250678901  0.7266809214112584  1.0000
  C   C17       1.0  0.9374830515820066  0.8839746068162952  0.7008873366124605  1.0000
  C   C18       1.0  0.8928319422314674  0.8833428231398842  0.7076249897786582  1.0000
  C   C19       1.0  0.13547664769865972  0.2722117249713918  0.8892436551073857  1.0000
  C   C20       1.0  0.09329165969051452  0.2823373269787766  0.8801937897388542  1.0000
  C   C21       1.0  0.08822539793599304  0.26095345349752813  0.8459873243237155  1.0000
  C   C22       1.0  0.27624499610055864  0.11315770402365637  0.8600416397727599  1.0000
  C   C23       1.0  0.2840644014957547  0.1221668489958887  0.8985109480729889  1.0000
  C   C24       1.0  0.2605446667695546  0.15861483420683697  0.9054569974175095  1.0000
  C   C25       1.0  0.12967288682682468  0.15753220615974334  0.7264819547942665  1.0000
  C   C26       1.0  0.14549609012743045  0.12004359371452011  0.711721504580261  1.0000
  C   C27       1.0  0.17929866393466654  0.10975596269685892  0.7352631934408294  1.0000
  C   C28       1.0  0.1527141654260546  0.7149107916393121  0.14250000346454073  1.0000
  C   C29       1.0  0.1097079686055196  0.7041336927815322  0.1471855300402964  1.0000
  C   C30       1.0  0.09268777959090363  0.7304322002425395  0.17625015309528178  1.0000
  C   C31       1.0  0.26781467554234695  0.8826835442821234  0.1666116893407121  1.0000
  C   C32       1.0  0.28956256590457496  0.8673668467660676  0.13301481644710125  1.0000
  C   C33       1.0  0.2741275376977299  0.8279774450739197  0.13013810102306417  1.0000
  C   C34       1.0  0.08289933678720021  0.8631956656251348  0.2700707737697101  1.0000
  C   C35       1.0  0.09651355104524133  0.8981130460629103  0.2881865448505749  1.0000
  C   C36       1.0  0.140263894963887  0.8991412078283929  0.2770154832044227  1.0000
  C   C37       1.0  0.038759063024386406  0.0333723987459251  0.45002683963539886  1.0000
  C   C38       1.0  0.0060452163678804014  0.054059895871184  0.4716139527869387  1.0000
  C   C39       1.0  0.9736844446004228  0.07482871913025241  0.4526609240852366  1.0000
  C   C40       1.0  0.9743669468066046  0.07596942216880359  0.41208244107200903  1.0000
  C   C41       1.0  0.006315027856061301  0.05335293640106901  0.3912048078247992  1.0000
  C   C42       1.0  0.0383046092262376  0.031261418403026695  0.409651226797962  1.0000
  C   C43       1.0  0.006098603895836202  0.051323952629964295  0.514413890628397  1.0000
  C   C44       1.0  0.031850445208682715  0.0760797886403566  0.5351407379337657  1.0000
  C   C45       1.0  0.035482390278041016  0.0701835299754308  0.5750542259803452  1.0000
  C   C46       1.0  0.012426795183216703  0.039126211920098804  0.5936265702160597  1.0000
  C   C47       1.0  0.9855877299929646  0.0144946071742353  0.5736019971337499  1.0000
  C   C48       1.0  0.982294808178324  0.02149277842464411  0.5338402477767444  1.0000
  C   C49       1.0  0.023762872669422605  0.45664558179213094  0.0023346920513774  1.0000
  C   C50       1.0  0.9967692754989204  0.47791866097102087  0.028980398657317608  1.0000
  C   C51       1.0  0.9688896406951103  0.4564997775651847  0.053842225773152605  1.0000
  C   C52       1.0  0.9658969531039434  0.4141372861983825  0.05103207465254659  1.0000
  C   C53       1.0  0.992339382227158  0.3935338865334898  0.023156214968580002  1.0000
  C   C54       1.0  0.021744992701485395  0.41424226536585  0.9988594171893438  1.0000
  C   C55       1.0  0.9956608456784012  0.5230797590507591  0.029130837420538628  1.0000
  C   C56       1.0  0.970185558098919  0.5437207254753886  0.003015109624804799  1.0000
  C   C57       1.0  0.9688773703779889  0.58635991954241  0.0007874264336961913  1.0000
  C   C58       1.0  0.9920066592963437  0.6078806860261922  0.026817064448252402  1.0000
  C   C59       1.0  0.01640443900937781  0.5879453447821986  0.0543638235199921  1.0000
  C   C60       1.0  0.018897341331658903  0.545188210953299  0.0544546495545291  1.0000
  C   C61       1.0  0.5518318690879981  0.9316807383791357  0.9741470374530011  1.0000
  C   C62       1.0  0.5274081027398979  0.9640309999566554  0.9903027702515459  1.0000
  C   C63       1.0  0.5479249969569865  0.9968019189303373  0.005622380676939502  1.0000
  C   C64       1.0  0.5926215678980357  0.9968957283435315  0.006720845455774301  1.0000
  C   C65       1.0  0.6166323176820684  0.9651697462108331  0.988502952128627  1.0000
  C   C66       1.0  0.5967089559378352  0.9329461703179476  0.9713528727274792  1.0000
  C   C67       1.0  0.47991620306827815  0.9656312164181032  0.9914595361157482  1.0000
  C   C68       1.0  0.45591250863373745  0.9471368446795976  0.021482291965931204  1.0000
  C   C69       1.0  0.41123028045492305  0.9530644445686677  0.0253522001014801  1.0000
  C   C70       1.0  0.3910736540820779  0.9773637293065607  0.9978388722093499  1.0000
  C   C71       1.0  0.4144150149221986  0.9953406803977102  0.9668961532453366  1.0000
  C   C72       1.0  0.459002040146416  0.988754377585529  0.963879672660191  1.0000
  C   C73       1.0  0.8654732316428807  0.30479979458095835  0.08620452921100252  1.0000
  C   C74       1.0  0.8886764696953976  0.33682052739915486  0.0959846944022402  1.0000
  C   C75       1.0  0.9160551350959808  0.358442769899156  0.0690294156974929  1.0000
  C   C76       1.0  0.9361724755341356  0.3928554186509244  0.07726939829010604  1.0000
  C   C77       1.0  0.9504370856016209  0.6941094517974378  0.9026725359215817  1.0000
  C   C78       1.0  0.9339130902337942  0.6633022891367517  0.9243954452760191  1.0000
  C   C79       1.0  0.9571645816027614  0.6418190835050696  0.9530610460139286  1.0000
  C   C80       1.0  0.9446896219266848  0.6073234770459449  0.9714100780537294  1.0000
  C   C81       1.0  0.06207401849479769  0.30716523894535896  0.9022358967736608  1.0000
  C   C82       1.0  0.0717596626492565  0.33760135691213133  0.9259646987291889  1.0000
  C   C83       1.0  0.04137145874084781  0.3593418296573034  0.9511285479953172  1.0000
  C   C84       1.0  0.050682131051004824  0.3927925079222945  0.9710640001105304  1.0000
  C   C85       1.0  0.08842462787509221  0.6754959853142496  0.12426231903955913  1.0000
  C   C86       1.0  0.045557001365182315  0.6740270181826631  0.12134209923954842  1.0000
  C   C87       1.0  0.02410936496469421  0.6477224643160112  0.09615890707753752  1.0000
  C   C88       1.0  0.03811731865389591  0.6108646523196342  0.082785155183565  1.0000
  C   C89       1.0  0.6919528280532321  0.046147787226352904  0.10062450850220021  1.0000
  C   C90       1.0  0.6631237363881297  0.0534839397799018  0.0734597853270671  1.0000
  C   C91       1.0  0.6458550752226772  0.0226121502535506  0.05052881087610221  1.0000
  C   C92       1.0  0.6121431409183132  0.0286738911812847  0.02813856854505299  1.0000
  C   C93       1.0  0.3183231096458671  0.8874648518189759  0.10561284185839528  1.0000
  C   C94       1.0  0.32198358949117534  0.928243455825118  0.10191426029896891  1.0000
  C   C95       1.0  0.34907772277021826  0.9484005732828819  0.0731354825094783  1.0000
  C   C96       1.0  0.3869285359289165  0.9339205064131803  0.057289348196889  1.0000
  C   C97       1.0  0.7069334645165315  0.8963870477807133  0.8703253494852845  1.0000
  C   C98       1.0  0.6796030696689999  0.8841499553482207  0.8995192860551383  1.0000
  C   C99       1.0  0.653739587009838  0.9121712202095151  0.9228592040147915  1.0000
  C   C100      1.0  0.6217385554896284  0.9023866356032996  0.94877279404853  1.0000
  C   C101      1.0  0.3081776113724147  0.09897493688468731  0.9257687416285663  1.0000
  C   C102      1.0  0.33861731973005504  0.0698376513654964  0.9170512790299128  1.0000
  C   C103      1.0  0.3592887020087828  0.0456684799715887  0.9455825273721884  1.0000
  C   C104      1.0  0.39372471228741557  0.020540214785363307  0.9381466052112372  1.0000
  C   C105      1.0  0.8840575368785155  0.12345761468571233  0.3254921493662479  1.0000
  C   C106      1.0  0.9228575800820309  0.13817288247870604  0.3319924680955921  1.0000
  C   C107      1.0  0.9525489873680543  0.11945401546967818  0.3577083521742921  1.0000
  C   C108      1.0  0.9428029546522085  0.0999482040756519  0.3914321933854552  1.0000
  C   C109      1.0  0.12878072543936275  0.0958390772116502  0.6819145972942948  1.0000
  C   C110      1.0  0.10466774611622753  0.10988763277427441  0.6530847152747227  1.0000
  C   C111      1.0  0.0833491222710094  0.0838930549964942  0.6279292796244392  1.0000
  C   C112      1.0  0.061578228237969795  0.0964717772872348  0.5971047064146617  1.0000
  C   C113      1.0  0.07066418877926853  0.926505554989575  0.3114820113215586  1.0000
  C   C114      1.0  0.08520122689858313  0.9533710005157943  0.33668561063722535  1.0000
  C   C115      1.0  0.0575567231288119  0.9816348270375246  0.3579993921179677  1.0000
  C   C116      1.0  0.06857897073051332  0.004289818278671501  0.3880590781188644  1.0000
  C   C117      1.0  0.9625547497088364  0.91038941499302  0.6758898591565412  1.0000
  C   C118      1.0  0.9481074569097316  0.9329348292060968  0.6460873515489496  1.0000
  C   C119      1.0  0.9733411282149689  0.9620842997929487  0.6250009920837342  1.0000
  C   C120      1.0  0.9611150069767618  0.9827962302110721  0.5933042173394866  1.0000
  N   N1        1.0  0.8182263087040555  0.24369990158021443  0.16521809329299939  1.0000
  N   N2        1.0  0.7965482141120289  0.23056570855783323  0.1345468980779359  1.0000
  N   N3        1.0  0.7363593612705089  0.1365866244098513  0.1413170088535622  1.0000
  N   N4        1.0  0.7458921989601778  0.10803548364042109  0.1689390530300585  1.0000
  N   N5        1.0  0.808180193969463  0.13868106694597773  0.2503532721371684  1.0000
  N   N6        1.0  0.8270130245493731  0.17584638397332242  0.24933507067168392  1.0000
  N   N7        1.0  0.9156132878652558  0.7624579609002848  0.8263158185073038  1.0000
  N   N8        1.0  0.8767403863729584  0.7514311647113631  0.8428215260630338  1.0000
  N   N9        1.0  0.7843633000092467  0.8207775743210348  0.8297201745966163  1.0000
  N   N10       1.0  0.787910678916518  0.8514193565519933  0.8026235880477158  1.0000
  N   N11       1.0  0.8826173114922967  0.8558949876702753  0.7353307981739547  1.0000
  N   N12       1.0  0.9198725500119523  0.837702507538239  0.7470060820032316  1.0000
  N   N13       1.0  0.1245823278647862  0.24009720285012287  0.8354832845902253  1.0000
  N   N14       1.0  0.15382234387588775  0.24675049657796683  0.862649883203261  1.0000
  N   N15       1.0  0.24054403143768613  0.17035442560251818  0.8736871616208503  1.0000
  N   N16       1.0  0.2500326770005544  0.14186562022571544  0.8455589624883757  1.0000
  N   N17       1.0  0.18328426294250733  0.13882987258794088  0.7617037507836953  1.0000
  N   N18       1.0  0.15211408718423766  0.16834568938527636  0.7564874010240175  1.0000
  N   N19       1.0  0.12301132145119455  0.7551356597870293  0.1873002858239659  1.0000
  N   N20       1.0  0.16039754275306006  0.7456142354613391  0.16625585214969618  1.0000
  N   N21       1.0  0.24511007451523179  0.8207262151541741  0.15928592841772374  1.0000
  N   N22       1.0  0.24136693288242847  0.8547356406196157  0.182031489324757  1.0000
  N   N23       1.0  0.151530224865482  0.8674677324650517  0.2540464255806825  1.0000
  N   N24       1.0  0.11593094147318792  0.8449174577761055  0.24995793867356747  1.0000
