data_image0
_chemical_formula_structural       Tl4H16C28N4O16
_chemical_formula_sum              "Tl4 H16 C28 N4 O16"
_cell_length_a       5.86610829148666
_cell_length_b       6.9839591341589005
_cell_length_c       18.49042240137791
_cell_angle_alpha    89.99907767740461
_cell_angle_beta     90.0012212838591
_cell_angle_gamma    94.84436965646327

_space_group_name_H-M_alt    "P 1"
_space_group_IT_number       1

loop_
  _space_group_symop_operation_xyz
  'x, y, z'

loop_
  _atom_site_type_symbol
  _atom_site_label
  _atom_site_symmetry_multiplicity
  _atom_site_fract_x
  _atom_site_fract_y
  _atom_site_fract_z
  _atom_site_occupancy
  Tl  Tl1       1.0  0.588533434093094  0.962925526009556  0.8783874134805099  1.0000
  Tl  Tl2       1.0  0.41147500625275774  0.537058137086632  0.37838449503801286  1.0000
  Tl  Tl3       1.0  0.4114674519908021  0.037073699825057795  0.12161297283177666  1.0000
  Tl  Tl4       1.0  0.5885432369293824  0.4629437998517077  0.6216142688442117  1.0000
  H   H1        1.0  0.4107164604096809  0.4216862649090487  0.7678745691050322  1.0000
  H   H2        1.0  0.5892731712856545  0.0782552790111666  0.26787816962926303  1.0000
  H   H3        1.0  0.5892963463649606  0.5783128470458933  0.23212473559342325  1.0000
  H   H4        1.0  0.4107120606855545  0.9217412194374291  0.7321243799375025  1.0000
  H   H5        1.0  0.6044764706106562  0.48526090451347403  0.8862463791660528  1.0000
  H   H6        1.0  0.3955024268562326  0.014732251067087502  0.3862494637763446  1.0000
  H   H7        1.0  0.3955253981726372  0.5147469426513497  0.11375562958569665  1.0000
  H   H8        1.0  0.6044884706786958  0.9852541239855626  0.6137557899344228  1.0000
  H   H9        1.0  0.3838103481997449  0.3846043461888514  9.983247716149997e-05  1.0000
  H   H10       1.0  0.6161503197937392  0.11544423628174634  0.5001026741904651  1.0000
  H   H11       1.0  0.6161799273204736  0.6154064886966424  0.9999005537784097  1.0000
  H   H12       1.0  0.38385138521788775  0.8845621739893588  0.49989933456497926  1.0000
  H   H13       1.0  0.0383893427045479  0.2634240546010673  0.6377706035734148  1.0000
  H   H14       1.0  0.9615926970094294  0.23656863833141983  0.13777445038421374  1.0000
  H   H15       1.0  0.9616213682260478  0.7365865850896541  0.3622265378056681  1.0000
  H   H16       1.0  0.03839852797630532  0.7634206105515133  0.8622286400370667  1.0000
  C   C1        1.0  0.3225515542038693  0.38169705369031703  0.8178846980105232  1.0000
  C   C2        1.0  0.677427389630097  0.11827573742139921  0.31788522572995237  1.0000
  C   C3        1.0  0.6774485130448156  0.6182949876649746  0.18211622914072476  1.0000
  C   C4        1.0  0.32256393381214815  0.8817293335961979  0.6821162421853086  1.0000
  C   C5        1.0  0.4297841109261142  0.41814877263394123  0.8842402709773647  1.0000
  C   C6        1.0  0.5701988394054495  0.08185161445621247  0.3842361937915938  1.0000
  C   C7        1.0  0.570206557521992  0.5818505507659282  0.11576336023475155  1.0000
  C   C8        1.0  0.4298059440108375  0.9181518894735635  0.615766355799529  1.0000
  C   C9        1.0  0.1007538693839081  0.2899684110002383  0.8167833457302007  1.0000
  C   C10       1.0  0.899232382038889  0.21002449137024118  0.31678652006313957  1.0000
  C   C11       1.0  0.8992638827839414  0.7100292151177215  0.18322244882994446  1.0000
  C   C12       1.0  0.10075910501309693  0.789982016616037  0.6832111621047402  1.0000
  C   C13       1.0  0.0856650043436531  0.27809184814029925  0.9412661693497736  1.0000
  C   C14       1.0  0.9143118863236308  0.2219150158954761  0.44126609976485287  1.0000
  C   C15       1.0  0.9143491775493688  0.721904373894816  0.05872610469308628  1.0000
  C   C16       1.0  0.08568592135560489  0.7780871162804601  0.5587337457117554  1.0000
  C   C17       1.0  0.9522451139243697  0.22599857747194108  0.009939629338241197  1.0000
  C   C18       1.0  0.04775015940518301  0.27400182363756903  0.5099406324453779  1.0000
  C   C19       1.0  0.04775462580411731  0.7739905900851909  0.9900618386409047  1.0000
  C   C20       1.0  0.9522614355832388  0.7260016153343682  0.49005542731496365  1.0000
  C   C21       1.0  0.983320667051835  0.24207286769780012  0.7457357168672443  1.0000
  C   C22       1.0  0.016646865477227407  0.2579315997405446  0.24573734093068808  1.0000
  C   C23       1.0  0.016689716057840073  0.7579348983339783  0.254254934672879  1.0000
  C   C24       1.0  0.9833378102339481  0.7420749730964855  0.7542722392732484  1.0000
  C   C25       1.0  0.3093749741008267  0.36405549193011677  0.9467714437758015  1.0000
  C   C26       1.0  0.6906150618645627  0.1359726098715655  0.44677139043285036  1.0000
  C   C27       1.0  0.6906226698067427  0.635945203352094  0.05322840170449438  1.0000
  C   C28       1.0  0.3093897216211233  0.8640308940260869  0.5532327816198543  1.0000
  N   N1        1.0  0.9841571069546972  0.23978668145073812  0.8773795539683958  1.0000
  N   N2        1.0  0.0158108138625721  0.2602069230560673  0.37737413071485537  1.0000
  N   N3        1.0  0.015847577820018388  0.7602010004300367  0.12262029156452305  1.0000
  N   N4        1.0  0.9841823760593158  0.739799568701457  0.6226213881747994  1.0000
  O   O1        1.0  0.11167872375771988  0.3001183811752811  0.6898343759794014  1.0000
  O   O2        1.0  0.8882888730788849  0.19987099225541988  0.18983106841747593  1.0000
  O   O3        1.0  0.8883159405486865  0.6999010424222974  0.3101714184671066  1.0000
  O   O4        1.0  0.1116846667332254  0.8001126719826316  0.8101612055691018  1.0000
  O   O5        1.0  0.7542166158147623  0.14251827807370177  0.005895702931937298  1.0000
  O   O6        1.0  0.2457728751652013  0.35747945819514376  0.5058971286742986  1.0000
  O   O7        1.0  0.2457797179425967  0.8574709220480159  0.9941046833983759  1.0000
  O   O8        1.0  0.7542367879358948  0.6425369453206358  0.494101094327206  1.0000
  O   O9        1.0  0.7898451658802016  0.15739111336877437  0.7413056582714928  1.0000
  O   O10       1.0  0.21010839727782132  0.34264386697709887  0.24130767752330934  1.0000
  O   O11       1.0  0.21016181160532446  0.8426166850669647  0.2586920239277077  1.0000
  O   O12       1.0  0.7898814853839085  0.6573784793618884  0.7586910862372985  1.0000
  O   O13       1.0  0.05883149389975271  0.2757169549543975  0.06880416454628599  1.0000
  O   O14       1.0  0.9411668494719904  0.22426387249959134  0.5687992056757523  1.0000
  O   O15       1.0  0.9411645124299353  0.7242693713263363  0.9311989258940369  1.0000
  O   O16       1.0  0.058852179265201705  0.7757150416067092  0.4311990174527053  1.0000
