data_image0
_chemical_formula_structural       Cu2H52C24N4Cl4O10
_chemical_formula_sum              "Cu2 H52 C24 N4 Cl4 O10"
_cell_length_a       5.978126959334281
_cell_length_b       8.78678977748431
_cell_length_c       17.82075068163796
_cell_angle_alpha    83.89835080568284
_cell_angle_beta     80.16522501778168
_cell_angle_gamma    69.99694257243948

_space_group_name_H-M_alt    "P 1"
_space_group_IT_number       1

loop_
  _space_group_symop_operation_xyz
  'x, y, z'

loop_
  _atom_site_type_symbol
  _atom_site_label
  _atom_site_symmetry_multiplicity
  _atom_site_fract_x
  _atom_site_fract_y
  _atom_site_fract_z
  _atom_site_occupancy
  Cu  Cu1       1.0  0.433755868894877  0.25016676977626423  0.7501807722696798  1.0000
  Cu  Cu2       1.0  0.5662584458882376  0.7498233746901523  0.24981407642649608  1.0000
  H   H1        1.0  0.5891412573099398  0.6885114560425054  0.5626670266465938  1.0000
  H   H2        1.0  0.8409992301667937  0.8112114771376042  0.9369444122463337  1.0000
  H   H3        1.0  0.4108935030427076  0.31148199676437127  0.4373396561841149  1.0000
  H   H4        1.0  0.15895395285816957  0.18878967825130388  0.06306697972237882  1.0000
  H   H5        1.0  0.2602719305684005  0.4955579437471016  0.5454644918904208  1.0000
  H   H6        1.0  0.3009149082012496  0.005051471048922503  0.9548604312401353  1.0000
  H   H7        1.0  0.7397708824411633  0.5044454364478315  0.4545288504855948  1.0000
  H   H8        1.0  0.6990425701452168  0.9949537958624152  0.045141047818084715  1.0000
  H   H9        1.0  0.30118012469463884  0.6542624721536968  0.4787958405097542  1.0000
  H   H10       1.0  0.4337429840562023  0.84612026631482  0.02142902530123792  1.0000
  H   H11       1.0  0.6988676730062265  0.3457401148318909  0.5212031496786695  1.0000
  H   H12       1.0  0.5662114483676741  0.15389119430490444  0.9785739793426916  1.0000
  H   H13       1.0  0.4267108634046716  0.8531842935798297  0.6847468521026487  1.0000
  H   H14       1.0  0.9661350389826208  0.6472235940298461  0.815052012301628  1.0000
  H   H15       1.0  0.5733214023985269  0.14679795455964492  0.3152562691652393  1.0000
  H   H16       1.0  0.033831617175472554  0.3527769394193001  0.18495124731131807  1.0000
  H   H17       1.0  0.2574517694211731  0.7253627508998053  0.7317346224122334  1.0000
  H   H18       1.0  0.7145963669483698  0.7735671218974435  0.7683581856322947  1.0000
  H   H19       1.0  0.7425471690494447  0.27463763203044783  0.2682669323036181  1.0000
  H   H20       1.0  0.2853771236025435  0.22644922009221352  0.23164525766293317  1.0000
  H   H21       1.0  0.1092135338846201  0.936886591310831  0.7074287802840831  1.0000
  H   H22       1.0  0.75703009096847  0.5616601368531706  0.7932647446785241  1.0000
  H   H23       1.0  0.8908204170554795  0.06312057784528953  0.29256637900893895  1.0000
  H   H24       1.0  0.2429193701042393  0.4383607948476111  0.20673487543417932  1.0000
  H   H25       1.0  0.963139711576623  0.7387261657339226  0.5641327059606526  1.0000
  H   H26       1.0  0.26602845695394717  0.7611080081226336  0.9366161081343167  1.0000
  H   H27       1.0  0.03688815199629392  0.2612800355266671  0.435865682221909  1.0000
  H   H28       1.0  0.7339370119156071  0.23890079611230422  0.06338400090216822  1.0000
  H   H29       1.0  0.016174193438515866  0.633638816532411  0.6544422982657638  1.0000
  H   H30       1.0  0.30428442890419605  0.8659603207501407  0.8461869019605504  1.0000
  H   H31       1.0  0.9838401124120748  0.36636585260644955  0.3455517624624634  1.0000
  H   H32       1.0  0.6956820626892862  0.13404853196581  0.15381385980764156  1.0000
  H   H33       1.0  0.8554109935641986  0.8518145620227529  0.647696264176908  1.0000
  H   H34       1.0  0.35603969649805084  0.6478399005724215  0.8531036313620323  1.0000
  H   H35       1.0  0.14461032460742007  0.14819408830937422  0.35230230882783087  1.0000
  H   H36       1.0  0.6439311616659822  0.35216653985573754  0.14689741402458623  1.0000
  H   H37       1.0  0.3736240008455807  0.9671216158551277  0.5666531560350593  1.0000
  H   H38       1.0  0.9091157492852835  0.5327556117683231  0.9333786979103994  1.0000
  H   H39       1.0  0.6264143612104004  0.03287144741172912  0.43334838937465053  1.0000
  H   H40       1.0  0.09083652212596853  0.4672512081945613  0.06662721617344401  1.0000
  H   H41       1.0  0.052761668717117405  0.02512971891751191  0.5792530004082153  1.0000
  H   H42       1.0  0.659329612971518  0.4745446977012622  0.9211288622778613  1.0000
  H   H43       1.0  0.9472798770754166  0.9748680334871977  0.4207462882932875  1.0000
  H   H44       1.0  0.3406213155191153  0.5254641876417596  0.07887219135272261  1.0000
  H   H45       1.0  0.23188275009212597  0.8968010422396446  0.5024430846153294  1.0000
  H   H46       1.0  0.63177643261411  0.6030015310265782  0.997861344301477  1.0000
  H   H47       1.0  0.7681593737538108  0.10319666753268564  0.49755564350000736  1.0000
  H   H48       1.0  0.36817013821502786  0.3970074278839349  0.0021406462103285982  1.0000
  H   H49       1.0  0.9662610017300319  0.18781759896165084  0.7859653888707216  1.0000
  H   H50       1.0  0.9387552909299329  0.31493106490942324  0.7146164828708736  1.0000
  H   H51       1.0  0.03377464337334843  0.8121512227300515  0.21402086628857836  1.0000
  H   H52       1.0  0.06128062984828358  0.6850351505704639  0.28536744498001104  1.0000
  C   C1        1.0  0.5347660129539588  0.5072029751497027  0.6483452252304718  1.0000
  C   C2        1.0  0.6907890423748739  0.9919118217266601  0.8511462659101883  1.0000
  C   C3        1.0  0.465221604510539  0.492792823145301  0.3516598993698708  1.0000
  C   C4        1.0  0.3092169306659683  0.008098881548271205  0.14886328486301187  1.0000
  C   C5        1.0  0.4452475041864328  0.6374061046978171  0.5844703899310633  1.0000
  C   C6        1.0  0.6674449051380471  0.8623608557753999  0.9154427801048827  1.0000
  C   C7        1.0  0.5547832808352522  0.36259169787985723  0.4155294670694688  1.0000
  C   C8        1.0  0.33252177772378383  0.13764484746501895  0.08456457353872081  1.0000
  C   C9        1.0  0.3862917207857633  0.5598807351110154  0.52055587495844  1.0000
  C   C10       1.0  0.46655880713044673  0.9403245274888337  0.9795592077661514  1.0000
  C   C11       1.0  0.6137554587943651  0.4401202327961259  0.4794377510360094  1.0000
  C   C12       1.0  0.5333954963650739  0.05968589751650202  0.020446181031630317  1.0000
  C   C13       1.0  0.2581996508407512  0.8266648640023038  0.6907083668387346  1.0000
  C   C14       1.0  0.776978936970991  0.6727133764860938  0.8094719791711997  1.0000
  C   C15       1.0  0.7418122316859905  0.17333426261108545  0.30929276138729733  1.0000
  C   C16       1.0  0.22298669643971883  0.327299294434205  0.19053106024173874  1.0000
  C   C17       1.0  0.9981984987741793  0.7481911543732739  0.6214061759763753  1.0000
  C   C18       1.0  0.36831977431344076  0.7514910553636441  0.8792491092925732  1.0000
  C   C19       1.0  0.0018299383976126576  0.25181617361509734  0.37859104137019983  1.0000
  C   C20       1.0  0.6316428042890722  0.24851796203318338  0.12075380267472013  1.0000
  C   C21       1.0  0.22135844811803893  0.9285867109908994  0.5609942742290103  1.0000
  C   C22       1.0  0.7123079086913927  0.5711616795759583  0.9392744561442045  1.0000
  C   C23       1.0  0.7786793091573398  0.07141341106921573  0.4390041702679002  1.0000
  C   C24       1.0  0.2876472529869076  0.4288449272250361  0.06072865500883042  1.0000
  N   N1        1.0  0.22973198968345793  0.7831665724734763  0.614473862764527  1.0000
  N   N2        1.0  0.6281873865422295  0.7165051014612231  0.8858154986899864  1.0000
  N   N3        1.0  0.7702963007653096  0.21683221138894743  0.3855228652048909  1.0000
  N   N4        1.0  0.37177956308536836  0.2835003342876661  0.11418830714555382  1.0000
  Cl  Cl1       1.0  0.35376279110100456  0.37783600508230825  0.8628590081742262  1.0000
  Cl  Cl2       1.0  0.5901313191925649  0.12209124435678836  0.637271096832052  1.0000
  Cl  Cl3       1.0  0.6461687323386941  0.6221771289128171  0.13713373758454145  1.0000
  Cl  Cl4       1.0  0.40995079292854797  0.8779026112002059  0.3627252306415088  1.0000
  O   O1        1.0  0.37018944635976636  0.459648095502864  0.6891623363697763  1.0000
  O   O2        1.0  0.5175772153232142  0.04067780743989153  0.8112331955868798  1.0000
  O   O3        1.0  0.6298091318702884  0.5403405536255619  0.310828653312683  1.0000
  O   O4        1.0  0.4824347827682795  0.9593258628683333  0.1887637177358172  1.0000
  O   O5        1.0  0.755700753954393  0.4583628444876312  0.6510830273321278  1.0000
  O   O6        1.0  0.8676945533614668  0.03891412836281213  0.8470538766883069  1.0000
  O   O7        1.0  0.24430659761987514  0.5416486244781283  0.34893669842463754  1.0000
  O   O8        1.0  0.13226820330503827  0.961109044388863  0.15297560793052875  1.0000
  O   O9        1.0  0.04705266615566449  0.25523739062685286  0.7518216867947916  1.0000
  O   O10       1.0  0.9530408157937058  0.744647477390977  0.2481315653009092  1.0000
