data_image0
_chemical_formula_structural       Cu2H22C28N10Cl2
_chemical_formula_sum              "Cu2 H22 C28 N10 Cl2"
_cell_length_a       8.214391361824559
_cell_length_b       9.506250452344974
_cell_length_c       9.5842064475685
_cell_angle_alpha    72.2264300960548
_cell_angle_beta     72.83146989515312
_cell_angle_gamma    67.00457164977165

_space_group_name_H-M_alt    "P 1"
_space_group_IT_number       1

loop_
  _space_group_symop_operation_xyz
  'x, y, z'

loop_
  _atom_site_type_symbol
  _atom_site_label
  _atom_site_symmetry_multiplicity
  _atom_site_fract_x
  _atom_site_fract_y
  _atom_site_fract_z
  _atom_site_occupancy
  Cu  Cu1       1.0  0.23716478325498266  0.13386598249136472  0.1535631977197269  1.0000
  Cu  Cu2       1.0  0.7628363421616555  0.8661298942410692  0.8464437206244426  1.0000
  H   H1        1.0  0.13477981384988166  0.3840507739044907  0.4890455096749732  1.0000
  H   H2        1.0  0.8652187075183806  0.6159522930212588  0.510948496780827  1.0000
  H   H3        1.0  0.25546729298375953  0.26288755116510026  0.3600673298757116  1.0000
  H   H4        1.0  0.744532856288508  0.7371142324700057  0.6399350002548161  1.0000
  H   H5        1.0  0.6439725721980308  0.57271551775748  0.10040887601098089  1.0000
  H   H6        1.0  0.35602682544251246  0.4272851626706568  0.8995887337626768  1.0000
  H   H7        1.0  0.6956000753657817  0.4670923503373101  0.9239441870965736  1.0000
  H   H8        1.0  0.30440680684220905  0.5329118628532186  0.07605373504999594  1.0000
  H   H9        1.0  0.7766935083529704  0.331972896178918  0.7148222862926727  1.0000
  H   H10       1.0  0.22331163449293012  0.6680324621501582  0.28517677088569116  1.0000
  H   H11       1.0  0.059007199341465394  0.09825006334753539  0.6973501652256147  1.0000
  H   H12       1.0  0.9409956398705646  0.9017482807527839  0.30264832738663466  1.0000
  H   H13       1.0  0.254122777667284  0.014300898238737095  0.8836350804256697  1.0000
  H   H14       1.0  0.7458779405737912  0.9856962101180855  0.11636740884109284  1.0000
  H   H15       1.0  0.5119655326704804  0.8218936804158046  0.13149256409326424  1.0000
  H   H16       1.0  0.488032519601063  0.17811054138316956  0.8685022681220786  1.0000
  H   H17       1.0  0.568521187360595  0.5950422165431629  0.5886042474861097  1.0000
  H   H18       1.0  0.43148215810084867  0.4049550187346254  0.41139026646441573  1.0000
  H   H19       1.0  0.2973331134879588  0.8138623342649606  0.6701586862075074  1.0000
  H   H20       1.0  0.7026732423991857  0.18613012240204083  0.3298437760738865  1.0000
  H   H21       1.0  0.14255267712351127  0.02639654821730629  0.4741686380523618  1.0000
  H   H22       1.0  0.8574502627588529  0.9735946322710514  0.525840232090573  1.0000
  C   C1        1.0  0.9970443240710053  0.3810052400678641  0.34327321320098036  1.0000
  C   C2        1.0  0.002952865110728521  0.6189977403720517  0.6567263573640217  1.0000
  C   C3        1.0  0.7226668902450227  0.5634040690018335  0.3015258263468396  1.0000
  C   C4        1.0  0.27733121236168057  0.4365965709911632  0.6984741946338459  1.0000
  C   C5        1.0  0.7428606492377625  0.5139072119022641  0.17214825700544625  1.0000
  C   C6        1.0  0.25713652755974437  0.4860957531874203  0.8278523645269473  1.0000
  C   C7        1.0  0.8944351601949948  0.38452824250430934  0.14087770779059366  1.0000
  C   C8        1.0  0.10556157227424745  0.6154759081590695  0.8591216375665666  1.0000
  C   C9        1.0  0.9321586243918316  0.31160447172127437  0.014301326705172873  1.0000
  C   C10       1.0  0.0678365313068099  0.6883937372198544  0.9857042763775113  1.0000
  C   C11       1.0  0.8170641790044967  0.36540439556736704  0.913194926447268  1.0000
  C   C12       1.0  0.18293402347430293  0.6345927240205709  0.08680607942920197  1.0000
  C   C13       1.0  0.8624499380386581  0.29022518106211237  0.7965481364028476  1.0000
  C   C14       1.0  0.13754643759019566  0.7097766194196705  0.20345196864224843  1.0000
  C   C15       1.0  0.019475589696085607  0.16107209009731344  0.7861306108173095  1.0000
  C   C16       1.0  0.9805250410571347  0.8389285540147922  0.21386984258627703  1.0000
  C   C17       1.0  0.129044267564872  0.11392704225035999  0.8895879529081937  1.0000
  C   C18       1.0  0.8709564630604377  0.8860700814566936  0.11041348539117021  1.0000
  C   C19       1.0  0.46790842213583517  0.8145734848831265  0.25205774290164834  1.0000
  C   C20       1.0  0.5320879906457064  0.18542836164935741  0.7479392092412664  1.0000
  C   C21       1.0  0.5611540358698831  0.6898391881238836  0.3536410897086881  1.0000
  C   C22       1.0  0.4388466568044933  0.31016153273937863  0.6463541088579419  1.0000
  C   C23       1.0  0.49906545143764447  0.689856404568438  0.5066330871815978  1.0000
  C   C24       1.0  0.5009353534930554  0.3101408112400037  0.49336204531342526  1.0000
  C   C25       1.0  0.3467935998264122  0.8107282192728034  0.5521084903074892  1.0000
  C   C26       1.0  0.6532093021050114  0.18926655837177714  0.44789414010271145  1.0000
  C   C27       1.0  0.2612541554359142  0.928705348634686  0.444046764842831  1.0000
  C   C28       1.0  0.7387470071334193  0.071290574148442  0.5559570005991643  1.0000
  N   N1        1.0  0.018005010909142548  0.3155243471353656  0.2288095848607838  1.0000
  N   N2        1.0  0.9819891934135893  0.6844797994088976  0.7711893280734756  1.0000
  N   N3        1.0  0.8489914937457355  0.4980163672533421  0.38689509515408094  1.0000
  N   N4        1.0  0.15101250347535  0.5019854916364749  0.61310315425753  1.0000
  N   N5        1.0  0.13351391339713817  0.3217604269042054  0.4180365002126648  1.0000
  N   N6        1.0  0.8664850151466865  0.6782414083971559  0.5819619353205425  1.0000
  N   N7        1.0  0.08898929376332633  0.18838498057384354  0.0008140631951719055  1.0000
  N   N8        1.0  0.9110079581378019  0.8116144334103266  0.9991896451677817  1.0000
  N   N9        1.0  0.32185684059994907  0.9331279728004488  0.29572913227736547  1.0000
  N   N10       1.0  0.6781396101325328  0.06687027657581267  0.7042740595982906  1.0000
  Cl  Cl1       1.0  0.4739561648932806  0.2221210073428849  0.12860233139003435  1.0000
  Cl  Cl2       1.0  0.5260436399228254  0.7778784414608564  0.8713997074610376  1.0000
