data_image0
_chemical_formula_structural       Cd4H40C8S4N40O24
_chemical_formula_sum              "Cd4 H40 C8 S4 N40 O24"
_cell_length_a       11.362820872522317
_cell_length_b       11.247135390622836
_cell_length_c       12.5307
_cell_angle_alpha    103.74065223463627
_cell_angle_beta     110.59181964276092
_cell_angle_gamma    111.84452196838056

_space_group_name_H-M_alt    "P 1"
_space_group_IT_number       1

loop_
  _space_group_symop_operation_xyz
  'x, y, z'

loop_
  _atom_site_type_symbol
  _atom_site_label
  _atom_site_symmetry_multiplicity
  _atom_site_fract_x
  _atom_site_fract_y
  _atom_site_fract_z
  _atom_site_occupancy
  Cd  Cd1       1.0  0.6737644973014127  0.8023558254821381  0.4130156386343842  1.0000
  Cd  Cd2       1.0  0.8918001230944199  0.2617462026266608  0.08798321869406325  1.0000
  Cd  Cd3       1.0  0.3262358370383041  0.19764442264559534  0.5869851593280231  1.0000
  Cd  Cd4       1.0  0.10820209150163865  0.7382540455010727  0.9120165828553013  1.0000
  H   H1        1.0  0.47474410919688376  0.5733157350595874  0.4204218192465561  1.0000
  H   H2        1.0  0.6515498144800062  0.04917286707607361  0.07344967821040882  1.0000
  H   H3        1.0  0.5252538005576426  0.42668345540517555  0.5795779799568165  1.0000
  H   H4        1.0  0.3484532415039681  0.950832669366541  0.9265531152123146  1.0000
  H   H5        1.0  0.9533179641332264  0.0674513986257779  0.5645304539295637  1.0000
  H   H6        1.0  0.9998251516412181  0.3838491625437328  0.9358623561474034  1.0000
  H   H7        1.0  0.04668222167696719  0.9325467341760074  0.4354690476422007  1.0000
  H   H8        1.0  0.0001747868991870925  0.6161521432469712  0.06413933911359489  1.0000
  H   H9        1.0  0.6132267721748406  0.5543888561056463  0.4385060609892903  1.0000
  H   H10       1.0  0.6154945881199865  0.1707607451238786  0.05474533245313032  1.0000
  H   H11       1.0  0.3867731663655576  0.44561244968505787  0.561495634271708  1.0000
  H   H12       1.0  0.38450940799215527  0.8292447913187361  0.9452545686430299  1.0000
  H   H13       1.0  0.8921320728381302  0.0751702230239815  0.4328808152417024  1.0000
  H   H14       1.0  0.1462898383524092  0.4556549596413433  0.06408385566561486  1.0000
  H   H15       1.0  0.1078662327157148  0.9248279097778038  0.5671204807831246  1.0000
  H   H16       1.0  0.8537091600598146  0.5443463461493678  0.9359167417218758  1.0000
  H   H17       1.0  0.7103676629962692  0.5430052294959182  0.02024865938646768  1.0000
  H   H18       1.0  0.025525851749890263  0.6947735205613554  0.48287413558733755  1.0000
  H   H19       1.0  0.289632127014599  0.45699396096884476  0.9797533355639061  1.0000
  H   H20       1.0  0.9744728496032805  0.3052235545774522  0.5171262631388983  1.0000
  H   H21       1.0  0.5296675450825958  0.3825841976245457  0.0805538046986101  1.0000
  H   H22       1.0  0.8013215250972435  0.44631896855297276  0.41356985641162686  1.0000
  H   H23       1.0  0.470332937786658  0.6174181658291431  0.91944908769446  1.0000
  H   H24       1.0  0.1986788092424803  0.5536812795747679  0.5864301435107748  1.0000
  H   H25       1.0  0.5156413961960667  0.470819731389959  0.20868291655042984  1.0000
  H   H26       1.0  0.7612028212661244  0.3022970011231081  0.2840858447082155  1.0000
  H   H27       1.0  0.48435854234433856  0.5291815744007523  0.7913179806705558  1.0000
  H   H28       1.0  0.2387969687447509  0.6977021893416477  0.7159161502421654  1.0000
  H   H29       1.0  0.46068814905887484  0.972938883226064  0.7016751626655521  1.0000
  H   H30       1.0  0.7686033557496045  0.7528984470655402  0.7914899461268661  1.0000
  H   H31       1.0  0.539307731909787  0.0270581919127437  0.2983203463601427  1.0000
  H   H32       1.0  0.23139940317530258  0.2471028587251709  0.20851105255457716  1.0000
  H   H33       1.0  0.7560456833289777  0.1186644975823867  0.6196030349391748  1.0000
  H   H34       1.0  0.9970495489239111  0.1407315779118008  0.8841484246417083  1.0000
  H   H35       1.0  0.24395019763968415  0.8813325775564208  0.3803932721265326  1.0000
  H   H36       1.0  0.00295454592849621  0.8592686702159327  0.11585117853461918  1.0000
  H   H37       1.0  0.7025759647002303  0.16307047762602883  0.730563683005542  1.0000
  H   H38       1.0  0.9311841858316754  0.9738220318109468  0.7708897590546256  1.0000
  H   H39       1.0  0.297418976140257  0.8369265975127789  0.26943232422667757  1.0000
  H   H40       1.0  0.0688204533495806  0.026179273979757105  0.22911183929379322  1.0000
  C   C1        1.0  0.6723747343223251  0.5934420038282013  0.1785300996692242  1.0000
  C   C2        1.0  0.9156053738631798  0.4946668585078342  0.3216288582907723  1.0000
  C   C3        1.0  0.3276315378454768  0.4065624749514356  0.821475090075424  1.0000
  C   C4        1.0  0.08439614787450012  0.5053302166309734  0.6783740360159598  1.0000
  C   C5        1.0  0.5843167737063196  0.9560670434343238  0.6105538084538011  1.0000
  C   C6        1.0  0.8452725355310805  0.9722365950100597  0.8873874496167745  1.0000
  C   C7        1.0  0.41567787007510754  0.0439258010525805  0.38944359619719654  1.0000
  C   C8        1.0  0.1547315593213199  0.0277636531176739  0.11261215355956011  1.0000
  S   S1        1.0  0.3921871740519975  0.7269148407363276  0.12583654857407114  1.0000
  S   S2        1.0  0.10095393197289583  0.266893848330426  0.375686873475793  1.0000
  S   S3        1.0  0.6078137046165751  0.2730864650543836  0.8741614563203443  1.0000
  S   S4        1.0  0.8990473424949953  0.7331063997973075  0.6243134262800965  1.0000
  N   N1        1.0  0.745818204257688  0.7171399195129524  0.2817516650149656  1.0000
  N   N2        1.0  0.9361544166921334  0.46544786113530284  0.2206108347867968  1.0000
  N   N3        1.0  0.2541841588679005  0.2828624439407363  0.7182510290050743  1.0000
  N   N4        1.0  0.06384349306239308  0.534551329329453  0.7793873683365434  1.0000
  N   N5        1.0  0.8560468984917121  0.8085283466095561  0.2713669187236363  1.0000
  N   N6        1.0  0.04006429431936454  0.5892917343107271  0.2360201250993725  1.0000
  N   N7        1.0  0.14395398017686034  0.191472959181155  0.7286350763708499  1.0000
  N   N8        1.0  0.9599358914908294  0.4107063984910582  0.7639801745123976  1.0000
  N   N9        1.0  0.8531882972521458  0.7476059015340795  0.16877180476453904  1.0000
  N   N10       1.0  0.08282950724701979  0.6905830598507947  0.3394338819662935  1.0000
  N   N11       1.0  0.146813521544594  0.2523954042566317  0.831230490163435  1.0000
  N   N12       1.0  0.9171712228920155  0.3094161306139682  0.6605668167375428  1.0000
  N   N13       1.0  0.7394684751285964  0.6138348036667551  0.10864513843294085  1.0000
  N   N14       1.0  0.007887242072797628  0.634891815854175  0.3950582110746693  1.0000
  N   N15       1.0  0.2605313148822717  0.3861643867980078  0.8913576545574459  1.0000
  N   N16       1.0  0.9921110634810475  0.3651063169476103  0.6049390947500797  1.0000
  N   N17       1.0  0.5576347829943913  0.47411646688587444  0.1491227483077466  1.0000
  N   N18       1.0  0.8240425573328665  0.4063393080635151  0.3459867554423824  1.0000
  N   N19       1.0  0.44236540281579545  0.525881665915911  0.8508807434640816  1.0000
  N   N20       1.0  0.17595817280617612  0.5936598824012407  0.654013145221441  1.0000
  N   N21       1.0  0.5632177074349299  0.8394110478431926  0.5272442531104105  1.0000
  N   N22       1.0  0.8128947258847745  0.0341318418956362  0.970037726230139  1.0000
  N   N23       1.0  0.43677950946121763  0.1605849696326374  0.4727530525702264  1.0000
  N   N24       1.0  0.18710803304013987  0.965869463895075  0.029960080291246558  1.0000
  N   N25       1.0  0.45169582407673653  0.726237936431744  0.5175985187381683  1.0000
  N   N26       1.0  0.7096242280060848  0.9287148212142782  0.9760758096276162  1.0000
  N   N27       1.0  0.5482995125630693  0.2737580810440861  0.48239738923548  1.0000
  N   N28       1.0  0.2903775907906549  0.0712864845764329  0.023923293140306626  1.0000
  N   N29       1.0  0.403038451383246  0.7665645103772931  0.589290322255117  1.0000
  N   N30       1.0  0.6775147400029766  0.806440519895105  0.9026985553556913  1.0000
  N   N31       1.0  0.5969564894572413  0.23343256476151453  0.41070488693708274  1.0000
  N   N32       1.0  0.3224870787937632  0.1935607858956061  0.09730134545224438  1.0000
  N   N33       1.0  0.4848889915706209  0.9103992714604203  0.6491131641785514  1.0000
  N   N34       1.0  0.7606582642916989  0.8307350384517918  0.8455770253499892  1.0000
  N   N35       1.0  0.5151072851973594  0.0895967460154097  0.3508830436285848  1.0000
  N   N36       1.0  0.23934409883388946  0.1692673250018899  0.15442167846997992  1.0000
  N   N37       1.0  0.6804712603453495  0.0903550903691368  0.6486210536900785  1.0000
  N   N38       1.0  0.9412269041976201  0.0337098343682527  0.8529108842638564  1.0000
  N   N39       1.0  0.31952516495216093  0.9096430424326414  0.35137485442767513  1.0000
  N   N40       1.0  0.05877773498362867  0.9662914714224584  0.14708911800453703  1.0000
  O   O1        1.0  0.33931932168546547  0.5812048431969075  0.11987953767963688  1.0000
  O   O2        1.0  0.9605840124479313  0.2168039874542345  0.37744624381102193  1.0000
  O   O3        1.0  0.6606800725260839  0.418795404930826  0.8801201624092697  1.0000
  O   O4        1.0  0.03941632189178532  0.783196260673499  0.6225529580713598  1.0000
  O   O5        1.0  0.5194774012160649  0.833434194366319  0.2529809858495612  1.0000
  O   O6        1.0  0.08059522895800342  0.2685575521915311  0.25116654906621255  1.0000
  O   O7        1.0  0.4805252091793121  0.1665649960984368  0.7470171203612068  1.0000
  O   O8        1.0  0.9194075299669038  0.73144375359918  0.7488352476552436  1.0000
  O   O9        1.0  0.4334970617049052  0.73551998670834  0.026670444664979722  1.0000
  O   O10       1.0  0.2105450240238085  0.4105371724149123  0.4786406480884224  1.0000
  O   O11       1.0  0.5665003037207725  0.2644781460934382  0.9733265613262816  1.0000
  O   O12       1.0  0.7894539743884224  0.5894641333757988  0.5213599492990681  1.0000
  O   O13       1.0  0.2746148891802846  0.7635829584481968  0.1085520947982843  1.0000
  O   O14       1.0  0.1546520427024518  0.1653222421017446  0.3908903346131822  1.0000
  O   O15       1.0  0.725385445159432  0.23641728967953668  0.8914479051241102  1.0000
  O   O16       1.0  0.8453522006794786  0.8346801213519441  0.6091129590738406  1.0000
  O   O17       1.0  0.8630530871073743  0.0341276112437328  0.4870751879680242  1.0000
  O   O18       1.0  0.047215887601737415  0.3719536270536565  0.01189307601864439  1.0000
  O   O19       1.0  0.13694536697600063  0.9658726368840007  0.5129266064074329  1.0000
  O   O20       1.0  0.9527853868661538  0.628046621074077  0.988107223737238  1.0000
  O   O21       1.0  0.5285919621205863  0.5551218165479597  0.37782580963012447  1.0000
  O   O22       1.0  0.6770023071275943  0.14778936295005712  0.11603728137153982  1.0000
  O   O23       1.0  0.47140594763394017  0.4448773739168034  0.6221739895732412  1.0000
  O   O24       1.0  0.3230027776422446  0.8522182888185057  0.8839642159487583  1.0000
