data_image0
_chemical_formula_structural       CoH16C18S2N6O2
_chemical_formula_sum              "Co1 H16 C18 S2 N6 O2"
_cell_length_a       7.485673599629894
_cell_length_b       7.7563204289347984
_cell_length_c       9.68249649415881
_cell_angle_alpha    103.32719130938217
_cell_angle_beta     101.55749358811538
_cell_angle_gamma    116.69228609567531

_space_group_name_H-M_alt    "P 1"
_space_group_IT_number       1

loop_
  _space_group_symop_operation_xyz
  'x, y, z'

loop_
  _atom_site_type_symbol
  _atom_site_label
  _atom_site_symmetry_multiplicity
  _atom_site_fract_x
  _atom_site_fract_y
  _atom_site_fract_z
  _atom_site_occupancy
  Co  Co1       1.0  0.5000027505159963  0.5000045834735972  3.9447080339416985e-06  1.0000
  H   H1        1.0  0.049937368535140095  0.2338056502945562  0.8062663176016682  1.0000
  H   H2        1.0  0.9500679012477136  0.7662006784974055  0.193736715429729  1.0000
  H   H3        1.0  0.747852037947787  0.2837108336557961  0.7148941169295995  1.0000
  H   H4        1.0  0.2521476429817896  0.7162879281615846  0.2851129277668533  1.0000
  H   H5        1.0  0.18467217883650025  0.9437599939215745  0.954633687204797  1.0000
  H   H6        1.0  0.8153256242730296  0.05624010256208579  0.045362951811725304  1.0000
  H   H7        1.0  0.4697815030961505  0.8648240697084899  0.03257802717104838  1.0000
  H   H8        1.0  0.5302109063920853  0.13517618039470136  0.9674198346602833  1.0000
  H   H9        1.0  0.5274628931901688  0.7788556278746342  0.5641125395079101  1.0000
  H   H10       1.0  0.4725339333900892  0.22114780559066824  0.4358917398789045  1.0000
  H   H11       1.0  0.4468772106138063  0.6934690258156667  0.7090164361210255  1.0000
  H   H12       1.0  0.553121892920224  0.3065186237734779  0.2909824298669008  1.0000
  H   H13       1.0  0.8441757621441681  0.5207334964114028  0.5493000751436625  1.0000
  H   H14       1.0  0.15582607883310123  0.47926641838807177  0.45069305183876185  1.0000
  H   H15       1.0  0.7705292260012939  0.6726605514049455  0.46829376120367516  1.0000
  H   H16       1.0  0.22946920674544208  0.3273331355167458  0.5316967255141591  1.0000
  C   C1        1.0  0.07361917824015761  0.38825908756743394  0.8344719041404927  1.0000
  C   C2        1.0  0.9263941966711043  0.6117471437343055  0.16553448451469413  1.0000
  C   C3        1.0  0.9062587014394268  0.41830141202784427  0.7834618277156833  1.0000
  C   C4        1.0  0.09373627083510881  0.581703568806269  0.2165403497447825  1.0000
  C   C5        1.0  0.9428217537627858  0.6194596909783955  0.8246083020688884  1.0000
  C   C6        1.0  0.05718975802488301  0.38054800792870946  0.17539287075235416  1.0000
  C   C7        1.0  0.1491884740532611  0.7843923817380087  0.915438795332605  1.0000
  C   C8        1.0  0.850808690601184  0.21561404454416797  0.08456088207501009  1.0000
  C   C9        1.0  0.3084588635778971  0.7423036408643994  0.9601231323279575  1.0000
  C   C10       1.0  0.6915509602606136  0.25770109033680194  0.0398824291915858  1.0000
  C   C11       1.0  0.7648657483626948  0.6610939515236184  0.789579226794906  1.0000
  C   C12       1.0  0.23513306066902837  0.3389030738565567  0.2104201515433175  1.0000
  C   C13       1.0  0.48112907350140693  0.6503321681202581  0.6062108320084787  1.0000
  C   C14       1.0  0.5188634788290329  0.3496633542056956  0.39378521669390654  1.0000
  C   C15       1.0  0.7140690183374758  0.548112646581913  0.5138762336870925  1.0000
  C   C16       1.0  0.28593245811197227  0.451884036110343  0.4861121535517368  1.0000
  C   C17       1.0  0.6724452316849253  0.8629263230353106  0.29308139507117653  1.0000
  C   C18       1.0  0.3275435655229161  0.1370598988325398  0.7069135014382225  1.0000
  S   S1        1.0  0.764367609279759  0.0600195747642118  0.44554336061334954  1.0000
  S   S2        1.0  0.23561891979218066  0.9399825107432422  0.5544600632025264  1.0000
  N   N1        1.0  0.27284608055863663  0.547594543408998  0.9219329266328201  1.0000
  N   N2        1.0  0.7271532882328771  0.45241343467252193  0.07806840259873835  1.0000
  N   N3        1.0  0.6604133428384955  0.6186460254314952  0.6445829305490135  1.0000
  N   N4        1.0  0.33958800546520257  0.3813555179770703  0.3554124596647553  1.0000
  N   N5        1.0  0.6033378509104068  0.7164303282775536  0.18132186554940677  1.0000
  N   N6        1.0  0.3966670954947135  0.28357314063661215  0.8186909593071829  1.0000
  O   O1        1.0  0.7200035522010283  0.7340019387942721  0.8987673736204369  1.0000
  O   O2        1.0  0.27999998554327743  0.2660010234745513  0.10122447857128238  1.0000
