data_image0
_chemical_formula_structural       Zn4P4H20C10O12
_chemical_formula_sum              "Zn4 P4 H20 C10 O12"
_cell_length_a       4.801522736203631
_cell_length_b       9.575937988842853
_cell_length_c       11.088128959320015
_cell_angle_alpha    96.32529639688948
_cell_angle_beta     102.53163776419245
_cell_angle_gamma    89.98853819814592

_space_group_name_H-M_alt    "P 1"
_space_group_IT_number       1

loop_
  _space_group_symop_operation_xyz
  'x, y, z'

loop_
  _atom_site_type_symbol
  _atom_site_label
  _atom_site_symmetry_multiplicity
  _atom_site_fract_x
  _atom_site_fract_y
  _atom_site_fract_z
  _atom_site_occupancy
  Zn  Zn1       1.0  0.41615061161303407  0.6088415927601786  0.5953228393537913  1.0000
  Zn  Zn2       1.0  0.8208519545609082  0.891133983887272  0.40476748184713784  1.0000
  Zn  Zn3       1.0  0.5838512410743705  0.3911600762312019  0.4046786955638737  1.0000
  Zn  Zn4       1.0  0.17914563088764626  0.1088676800525121  0.5952336522979919  1.0000
  P   P1        1.0  0.004136867890714788  0.42822336053092147  0.6747179742364153  1.0000
  P   P2        1.0  0.3292426339546283  0.0718035171207561  0.3252858868915922  1.0000
  P   P3        1.0  0.9958690131247399  0.5717730236089267  0.3252807807057607  1.0000
  P   P4        1.0  0.6707593610405242  0.9282013164052074  0.674716834035074  1.0000
  H   H1        1.0  0.2348383420253271  0.23148167027594718  0.8561595329037387  1.0000
  H   H2        1.0  0.37824831582712903  0.2686194696054827  0.1440201640046297  1.0000
  H   H3        1.0  0.7651590998170691  0.7685168173701269  0.1438395121826233  1.0000
  H   H4        1.0  0.6217513066377977  0.731380071491543  0.855979175787745  1.0000
  H   H5        1.0  0.2795329259277893  0.39575641078992146  0.9469845453644721  1.0000
  H   H6        1.0  0.33212341300880155  0.1043701732207225  0.0532101531431621  1.0000
  H   H7        1.0  0.7204666521308669  0.6042421029002085  0.053016506207683285  1.0000
  H   H8        1.0  0.6678782503677497  0.8956272803109259  0.9467901014457494  1.0000
  H   H9        1.0  0.7828301073097567  0.46256227839496933  0.8478051913324406  1.0000
  H   H10       1.0  0.9345449269451297  0.037532921086288695  0.1520954705191144  1.0000
  H   H11       1.0  0.2171694694504752  0.5374362235360337  0.1521949571899555  1.0000
  H   H12       1.0  0.06545896535548221  0.9624666485805945  0.8479060761453282  1.0000
  H   H13       1.0  0.7164970066910572  0.29266014602132623  0.7662694188483669  1.0000
  H   H14       1.0  0.949638504874571  0.20740894429007278  0.23372921841954047  1.0000
  H   H15       1.0  0.2835047480948775  0.7073393858423671  0.2337292182805157  1.0000
  H   H16       1.0  0.0503568960562006  0.7925916309213646  0.7662689118702772  1.0000
  H   H17       1.0  0.8311021794820663  0.16906581258689354  0.9526934332772683  1.0000
  H   H18       1.0  0.8782069008134813  0.33127604302309516  0.04701997419805078  1.0000
  H   H19       1.0  0.1688973489766425  0.8309316266598258  0.047305717875616396  1.0000
  H   H20       1.0  0.12179054232733222  0.6687224563820988  0.9529799739380775  1.0000
  C   C1        1.0  0.11909891168333793  0.31307706060856316  0.9021789606896746  1.0000
  C   C2        1.0  0.21643748013717368  0.1870454789486971  0.09792269773984688  1.0000
  C   C3        1.0  0.8809006650769009  0.6869214413224397  0.09782118783272148  1.0000
  C   C4        1.0  0.7835600087083352  0.8129540596225268  0.9020764416662601  1.0000
  C   C5        1.0  0.8856906801012061  0.3729170645543789  0.8055601019077513  1.0000
  C   C6        1.0  0.07958631159146991  0.12719192816862804  0.19442775533021722  1.0000
  C   C7        1.0  0.11431107857998063  0.6270825025867026  0.1944412443704238  1.0000
  C   C8        1.0  0.9204133134702915  0.8728076364466584  0.8055733905616832  1.0000
  C   C9        1.0  0.9929803617236532  0.2501193889964667  0.9999378200847319  1.0000
  C   C10       1.0  0.007021346059168792  0.7498790919420768  6.072272440598588e-05  1.0000
  O   O1        1.0  0.21551859223352923  0.554193663140623  0.7187343516639189  1.0000
  O   O2        1.0  0.49679630012129655  0.9459198494771358  0.2812617150798076  1.0000
  O   O3        1.0  0.7844853457717776  0.44580694569228274  0.28126638627050227  1.0000
  O   O4        1.0  0.5032033693467427  0.05408074254503958  0.718737719032319  1.0000
  O   O5        1.0  0.7323515250704206  0.47429980669116384  0.5825857077867624  1.0000
  O   O6        1.0  0.14990731307204902  0.025535381775050298  0.41740715202210765  1.0000
  O   O7        1.0  0.26765032891540846  0.525701874059351  0.417416730180669  1.0000
  O   O8        1.0  0.850092404697513  0.9744662729314014  0.5825932794595231  1.0000
  O   O9        1.0  0.13588302238910194  0.30654176880791073  0.6065550702509767  1.0000
  O   O10       1.0  0.5288897577598493  0.1935546518975215  0.393498268352495  1.0000
  O   O11       1.0  0.8641167893866849  0.6934619877488473  0.39344554987014396  1.0000
  O   O12       1.0  0.4711055530599567  0.8064438567410048  0.6065023824471254  1.0000
