data_image0
_chemical_formula_structural       Zn2H28C48N8Cl4O8
_chemical_formula_sum              "Zn2 H28 C48 N8 Cl4 O8"
_cell_length_a       7.720214911419692
_cell_length_b       12.2840615830105
_cell_length_c       12.734250803838895
_cell_angle_alpha    104.93774094661678
_cell_angle_beta     91.0999478528423
_cell_angle_gamma    88.58858959539745

_space_group_name_H-M_alt    "P 1"
_space_group_IT_number       1

loop_
  _space_group_symop_operation_xyz
  'x, y, z'

loop_
  _atom_site_type_symbol
  _atom_site_label
  _atom_site_symmetry_multiplicity
  _atom_site_fract_x
  _atom_site_fract_y
  _atom_site_fract_z
  _atom_site_occupancy
  Zn  Zn1       1.0  0.389279073106927  0.9597312499393027  0.292289026140537  1.0000
  Zn  Zn2       1.0  0.610717762849092  0.04027072789168781  0.7077154157301989  1.0000
  H   H1        1.0  0.9940293855547755  0.9431410199989967  0.29158901066553256  1.0000
  H   H2        1.0  0.005970077058158604  0.05685261872718431  0.7084038754370567  1.0000
  H   H3        1.0  0.3391625837049618  0.10271580116345551  0.137751136746644  1.0000
  H   H4        1.0  0.6608446404030986  0.8972794455964248  0.8622422477514532  1.0000
  H   H5        1.0  0.7874261363412319  0.1424035535658774  0.0842209384963652  1.0000
  H   H6        1.0  0.21258107050172015  0.857594211525509  0.9157738833047375  1.0000
  H   H7        1.0  0.3864227915699844  0.41304598090924577  0.44342744269001605  1.0000
  H   H8        1.0  0.6135559444901304  0.5869502975680305  0.556573761429469  1.0000
  H   H9        1.0  0.20628841560523634  0.5309965044158033  0.7592856072477119  1.0000
  H   H10       1.0  0.7936992746970549  0.4690132024902241  0.2407160275643463  1.0000
  H   H11       1.0  0.26303183916495954  0.17145121640773203  0.6211382980510152  1.0000
  H   H12       1.0  0.7369857386883113  0.828557071952126  0.37888684507927917  1.0000
  H   H13       1.0  0.46829352642588884  0.8644270278469863  0.02884291970686093  1.0000
  H   H14       1.0  0.5317006664312561  0.13558089230110684  0.97116146241526  1.0000
  H   H15       1.0  0.43659166555536916  0.6796732635362658  0.8876162683347744  1.0000
  H   H16       1.0  0.5634154788464515  0.3203337323207833  0.11238408455720619  1.0000
  H   H17       1.0  0.3321742384336944  0.5120039512622939  0.9460687099538773  1.0000
  H   H18       1.0  0.6678432961642503  0.48799958092026685  0.0539300703848227  1.0000
  H   H19       1.0  0.24464497993274395  0.43020491988954035  0.10034152545851778  1.0000
  H   H20       1.0  0.7553505394915021  0.5697971455854614  0.8996566425372023  1.0000
  H   H21       1.0  0.1828561992344647  0.45867787281842004  0.295124527515064  1.0000
  H   H22       1.0  0.8171393639321779  0.5413183040837098  0.7048713306929882  1.0000
  H   H23       1.0  0.15657546310247744  0.5919451868009347  0.48437584459830424  1.0000
  H   H24       1.0  0.8434201213557488  0.40804763855887666  0.5156175752460612  1.0000
  H   H25       1.0  0.17910715545669129  0.788073773660429  0.6020227033434509  1.0000
  H   H26       1.0  0.8208793570451932  0.21191996549549688  0.3979724279890746  1.0000
  H   H27       1.0  0.27405469660645565  0.9416456653332405  0.5203330710327236  1.0000
  H   H28       1.0  0.7259460506008825  0.05835291306240719  0.4796697464904227  1.0000
  C   C1        1.0  0.6847895586113782  0.009886031766811201  0.2053423317706802  1.0000
  C   C2        1.0  0.31519681884953615  0.9901171999414518  0.794636408346186  1.0000
  C   C3        1.0  0.8685350345004823  0.0401538746044849  0.1907178013538839  1.0000
  C   C4        1.0  0.13146961413553274  0.9598380650077798  0.8092715581837523  1.0000
  C   C5        1.0  0.011224436024669203  0.9978209211351725  0.2375321048356014  1.0000
  C   C6        1.0  0.988768492370426  0.002177893289363906  0.7624573405625483  1.0000
  C   C7        1.0  0.20407479073303852  0.08811331503749642  0.1515070965344449  1.0000
  C   C8        1.0  0.7959220644704817  0.9118820438545543  0.8484854221532316  1.0000
  C   C9        1.0  0.06670495441662891  0.13508601143462332  0.1044834356306197  1.0000
  C   C10       1.0  0.93330357353333  0.8649075560557903  0.8955079571049751  1.0000
  C   C11       1.0  0.8974326979225753  0.11031477465814989  0.1225014314315658  1.0000
  C   C12       1.0  0.10256151848292921  0.889684054967127  0.8774856755068826  1.0000
  C   C13       1.0  0.3700622255922711  0.1881678059843992  0.419573631975581  1.0000
  C   C14       1.0  0.6299333724406824  0.8118290638856962  0.580434971385941  1.0000
  C   C15       1.0  0.32639996346939193  0.281301862112727  0.5193930633733714  1.0000
  C   C16       1.0  0.6736033629620767  0.7187008285927805  0.4806171289894721  1.0000
  C   C17       1.0  0.33897044472874444  0.3941805987949394  0.5169322830772812  1.0000
  C   C18       1.0  0.6610147714354044  0.605816429954949  0.48307153977622624  1.0000
  C   C19       1.0  0.24219412945684846  0.45934353864991806  0.6919326603943078  1.0000
  C   C20       1.0  0.7577987716378018  0.5406635611351902  0.3080707103082645  1.0000
  C   C21       1.0  0.22924850745880584  0.3491417119788522  0.7018279241134308  1.0000
  C   C22       1.0  0.7707637927984197  0.6508735178474437  0.298186395518421  1.0000
  C   C23       1.0  0.2712258691917528  0.2580444893452167  0.6150222362759266  1.0000
  C   C24       1.0  0.7287865418859316  0.7419588791896173  0.3849945102362681  1.0000
  C   C25       1.0  0.42272454172167084  0.7895193414764491  0.05019573911729939  1.0000
  C   C26       1.0  0.5772748699807766  0.21048430512908575  0.9498083767739658  1.0000
  C   C27       1.0  0.4046387369599458  0.6857610768524722  0.9720307331769645  1.0000
  C   C28       1.0  0.5953619259042144  0.3142459925932641  0.027968784981183596  1.0000
  C   C29       1.0  0.347798508184333  0.5936053944805053  0.00427975612622331  1.0000
  C   C30       1.0  0.652207391949482  0.4063956976029317  0.9957206254377837  1.0000
  C   C31       1.0  0.31013097578748733  0.6047957352815915  0.11477803964000799  1.0000
  C   C32       1.0  0.6898748952761907  0.39520873639273896  0.8852224314691383  1.0000
  C   C33       1.0  0.32896676460979546  0.7132383038374428  0.18700673253308514  1.0000
  C   C34       1.0  0.6710417337212607  0.286761919989992  0.8129934516274844  1.0000
  C   C35       1.0  0.25652992184107154  0.5133788207529975  0.15633598905574084  1.0000
  C   C36       1.0  0.7434759445856688  0.4866223928742528  0.8436542142945169  1.0000
  C   C37       1.0  0.22148816631523974  0.5293003296153814  0.26414403972044204  1.0000
  C   C38       1.0  0.7785099867213252  0.47069828382545603  0.7358579741454605  1.0000
  C   C39       1.0  0.2330321613639442  0.6385528531433168  0.338594451711586  1.0000
  C   C40       1.0  0.7669711302012135  0.3614491445942249  0.661402995497788  1.0000
  C   C41       1.0  0.2863568785864177  0.7308027286562293  0.2999861754364019  1.0000
  C   C42       1.0  0.7136516462219263  0.2691941249298396  0.7000131362395122  1.0000
  C   C43       1.0  0.19324467349498067  0.6605665282292251  0.4500409937599343  1.0000
  C   C44       1.0  0.806748328323117  0.33942710928944564  0.5499573211249782  1.0000
  C   C45       1.0  0.20619423901120373  0.7689468384819236  0.5156040188028328  1.0000
  C   C46       1.0  0.7937987084186989  0.23105436338078533  0.4843978250515946  1.0000
  C   C47       1.0  0.2595313394147355  0.8556428399594652  0.47066343406643096  1.0000
  C   C48       1.0  0.7404707355189403  0.14435069827487013  0.5293357362700419  1.0000
  N   N1        1.0  0.17464651488401023  0.020289878086494205  0.21654729368734854  1.0000
  N   N2        1.0  0.825358122831837  0.979705375670001  0.7834476359720597  1.0000
  N   N3        1.0  0.29702747831367304  0.48165873118661306  0.6006210422440148  1.0000
  N   N4        1.0  0.7029512102519606  0.5183426307012838  0.3993791217838876  1.0000
  N   N5        1.0  0.38492025235404986  0.8026042090178082  0.15429267415959205  1.0000
  N   N6        1.0  0.6150830654140125  0.19739605685142445  0.8457082515050516  1.0000
  N   N7        1.0  0.2990090069687172  0.8366747599736685  0.3657980727944476  1.0000
  N   N8        1.0  0.7009982416342456  0.1633212171522658  0.6342049250990343  1.0000
  Cl  Cl1       1.0  0.10977152362596602  0.2215635631237021  0.020998566034151584  1.0000
  Cl  Cl2       1.0  0.8902331250100489  0.7784283764885627  0.9789907935034846  1.0000
  Cl  Cl3       1.0  0.1564486338264715  0.3261801249660651  0.8221381494177036  1.0000
  Cl  Cl4       1.0  0.8435701451011756  0.6738366789941426  0.17788057294838214  1.0000
  O   O1        1.0  0.652965487484643  0.9712977239227099  0.2879157516808276  1.0000
  O   O2        1.0  0.34703007077068565  0.0286968333054034  0.7120741897082681  1.0000
  O   O3        1.0  0.5752689362275164  0.023920696242328204  0.1359675327334884  1.0000
  O   O4        1.0  0.4247420946563383  0.9760838081863953  0.8640259333554353  1.0000
  O   O5        1.0  0.35308837447102803  0.08722941403127753  0.4307014152749957  1.0000
  O   O6        1.0  0.6469111371317028  0.9127656854270256  0.5693106976183843  1.0000
  O   O7        1.0  0.4166689574752953  0.21431468581894111  0.33603591164992963  1.0000
  O   O8        1.0  0.583315011553609  0.7856780868799264  0.6639715078760136  1.0000
