data_image0
_chemical_formula_structural       Nd2P4H34C32O22
_chemical_formula_sum              "Nd2 P4 H34 C32 O22"
_cell_length_a       5.6366495600108
_cell_length_b       9.459988155248602
_cell_length_c       18.31585331033014
_cell_angle_alpha    105.2122259279056
_cell_angle_beta     91.92628224375545
_cell_angle_gamma    96.05104664094472

_space_group_name_H-M_alt    "P 1"
_space_group_IT_number       1

loop_
  _space_group_symop_operation_xyz
  'x, y, z'

loop_
  _atom_site_type_symbol
  _atom_site_label
  _atom_site_symmetry_multiplicity
  _atom_site_fract_x
  _atom_site_fract_y
  _atom_site_fract_z
  _atom_site_occupancy
  Nd  Nd1       1.0  0.1229440098046908  0.8033463035729652  0.0028443198749456655  1.0000
  Nd  Nd2       1.0  0.8770430091761838  0.196648064871674  0.9971532776795582  1.0000
  P   P1        1.0  0.3841021003985858  0.10166320723785556  0.10880531811722698  1.0000
  P   P2        1.0  0.6159013480121088  0.8983332405043211  0.8911922145347118  1.0000
  P   P3        1.0  0.2602669865658386  0.5334144002373334  0.10934151037669433  1.0000
  P   P4        1.0  0.7397368848248362  0.46658426978446227  0.8906585077956988  1.0000
  H   H1        1.0  0.5967598906408398  0.14553120491005697  0.3202935141592248  1.0000
  H   H2        1.0  0.4032315189141895  0.8544675807625733  0.6797090947709703  1.0000
  H   H3        1.0  0.47829535121630323  0.0049154843063732  0.4115632658506242  1.0000
  H   H4        1.0  0.5217078610033069  0.9950887350886144  0.5884402140259934  1.0000
  H   H5        1.0  0.7754704138118667  0.8854801631912962  0.2993665409205945  1.0000
  H   H6        1.0  0.2245234582062707  0.1145219222436609  0.7006370845281538  1.0000
  H   H7        1.0  0.8914034062052779  0.02902629028887559  0.20750987022954345  1.0000
  H   H8        1.0  0.10859558238134076  0.9709746390111177  0.7924920265752389  1.0000
  H   H9        1.0  0.4979170866854543  0.2618848295573314  0.2300064581932942  1.0000
  H   H10       1.0  0.5020914758670398  0.7381193368459049  0.769995443027774  1.0000
  H   H11       1.0  0.19740324074948756  0.2678114809815782  0.20172923792755876  1.0000
  H   H12       1.0  0.8026167928949661  0.732188177189421  0.7982722045115549  1.0000
  H   H13       1.0  0.5270218135301264  0.6518401913757118  0.3158584218560064  1.0000
  H   H14       1.0  0.4729835939765578  0.34816623663327545  0.6841475637084569  1.0000
  H   H15       1.0  0.47000865056725155  0.5187218142044684  0.4150714426831995  1.0000
  H   H16       1.0  0.5299663852440091  0.48127487217914916  0.5849284992200479  1.0000
  H   H17       1.0  0.7495266778763535  0.3602066324787713  0.3259876494549089  1.0000
  H   H18       1.0  0.25046476751697355  0.6397832664029364  0.6740072231044747  1.0000
  H   H19       1.0  0.805613819493388  0.4890451651985329  0.22390805823609836  1.0000
  H   H20       1.0  0.19439076675441663  0.5109479354585884  0.7760857663025431  1.0000
  H   H21       1.0  0.34781139414297246  0.74473033038155  0.2146923473374612  1.0000
  H   H22       1.0  0.6521866705232  0.2552661823472632  0.7853084031277361  1.0000
  H   H23       1.0  0.03836566990612061  0.7008419627847927  0.18952935031050794  1.0000
  H   H24       1.0  0.9616415568831583  0.299155560769357  0.8104683726646227  1.0000
  H   H25       1.0  0.17084324767156284  0.8134309935122769  0.5114989231296148  1.0000
  H   H26       1.0  0.8291498761948187  0.18657548617482428  0.4885009110181853  1.0000
  H   H27       1.0  0.5429448638117832  0.3877913763889253  0.10709276263641944  1.0000
  H   H28       1.0  0.4570758711259089  0.6122115912117321  0.8929091297679503  1.0000
  H   H29       1.0  0.19742006825985914  0.3007138899487244  0.5230746360147548  1.0000
  H   H30       1.0  0.802569099149572  0.6992903907917093  0.47692212589191013  1.0000
  H   H31       1.0  0.7142801308497866  0.6708520772357074  0.08447136446551433  1.0000
  H   H32       1.0  0.2857259692396  0.32914878940519526  0.9155295202370082  1.0000
  H   H33       1.0  0.6679787534022735  0.8372925055517582  0.09253834129444262  1.0000
  H   H34       1.0  0.33203469195429136  0.16270940157328784  0.9074616812942435  1.0000
  C   C1        1.0  0.2532622111689591  0.09754082822026079  0.25714835413529596  1.0000
  C   C2        1.0  0.7467316719863888  0.9024612532164081  0.7428547249275466  1.0000
  C   C3        1.0  0.41662235532962905  0.08790144902544478  0.31450046577342755  1.0000
  C   C4        1.0  0.5833650866312395  0.9120951416988132  0.6854996173015377  1.0000
  C   C5        1.0  0.35115271293267375  0.009551627858726895  0.3664370865799568  1.0000
  C   C6        1.0  0.6488431762941714  0.9904515430555346  0.6335661626386936  1.0000
  C   C7        1.0  0.11906719407684116  0.9365644837545871  0.36138613904508066  1.0000
  C   C8        1.0  0.8809376235087001  0.06343859484179147  0.6386139326950866  1.0000
  C   C9        1.0  0.9556807519276306  0.9424100619180107  0.3030814076904348  1.0000
  C   C10       1.0  0.04430673215540539  0.0575953876091049  0.6969225870540184  1.0000
  C   C11       1.0  0.0216529985576059  0.022832158950187396  0.2516815532372476  1.0000
  C   C12       1.0  0.9783358014408989  0.9771710666265674  0.7483216153118446  1.0000
  C   C13       1.0  0.3303292843791468  0.19266047063974406  0.20620154359584564  1.0000
  C   C14       1.0  0.6696791803651364  0.8073348569521172  0.7937991778852689  1.0000
  C   C15       1.0  0.051370830067313  0.8568050219477993  0.41861295028091655  1.0000
  C   C16       1.0  0.948628904361378  0.14319920078866485  0.5813872109455003  1.0000
  C   C17       1.0  0.1714727932960187  0.5768302230125855  0.26184918646294614  1.0000
  C   C18       1.0  0.8285328726761632  0.42316842534700055  0.7381497591050274  1.0000
  C   C19       1.0  0.3572013709796451  0.58523271441166  0.3162378107309109  1.0000
  C   C20       1.0  0.6428076615283516  0.414764783481985  0.683758293253895  1.0000
  C   C21       1.0  0.3264015180352899  0.5114846743597568  0.3725563582368351  1.0000
  C   C22       1.0  0.673594573971016  0.48851073689657903  0.6274425829148453  1.0000
  C   C23       1.0  0.10776661446096371  0.42827925647493703  0.37518379589572953  1.0000
  C   C24       1.0  0.8922171159445754  0.5717162344475781  0.6248128185406185  1.0000
  C   C25       1.0  0.920399934220967  0.4214891268606279  0.3215376362394621  1.0000
  C   C26       1.0  0.07960035043337405  0.5785007116895571  0.6784584299286676  1.0000
  C   C27       1.0  0.9519576941943698  0.4940871022848582  0.2652995502593355  1.0000
  C   C28       1.0  0.048045297824707164  0.5059071351725845  0.734697136029858  1.0000
  C   C29       1.0  0.2017969223615097  0.653485476287038  0.20017182186317223  1.0000
  C   C30       1.0  0.7982072384796339  0.34651427688650216  0.7998256143681173  1.0000
  C   C31       1.0  0.065759261465665  0.3464334840156623  0.43293053874457127  1.0000
  C   C32       1.0  0.9342322793091995  0.6535741284734654  0.5670716107678755  1.0000
  O   O1        1.0  0.462068897194534  0.9470414017991045  0.09864164877896534  1.0000
  O   O2        1.0  0.5379378509287136  0.052953919466901284  0.9013563206052309  1.0000
  O   O3        1.0  0.142203960878156  0.07340455123704707  0.06028858072570389  1.0000
  O   O4        1.0  0.857799710159739  0.9265930036466369  0.9397096483005567  1.0000
  O   O5        1.0  0.5706933605257234  0.20944101748678176  0.08422173050758627  1.0000
  O   O6        1.0  0.4292991177334713  0.7905621327791862  0.9157749217454307  1.0000
  O   O7        1.0  0.21809469943912058  0.8754552668313662  0.47364186631537547  1.0000
  O   O8        1.0  0.781918948696898  0.1245388806357468  0.526353848206341  1.0000
  O   O9        1.0  0.8541088413541543  0.7799949435649579  0.4147762912002617  1.0000
  O   O10       1.0  0.14589738995507417  0.2200147498924422  0.5852241340845052  1.0000
  O   O11       1.0  0.26011007952140364  0.6226938012525378  0.051347541643309534  1.0000
  O   O12       1.0  0.7399135210116439  0.3773058215906246  0.9486528483587758  1.0000
  O   O13       1.0  0.5288702852264534  0.4971745820395838  0.12041954259203885  1.0000
  O   O14       1.0  0.47113603749013316  0.5028273917428407  0.8795820384848055  1.0000
  O   O15       1.0  0.0892780246120992  0.3918367522610211  0.09048952801470016  1.0000
  O   O16       1.0  0.9107238852559191  0.608160812289995  0.9095081344582707  1.0000
  O   O17       1.0  0.24179926864764664  0.36167995043395956  0.4847711256212647  1.0000
  O   O18       1.0  0.7581926752594653  0.6383210175353397  0.515228504970345  1.0000
  O   O19       1.0  0.8713466340295141  0.2680083504947318  0.4311071341889914  1.0000
  O   O20       1.0  0.12863160766026024  0.7320038038837351  0.5688981858675459  1.0000
  O   O21       1.0  0.7942677662133376  0.7680730593946946  0.08443959453075676  1.0000
  O   O22       1.0  0.20574339475847125  0.23192667110271253  0.9155622934573273  1.0000
