data_image0
_chemical_formula_structural       Cd2H36C40N24O12
_chemical_formula_sum              "Cd2 H36 C40 N24 O12"
_cell_length_a       9.84276957416103
_cell_length_b       10.40958225200089
_cell_length_c       11.260591099557534
_cell_angle_alpha    89.99995781606258
_cell_angle_beta     93.88083637364151
_cell_angle_gamma    89.99998132262849

_space_group_name_H-M_alt    "P 1"
_space_group_IT_number       1

loop_
  _space_group_symop_operation_xyz
  'x, y, z'

loop_
  _atom_site_type_symbol
  _atom_site_label
  _atom_site_symmetry_multiplicity
  _atom_site_fract_x
  _atom_site_fract_y
  _atom_site_fract_z
  _atom_site_occupancy
  Cd  Cd1       1.0  1.0066015149999211e-06  0.4999996927826659  0.50000060656469  1.0000
  Cd  Cd2       1.0  0.50000004257776  0.999999308329855  0.9999993268413474  1.0000
  H   H1        1.0  0.2747315960058145  0.6092710216866026  0.6622164101143184  1.0000
  H   H2        1.0  0.22526757341404383  0.10927106760497908  0.837782788036783  1.0000
  H   H3        1.0  0.7252674907940033  0.3907282094065324  0.33778375564017427  1.0000
  H   H4        1.0  0.7747325328478921  0.8907291241416787  0.16221655098244264  1.0000
  H   H5        1.0  0.2686853250388594  0.32166976957077514  0.39662769174432805  1.0000
  H   H6        1.0  0.2313156182165628  0.821668823264098  0.10337181243208697  1.0000
  H   H7        1.0  0.731315798378084  0.6783294615220044  0.6033725965083505  1.0000
  H   H8        1.0  0.7686865212018432  0.17832848652109595  0.8966303130384076  1.0000
  H   H9        1.0  0.5014704187740264  0.29174340069596383  0.5472038538396617  1.0000
  H   H10       1.0  0.9985288064535498  0.7917440149341602  0.9527943521508957  1.0000
  H   H11       1.0  0.49852968748790966  0.7082567910506938  0.4527954851795641  1.0000
  H   H12       1.0  0.0014712998085784  0.2082552161591452  0.0472049868686639  1.0000
  H   H13       1.0  0.5081162259550851  0.5736345488097427  0.7636402441931265  1.0000
  H   H14       1.0  0.9918851216514355  0.0736355537638644  0.7363591259143475  1.0000
  H   H15       1.0  0.49188388030704994  0.4263646822835697  0.23635909482643305  1.0000
  H   H16       1.0  0.0081160017655151  0.9263636773289082  0.26364116233833096  1.0000
  H   H17       1.0  0.6110485942380279  0.44425183788730754  0.7167818043516971  1.0000
  H   H18       1.0  0.888952604525052  0.9442526209944191  0.7832181926788238  1.0000
  H   H19       1.0  0.3889515097166126  0.5557473932053015  0.283219310635907  1.0000
  H   H20       1.0  0.11104953720026599  0.0557475707515138  0.2167821568226174  1.0000
  H   H21       1.0  0.28983038547090706  0.2035114312159294  0.1330811449876563  1.0000
  H   H22       1.0  0.21017060371612936  0.7035122029152492  0.3669193304023536  1.0000
  H   H23       1.0  0.7101707379456599  0.7964897211835336  0.8669191432643472  1.0000
  H   H24       1.0  0.7898305208543732  0.29648798883122396  0.6330800698659614  1.0000
  H   H25       1.0  0.13912076056018208  0.3918177453728405  0.1756858293243155  1.0000
  H   H26       1.0  0.3608801535874306  0.8918185044324647  0.3243145134236229  1.0000
  H   H27       1.0  0.8608793445478186  0.6081834070268075  0.8243143976785915  1.0000
  H   H28       1.0  0.6391209686753925  0.10818264796664326  0.6756866628124029  1.0000
  H   H29       1.0  0.14109323258970358  0.5875739669836052  0.056629410091986195  1.0000
  H   H30       1.0  0.3589067844896263  0.08757388754702332  0.44337108571502165  1.0000
  H   H31       1.0  0.8589048382086588  0.41242718541710854  0.9433689184446832  1.0000
  H   H32       1.0  0.6410943389271324  0.9124263041991015  0.5566292025373157  1.0000
  H   H33       1.0  0.29402721350932387  0.6121269509879995  0.8885686972953977  1.0000
  H   H34       1.0  0.20597399023598936  0.11212622243293421  0.6114315093264792  1.0000
  H   H35       1.0  0.7059688241333362  0.3878732407607971  0.11142684479134599  1.0000
  H   H36       1.0  0.794028150335393  0.8878749299659957  0.3885697281586359  1.0000
  C   C1        1.0  0.30075419031727085  0.5268786834399749  0.6091441553246141  1.0000
  C   C2        1.0  0.19924603024422538  0.026878695142144703  0.8908551621123593  1.0000
  C   C3        1.0  0.699244897636298  0.4731205476535152  0.3908551224458491  1.0000
  C   C4        1.0  0.800755093172718  0.9731205359506279  0.10914512614031929  1.0000
  C   C5        1.0  0.30390431561959014  0.37694668733232833  0.47415951665675476  1.0000
  C   C6        1.0  0.19609456899083  0.8769467742901756  0.025839826084300892  1.0000
  C   C7        1.0  0.6960947711804196  0.6230515831074612  0.5258406490980646  1.0000
  C   C8        1.0  0.8039024823457979  0.12305149615033174  0.9741593291883104  1.0000
  C   C9        1.0  0.4184485243003523  0.3597903319191148  0.5486361947165079  1.0000
  C   C10       1.0  0.0815515624430887  0.8597910761206579  0.9513637762028465  1.0000
  C   C11       1.0  0.5815515796542882  0.6402088991734943  0.4513649202710963  1.0000
  C   C12       1.0  0.9184475220484815  0.14021199758514774  0.0486381655183337  1.0000
  C   C13       1.0  0.5080924376204833  0.4723365461397578  0.7372876387559655  1.0000
  C   C14       1.0  0.9919077316423781  0.9723373137656921  0.76271227724272  1.0000
  C   C15       1.0  0.4919076674879007  0.5276626849531996  0.26271258824761645  1.0000
  C   C16       1.0  0.0080933929281244  0.027662877980780806  0.23728712302559526  1.0000
  C   C17       1.0  0.3743083632141833  0.41771950998697355  0.9171422762696577  1.0000
  C   C18       1.0  0.1256917004450031  0.917718612645594  0.582857653845238  1.0000
  C   C19       1.0  0.6256897075845629  0.5822797211070496  0.08285605226768668  1.0000
  C   C20       1.0  0.8743094229719475  0.08228061844717872  0.4171426344074403  1.0000
  C   C21       1.0  0.3729330712874556  0.30359962986772626  0.9849273005978103  1.0000
  C   C22       1.0  0.1270680561564745  0.8035997467243025  0.5150727711513241  1.0000
  C   C23       1.0  0.6270649983573549  0.6964005618792868  0.015071915923215303  1.0000
  C   C24       1.0  0.8729351038774099  0.19640044502145323  0.48492763959920626  1.0000
  C   C25       1.0  0.2886261635891501  0.291103824381736  0.08014375186049699  1.0000
  C   C26       1.0  0.21137377238405713  0.7911045535610273  0.41985660058075763  1.0000
  C   C27       1.0  0.7113729243640349  0.708897328018445  0.9198555259092912  1.0000
  C   C28       1.0  0.7886273510325097  0.2088965988384359  0.5801436876712387  1.0000
  C   C29       1.0  0.2064527062082675  0.3953279913695484  0.10264112015544669  1.0000
  C   C30       1.0  0.2935482065405282  0.8953287130736884  0.3973592201199025  1.0000
  C   C31       1.0  0.7935463828988533  0.6046722003776425  0.897357269630653  1.0000
  C   C32       1.0  0.7064539340308541  0.10467243932524183  0.6026420173652197  1.0000
  C   C33       1.0  0.20773931049713917  0.5090876270956103  0.0333561676738583  1.0000
  C   C34       1.0  0.2922617561671003  0.009088510372294  0.4666444446673096  1.0000
  C   C35       1.0  0.7922587603014151  0.4909125646517651  0.9666421608631453  1.0000
  C   C36       1.0  0.7077403855582176  0.9909116813736462  0.5333559048341243  1.0000
  C   C37       1.0  0.2915400149009031  0.5233846570361183  0.9397566078370473  1.0000
  C   C38       1.0  0.20846122536165265  0.023383968468238002  0.5602427733104491  1.0000
  C   C39       1.0  0.7084560215882051  0.4766145740589777  0.060239822234059694  1.0000
  C   C40       1.0  0.7915419335184878  0.9766162232771625  0.43975852542410365  1.0000
  N   N1        1.0  0.23166974157718556  0.48133223612684634  0.5127831896797375  1.0000
  N   N2        1.0  0.2683292795776069  0.9813319334252602  0.9872157463933318  1.0000
  N   N3        1.0  0.768328326914073  0.5186669949664734  0.48721691482565177  1.0000
  N   N4        1.0  0.7316708255309692  0.018666337014352104  0.012784480610591212  1.0000
  N   N5        1.0  0.41503680807952054  0.4559718721717091  0.6333617192839398  1.0000
  N   N6        1.0  0.0849632414898238  0.9559717221238347  0.8666372959018886  1.0000
  N   N7        1.0  0.5849643164909821  0.5440283195747639  0.3666376809843753  1.0000
  N   N8        1.0  0.9150368647723042  0.04402750896947791  0.1333620431176712  1.0000
  N   N9        1.0  0.46887985970457885  0.3934476604076665  0.8357071903908206  1.0000
  N   N10       1.0  0.0311202136264797  0.8934486487527025  0.6642927568203872  1.0000
  N   N11       1.0  0.5311192270950542  0.6065525313388138  0.16429297536332396  1.0000
  N   N12       1.0  0.9688798914817127  0.10655154299359992  0.3357074701828607  1.0000
  N   N13       1.0  0.5200452734184822  0.2732900874424331  0.8493916321926703  1.0000
  N   N14       1.0  0.9799559923185156  0.7732909480165661  0.6506093732464889  1.0000
  N   N15       1.0  0.4799558499980776  0.7267110649570299  0.1506086560593332  1.0000
  N   N16       1.0  0.0200461482530585  0.2267092437290188  0.34939186423896723  1.0000
  N   N17       1.0  0.4639759034732335  0.21941469969895172  0.9387337500639461  1.0000
  N   N18       1.0  0.0360252575179203  0.7194157685573475  0.5612663809843212  1.0000
  N   N19       1.0  0.5360252187895895  0.780586452700163  0.06126742617207268  1.0000
  N   N20       1.0  0.9639768853611486  0.28058442318894095  0.4387330805330904  1.0000
  N   N21       1.0  0.045350649996734695  0.33824477610689735  0.7502128489943516  1.0000
  N   N22       1.0  0.4546494464864637  0.8382446048815241  0.7497862491178893  1.0000
  N   N23       1.0  0.9546484379566421  0.6617554156399381  0.24978642877577067  1.0000
  N   N24       1.0  0.5453506586219206  0.1617546262114331  0.2502139778856929  1.0000
  O   O1        1.0  0.9882186285513654  0.440974034410303  0.7067456771331634  1.0000
  O   O2        1.0  0.5117805360546939  0.9409739653993512  0.7932533117243068  1.0000
  O   O3        1.0  0.0117804582482677  0.5590261573361773  0.2932544886209811  1.0000
  O   O4        1.0  0.488219570207434  0.0590252656939541  0.20674602729525296  1.0000
  O   O5        1.0  0.1478163795145093  0.29155894734775967  0.7042925158075092  1.0000
  O   O6        1.0  0.3521827172640783  0.7915597318709972  0.7957065539405759  1.0000
  O   O7        1.0  0.8521827072853156  0.7084402837453753  0.29570764994697635  1.0000
  O   O8        1.0  0.647817387844306  0.20843949922196  0.2042936730630061  1.0000
  O   O9        1.0  0.996015004318707  0.28523862475503853  0.8379760911323615  1.0000
  O   O10       1.0  0.50398524180968  0.7852386626371413  0.6620221806894263  1.0000
  O   O11       1.0  0.0039851019432362  0.7147615669916121  0.16202324788685726  1.0000
  O   O12       1.0  0.496013844990145  0.21476056845599353  0.3379779850650593  1.0000
