data_image0
_chemical_formula_structural       Cd4H24C24S12N8O20
_chemical_formula_sum              "Cd4 H24 C24 S12 N8 O20"
_cell_length_a       5.123984133000238
_cell_length_b       10.276370038000708
_cell_length_c       20.932060145000918
_cell_angle_alpha    89.99997033089916
_cell_angle_beta     89.99998356119099
_cell_angle_gamma    89.99996938158901

_space_group_name_H-M_alt    "P 1"
_space_group_IT_number       1

loop_
  _space_group_symop_operation_xyz
  'x, y, z'

loop_
  _atom_site_type_symbol
  _atom_site_label
  _atom_site_symmetry_multiplicity
  _atom_site_fract_x
  _atom_site_fract_y
  _atom_site_fract_z
  _atom_site_occupancy
  Cd  Cd1       1.0  0.8037040584514585  0.09780045547398684  0.9633509080727974  1.0000
  Cd  Cd2       1.0  0.6962953138773785  0.9021995603532532  0.4633503354325583  1.0000
  Cd  Cd3       1.0  0.30370288987461447  0.40220032646829657  0.036649460306918485  1.0000
  Cd  Cd4       1.0  0.19629583693102864  0.5978012465925387  0.536649435782067  1.0000
  H   H1        1.0  0.2872055298002039  0.2308095708088302  0.9304559150035274  1.0000
  H   H2        1.0  0.2127927360270832  0.7691906133572388  0.43045537498267816  1.0000
  H   H3        1.0  0.7872056098721106  0.2691902424356839  0.0695444545364907  1.0000
  H   H4        1.0  0.7127942234361201  0.7308092160738084  0.5695443950718939  1.0000
  H   H5        1.0  0.03788972865596921  0.3193622795144861  0.9193561928420594  1.0000
  H   H6        1.0  0.4621105017701482  0.6806379163701237  0.4193566132499313  1.0000
  H   H7        1.0  0.5378898903707994  0.1806385734574292  0.0806437164943361  1.0000
  H   H8        1.0  0.9621118815499942  0.8193628195452687  0.5806440947439455  1.0000
  H   H9        1.0  0.2878026946347704  0.3934380622801683  0.8276169962447282  1.0000
  H   H10       1.0  0.21219959478561634  0.6065612573579885  0.32761745303982076  1.0000
  H   H11       1.0  0.7878028281274612  0.10656175080502088  0.1723828955172308  1.0000
  H   H12       1.0  0.7121988364064579  0.8934385722313531  0.6723832725286626  1.0000
  H   H13       1.0  0.4443118529357762  0.2912988911452956  0.7728832607323851  1.0000
  H   H14       1.0  0.05568854894861631  0.7086995131758512  0.2728837025940933  1.0000
  H   H15       1.0  0.9443137648096921  0.20869990701206115  0.2271161422874215  1.0000
  H   H16       1.0  0.5556878356554692  0.7912993851295623  0.7271165562447308  1.0000
  H   H17       1.0  0.9798523639649804  0.08964502204833018  0.5965031131221323  1.0000
  H   H18       1.0  0.5201474377851484  0.9103563542102008  0.09650302853381018  1.0000
  H   H19       1.0  0.47985466046394276  0.4103547397182794  0.4034962873982337  1.0000
  H   H20       1.0  0.020147540134196604  0.5896444998049901  0.9034967550680264  1.0000
  H   H21       1.0  0.9505919088746496  0.20071638201503816  0.5309792103533155  1.0000
  H   H22       1.0  0.5494079695762082  0.79928409031843  0.030979629651675097  1.0000
  H   H23       1.0  0.4505942473744683  0.29928436067665126  0.46902019222459757  1.0000
  H   H24       1.0  0.04940787652265751  0.7007157827714323  0.9690206296286802  1.0000
  C   C1        1.0  0.6696364469288627  0.32814840400571643  0.8578151653753139  1.0000
  C   C2        1.0  0.8303610973313981  0.6718507501422623  0.3578146418074368  1.0000
  C   C3        1.0  0.16963930420116927  0.17185046754838135  0.1421852124325085  1.0000
  C   C4        1.0  0.3303632022809637  0.8281490478726777  0.6421851199793877  1.0000
  C   C5        1.0  0.4789410932983246  0.3724968014321846  0.8060691848066027  1.0000
  C   C6        1.0  0.021059269739268402  0.6275025409570958  0.3060691719887387  1.0000
  C   C7        1.0  0.9789411791880698  0.1275019874714616  0.1939311712501777  1.0000
  C   C8        1.0  0.5210604601228115  0.8724973397077915  0.6939310892851225  1.0000
  C   C9        1.0  0.8000467019261281  0.4617082716791288  0.7100747886726991  1.0000
  C   C10       1.0  0.6999549184874214  0.5382910384553199  0.210074785930999  1.0000
  C   C11       1.0  0.30004562578044164  0.0382905650281771  0.2899251022283948  1.0000
  C   C12       1.0  0.19995475615476016  0.9617087944061496  0.7899254627624899  1.0000
  C   C13       1.0  0.10248609251939203  0.3541208009633081  0.639711470851843  1.0000
  C   C14       1.0  0.397512513645701  0.6458787170700759  0.1397114268938182  1.0000
  C   C15       1.0  0.6024879156436358  0.1458780885350137  0.3602879562060862  1.0000
  C   C16       1.0  0.8975135289334305  0.8541220361071566  0.8602888079067128  1.0000
  C   C17       1.0  0.23934857608875867  0.050318045631577484  0.5188710339478178  1.0000
  C   C18       1.0  0.260654074742142  0.949680626880827  0.018870922459193192  1.0000
  C   C19       1.0  0.7393479814799238  0.44968178040187484  0.4811279057494673  1.0000
  C   C20       1.0  0.7606533216443198  0.5503191897610051  0.9811293219657813  1.0000
  C   C21       1.0  0.08804241185175242  0.14530002648014323  0.5604565182656245  1.0000
  C   C22       1.0  0.41195628708679544  0.8546995752319899  0.06045689799486809  1.0000
  C   C23       1.0  0.5880458706416719  0.3546998399840362  0.4395424320717821  1.0000
  C   C24       1.0  0.9119554811622167  0.6453002009796407  0.9395433357901268  1.0000
  S   S1        1.0  0.5626630028064528  0.5171227849394737  0.7620911702366797  1.0000
  S   S2        1.0  0.937338556718132  0.48287647027503766  0.26209116487483186  1.0000
  S   S3        1.0  0.06266151242116542  0.9828761115023708  0.23790908811171357  1.0000
  S   S4        1.0  0.43733893040271726  0.017123302851644  0.7379091941074094  1.0000
  S   S5        1.0  0.9119128671240733  0.3024234159862259  0.7036153356605368  1.0000
  S   S6        1.0  0.5880868092441176  0.6975759009682747  0.20361577806900746  1.0000
  S   S7        1.0  0.4119116131892399  0.19757636393530478  0.2963840696376465  1.0000
  S   S8        1.0  0.08808876118472143  0.8024239617857489  0.7963844784912694  1.0000
  S   S9        1.0  0.31998293977805764  0.2548357350035744  0.5988683865946882  1.0000
  S   S10       1.0  0.18001766580240292  0.7451647992585109  0.098868810452629  1.0000
  S   S11       1.0  0.8199826573797113  0.24516406948287536  0.4011310251682191  1.0000
  S   S12       1.0  0.6800167877814547  0.7548360120368471  0.9011314396427961  1.0000
  N   N1        1.0  0.9089560757303589  0.5423457021998032  0.6686966209963288  1.0000
  N   N2        1.0  0.5910455931188212  0.4576546247287894  0.1686966463923483  1.0000
  N   N3        1.0  0.4089545029754405  0.9576540748138812  0.3313031352636102  1.0000
  N   N4        1.0  0.09104583052361903  0.042345240932562  0.8313037369421606  1.0000
  N   N5        1.0  0.0750249785867751  0.48008260384540336  0.6287684335679629  1.0000
  N   N6        1.0  0.42497559199375723  0.5199178988478366  0.1287684196684324  1.0000
  N   N7        1.0  0.5750249719095564  0.019917266097181096  0.37123147315710975  1.0000
  N   N8        1.0  0.9249745082512679  0.9800828469911306  0.8712318132008929  1.0000
  O   O1        1.0  0.585555420653428  0.23404610272552864  0.8918844498636743  1.0000
  O   O2        1.0  0.9144401321193886  0.7659539885579534  0.3918838964843019  1.0000
  O   O3        1.0  0.08556016884478622  0.2659537644020346  0.10811641159282459  1.0000
  O   O4        1.0  0.4144423775173609  0.7340457869895474  0.6081163371259137  1.0000
  O   O5        1.0  0.13216403390666903  0.2656380253826072  0.9536485686732376  1.0000
  O   O6        1.0  0.3678342047716542  0.7343621342959352  0.453648504330701  1.0000
  O   O7        1.0  0.6321641783478855  0.2343628023975626  0.0463518117695898  1.0000
  O   O8        1.0  0.8678356821085136  0.7656376537054682  0.5463517325569995  1.0000
  O   O9        1.0  0.8886651958405596  0.3830237801225849  0.8630358504000595  1.0000
  O   O10       1.0  0.6113323423090052  0.6169743954070199  0.36303535617140875  1.0000
  O   O11       1.0  0.388668117870445  0.11697308669123876  0.1369645120053136  1.0000
  O   O12       1.0  0.11133439472394713  0.8830244880294273  0.6369644210182344  1.0000
  O   O13       1.0  0.11767910613048833  0.9840417587781186  0.47785775640409156  1.0000
  O   O14       1.0  0.3823210558146998  0.0159603215522921  0.9778573888284187  1.0000
  O   O15       1.0  0.6176808786383036  0.5159590691749398  0.5221420203389966  1.0000
  O   O16       1.0  0.8823209617639804  0.4840404393824613  0.0221424962866337  1.0000
  O   O17       1.0  0.48599648817256746  0.0445212137807474  0.5281797131951222  1.0000
  O   O18       1.0  0.014000296940935205  0.9554803682226664  0.0281800953151716  1.0000
  O   O19       1.0  0.9859978498697476  0.4554824387697209  0.4718187314205835  1.0000
  O   O20       1.0  0.5139995609385934  0.5445195143289964  0.9718196887191012  1.0000
