data_image0
_chemical_formula_structural       Cu3H18C16Br4N2O4
_chemical_formula_sum              "Cu3 H18 C16 Br4 N2 O4"
_cell_length_a       7.794867206295517
_cell_length_b       8.620872349337283
_cell_length_c       9.052418246312694
_cell_angle_alpha    82.3764330011267
_cell_angle_beta     81.42781136331563
_cell_angle_gamma    66.71859369391733

_space_group_name_H-M_alt    "P 1"
_space_group_IT_number       1

loop_
  _space_group_symop_operation_xyz
  'x, y, z'

loop_
  _atom_site_type_symbol
  _atom_site_label
  _atom_site_symmetry_multiplicity
  _atom_site_fract_x
  _atom_site_fract_y
  _atom_site_fract_z
  _atom_site_occupancy
  Cu  Cu1       1.0  0.09395769073037032  0.48455808872372336  0.8724138156819096  1.0000
  Cu  Cu2       1.0  0.9089243938186655  0.5143641835581717  0.12444294709834479  1.0000
  Cu  Cu3       1.0  0.9984304384060609  0.4999788956350669  0.5000752078823041  1.0000
  H   H1        1.0  0.6440639433110177  0.27692260433010313  0.8522848717203075  1.0000
  H   H2        1.0  0.3561577282836552  0.7223338766631784  0.1484683392457455  1.0000
  H   H3        1.0  0.5175131891567305  0.1424930712737975  0.9079001450270852  1.0000
  H   H4        1.0  0.4826548819181226  0.856862460976764  0.09299827558898242  1.0000
  H   H5        1.0  0.7344583849609235  0.0962900580476997  0.9814334375708995  1.0000
  H   H6        1.0  0.265049918243342  0.9037842833966963  0.020254189732163842  1.0000
  H   H7        1.0  0.9395640110126922  0.229770047873501  0.7106561939459439  1.0000
  H   H8        1.0  0.06135005691707827  0.7689447945444812  0.2908214866715753  1.0000
  H   H9        1.0  0.08781554505674194  0.912112517974208  0.7381055191158623  1.0000
  H   H10       1.0  0.9137262665085332  0.08669153776047271  0.2620300222015572  1.0000
  H   H11       1.0  0.34225870990188423  0.7617923489150086  0.5415956508313826  1.0000
  H   H12       1.0  0.6583324359842281  0.2381517510971136  0.4574836907916406  1.0000
  H   H13       1.0  0.4438795643689702  0.9359237213658388  0.3287598426640487  1.0000
  H   H14       1.0  0.5551180785941838  0.065388667067964  0.670400809061853  1.0000
  H   H15       1.0  0.37147118880475466  0.4132717587683814  0.0366779865193507  1.0000
  H   H16       1.0  0.6272635182569741  0.5867399940007374  0.9629641697049751  1.0000
  H   H17       1.0  0.584685168001613  0.3618851948860352  0.11845061025950804  1.0000
  H   H18       1.0  0.4136891237681937  0.6397484999524748  0.8812526169304108  1.0000
  C   C1        1.0  0.0504211108447379  0.15910067021609822  0.6281810210746457  1.0000
  C   C2        1.0  0.9500781149490436  0.8402135545768201  0.3727377699666762  1.0000
  C   C3        1.0  0.13457278068328546  0.9826366828829762  0.6427388521353805  1.0000
  C   C4        1.0  0.8662217303834793  0.016653991379925497  0.3574242548652578  1.0000
  C   C5        1.0  0.2761775757504169  0.899833013942583  0.5338804046682526  1.0000
  C   C6        1.0  0.7241314791189736  0.10010690708460858  0.4657076974045253  1.0000
  C   C7        1.0  0.3317557545437354  0.9960178462270618  0.41475134039309575  1.0000
  C   C8        1.0  0.6677465024918733  0.004621220772016  0.5850144896083194  1.0000
  C   C9        1.0  0.24317950058041762  0.1719759074300171  0.4083831489632459  1.0000
  C   C10       1.0  0.7562641539480449  0.8286356627991723  0.5922222916119112  1.0000
  C   C11       1.0  0.2973600055008205  0.2866810897700915  0.2898739981762901  1.0000
  C   C12       1.0  0.7015023328380466  0.714228824233125  0.7107272941196285  1.0000
  C   C13       1.0  0.49917969601715134  0.3089305545966353  0.07142575524189711  1.0000
  C   C14       1.0  0.49972287062503534  0.6917408517015106  0.9288160726564315  1.0000
  C   C15       1.0  0.6058659614644526  0.19815287922480704  0.9464283578661893  1.0000
  C   C16       1.0  0.39383884754902  0.8016342911495327  0.0545265910608776  1.0000
  Br  Br1       1.0  0.2930202996337671  0.4701255074820878  0.6506216952354933  1.0000
  Br  Br2       1.0  0.7107707428700747  0.5292499796310041  0.34735740886815597  1.0000
  Br  Br3       1.0  0.0432911610341336  0.24712028066984712  0.011714406273085799  1.0000
  Br  Br4       1.0  0.9575663583721122  0.7524236580757558  0.9858412369387537  1.0000
  N   N1        1.0  0.10346143507324262  0.25181428396180655  0.5133590195572424  1.0000
  N   N2        1.0  0.8963251234424658  0.7481674370070976  0.4877688452949088  1.0000
  O   O1        1.0  0.2158156093814725  0.4426965628883082  0.2842352957361953  1.0000
  O   O2        1.0  0.7820805610742952  0.5581535187245946  0.7159280543403954  1.0000
  O   O3        1.0  0.4409839345187336  0.20411472134794198  0.19347498232770022  1.0000
  O   O4        1.0  0.5583022865516015  0.7969712286282088  0.8073879800566601  1.0000
