data_image0
_chemical_formula_structural       Ag4H12C8N16
_chemical_formula_sum              "Ag4 H12 C8 N16"
_cell_length_a       7.8070091532483765
_cell_length_b       7.560102017516711
_cell_length_c       7.560037148421786
_cell_angle_alpha    99.70473560797987
_cell_angle_beta     97.33431398017687
_cell_angle_gamma    97.33465146265041

_space_group_name_H-M_alt    "P 1"
_space_group_IT_number       1

loop_
  _space_group_symop_operation_xyz
  'x, y, z'

loop_
  _atom_site_type_symbol
  _atom_site_label
  _atom_site_symmetry_multiplicity
  _atom_site_fract_x
  _atom_site_fract_y
  _atom_site_fract_z
  _atom_site_occupancy
  Ag  Ag1       1.0  0.8679251208061058  0.7834261427181842  0.007237410737218391  1.0000
  Ag  Ag2       1.0  0.6320807316719906  0.992769564290448  0.2165695667953429  1.0000
  Ag  Ag3       1.0  0.1320775187636158  0.2165727027169666  0.9927620086850412  1.0000
  Ag  Ag4       1.0  0.3679180446770259  0.0072292975141437016  0.7834306954180263  1.0000
  H   H1        1.0  0.4059176628318255  0.22644481081820797  0.4171608791570094  1.0000
  H   H2        1.0  0.09408467585113563  0.5828386340639612  0.7735627544902216  1.0000
  H   H3        1.0  0.5940886321310045  0.7735526302642767  0.5828361433936706  1.0000
  H   H4        1.0  0.9059104451047728  0.417161632093304  0.22643990459472726  1.0000
  H   H5        1.0  0.9175323774130815  0.6896991754407863  0.38811301949478866  1.0000
  H   H6        1.0  0.5824745837885388  0.6118831343430315  0.310303647010251  1.0000
  H   H7        1.0  0.08246769105667787  0.3102996910719895  0.6118874048729881  1.0000
  H   H8        1.0  0.41752676366043306  0.3881157063839353  0.6896956102576014  1.0000
  H   H9        1.0  0.037595673413093764  0.760337600962323  0.5930990544611134  1.0000
  H   H10       1.0  0.4624063067286741  0.4068973595216221  0.23966426112727393  1.0000
  H   H11       1.0  0.9624078820467828  0.2396585646965477  0.4069014067176226  1.0000
  H   H12       1.0  0.5375898985203875  0.5931015233606018  0.7603370060316126  1.0000
  C   C1        1.0  0.12075492630388851  0.8815185668790452  0.3974974782589698  1.0000
  C   C2        1.0  0.3792513726445108  0.6024985533009328  0.1184868891513915  1.0000
  C   C3        1.0  0.8792453237104068  0.1184816266289701  0.6025018416806065  1.0000
  C   C4        1.0  0.6207475983905651  0.39750166599289105  0.8815135978881089  1.0000
  C   C5        1.0  0.2980588217750506  0.11470916794132789  0.38258753446391586  1.0000
  C   C6        1.0  0.2019401721570802  0.6174113871839921  0.8852958167563258  1.0000
  C   C7        1.0  0.7019442203083198  0.8852924229662875  0.6174136638649231  1.0000
  C   C8        1.0  0.7980549487988214  0.38258887897326577  0.1147068423286157  1.0000
  N   N1        1.0  0.0698491013227596  0.9275840654491532  0.23749220365125723  1.0000
  N   N2        1.0  0.4301560335617863  0.7625072358849964  0.0724179193755532  1.0000
  N   N3        1.0  0.930152635498345  0.07241749025627801  0.7625075032688573  1.0000
  N   N4        1.0  0.5698438139388528  0.23749021215056135  0.9275796216574437  1.0000
  N   N5        1.0  0.1855058128273797  0.08001964856639891  0.22865568532117214  1.0000
  N   N6        1.0  0.3144955432963313  0.7713441781336031  0.9199869264031763  1.0000
  N   N7        1.0  0.814494826559034  0.919983259920073  0.771344084270659  1.0000
  N   N8        1.0  0.6855021224764642  0.22865600595803673  0.08001206922759255  1.0000
  N   N9        1.0  0.26324376148774314  0.9950070760307667  0.4936101611559352  1.0000
  N   N10       1.0  0.2367581459889934  0.5063887593303137  0.004999898664564726  1.0000
  N   N11       1.0  0.7367577806472949  0.004993122185432201  0.5063893209380481  1.0000
  N   N12       1.0  0.7632371696529744  0.4936128643161836  0.9950029852465009  1.0000
  N   N13       1.0  0.04031191010297161  0.7340772804670976  0.4569433944650357  1.0000
  N   N14       1.0  0.45968919474119463  0.5430580160803443  0.2659239574554206  1.0000
  N   N15       1.0  0.9596872293351024  0.2659242353279581  0.5430546588919328  1.0000
  N   N16       1.0  0.5403097762938811  0.45694220321347956  0.7340765295840797  1.0000
