data_image0
_chemical_formula_structural       Cd2H18C26N2O10
_chemical_formula_sum              "Cd2 H18 C26 N2 O10"
_cell_length_a       7.802621125759989
_cell_length_b       8.43999163181801
_cell_length_c       10.419911604950387
_cell_angle_alpha    68.23085375645167
_cell_angle_beta     82.79373594246172
_cell_angle_gamma    96.07371256121773

_space_group_name_H-M_alt    "P 1"
_space_group_IT_number       1

loop_
  _space_group_symop_operation_xyz
  'x, y, z'

loop_
  _atom_site_type_symbol
  _atom_site_label
  _atom_site_symmetry_multiplicity
  _atom_site_fract_x
  _atom_site_fract_y
  _atom_site_fract_z
  _atom_site_occupancy
  Cd  Cd1       1.0  0.4762753583154194  0.6866606699353142  0.34394516118460683  1.0000
  Cd  Cd2       1.0  0.5237183179483226  0.31332735402987316  0.6560686967213841  1.0000
  H   H1        1.0  0.969901117761836  0.6609038259005972  0.011044604883579747  1.0000
  H   H2        1.0  0.030068109928471608  0.33908818776059496  0.9889798744629347  1.0000
  H   H3        1.0  0.1072825323551925  0.6888739229996474  0.7734686553168617  1.0000
  H   H4        1.0  0.892736516007588  0.31117955455159324  0.22654548796435148  1.0000
  H   H5        1.0  0.4721245591780203  0.6943205755400896  0.8788158945368497  1.0000
  H   H6        1.0  0.5278854772250625  0.305706971394045  0.12115374362364414  1.0000
  H   H7        1.0  0.1608270229762638  0.591133185408161  0.6040853906191049  1.0000
  H   H8        1.0  0.8391572162914686  0.4088475898569826  0.39591765439297444  1.0000
  H   H9        1.0  0.20074563816734786  0.8375121359112045  0.17298385490842358  1.0000
  H   H10       1.0  0.7992512184730457  0.16247747254401898  0.8270120229080932  1.0000
  H   H11       1.0  0.932399119662037  0.9734413894248704  0.20214585245401664  1.0000
  H   H12       1.0  0.0676001794194576  0.026560876417391917  0.7978504126682395  1.0000
  H   H13       1.0  0.7929690087740869  0.9305188203656273  0.44156848793691955  1.0000
  H   H14       1.0  0.20703960314484252  0.06948648033782232  0.5584281455809902  1.0000
  H   H15       1.0  0.5650711560125644  0.06188529503781841  0.29746769716178534  1.0000
  H   H16       1.0  0.4349237287869557  0.9381016067718805  0.702545387389421  1.0000
  H   H17       1.0  0.557809845807114  0.0393494591667931  0.15219112672663476  1.0000
  H   H18       1.0  0.44223319903799313  0.9606395609555493  0.8478154868673827  1.0000
  C   C1        1.0  0.6276752272396209  0.6874179491654075  0.09298793817165331  1.0000
  C   C2        1.0  0.37229540440112885  0.3125685359824999  0.9070118843827546  1.0000
  C   C3        1.0  0.7130184905663841  0.6835761100228483  0.9577686077922253  1.0000
  C   C4        1.0  0.28697117860717486  0.3164203879000382  0.04222994145943913  1.0000
  C   C5        1.0  0.8908128881090394  0.6734486795317596  0.9297244266365398  1.0000
  C   C6        1.0  0.10917079396060099  0.3265703595187191  0.07028613000023402  1.0000
  C   C7        1.0  0.96661955176144  0.6871480649999597  0.7968020803392906  1.0000
  C   C8        1.0  0.033390857951658914  0.3128911482584017  0.20319529584461554  1.0000
  C   C9        1.0  0.8678853242759176  0.7094836762119598  0.689039889854101  1.0000
  C   C10       1.0  0.1321438164054243  0.2905360954789272  0.3109638152419976  1.0000
  C   C11       1.0  0.6856001010156019  0.7082974852070192  0.7211137863542166  1.0000
  C   C12       1.0  0.3144355564515208  0.2917297475701374  0.2788634187144227  1.0000
  C   C13       1.0  0.612265406608465  0.6965562248950761  0.8538615981819647  1.0000
  C   C14       1.0  0.38772517372982673  0.30346516775045973  0.14614008714601576  1.0000
  C   C15       1.0  0.561663959293746  0.7188781782468325  0.6199614858502471  1.0000
  C   C16       1.0  0.43835232136785857  0.28111048433792973  0.38002917455418134  1.0000
  C   C17       1.0  0.9571194696739769  0.747794915527443  0.5446453137197125  1.0000
  C   C18       1.0  0.04290007631035312  0.2522152657419313  0.45534530927368183  1.0000
  C   C19       1.0  0.10644194753442798  0.6779983390199148  0.5183455377282656  1.0000
  C   C20       1.0  0.8935578001147493  0.32199507509634634  0.48165200553376764  1.0000
  C   C21       1.0  0.12805996218727242  0.8159349369165059  0.27616952499276  1.0000
  C   C22       1.0  0.8719340353182403  0.1840509441450209  0.723823703031485  1.0000
  C   C23       1.0  0.9813794832705015  0.8910935459521527  0.2926605590575165  1.0000
  C   C24       1.0  0.0186229666468165  0.10890027864396504  0.7073337693166551  1.0000
  C   C25       1.0  0.9000862094468332  0.8622175389101941  0.4275880474611854  1.0000
  C   C26       1.0  0.09992469121378629  0.1377861796052571  0.5724145722055952  1.0000
  N   N1        1.0  0.19142510313417202  0.7151418720017163  0.387514630220501  1.0000
  N   N2        1.0  0.8085597702745491  0.2848443693798046  0.6124831097414473  1.0000
  O   O1        1.0  0.5906256140555827  0.9860114490547432  0.24421618801601144  1.0000
  O   O2        1.0  0.4093690811690465  0.013973032766145414  0.7557956116731646  1.0000
  O   O3        1.0  0.7002825701899342  0.6316525204775518  0.2010890791818056  1.0000
  O   O4        1.0  0.299678268171796  0.36833970326782867  0.7989100811839407  1.0000
  O   O5        1.0  0.4842334507234014  0.7481592946799792  0.09435102102901997  1.0000
  O   O6        1.0  0.515746590210739  0.2518294849387743  0.9056426214093849  1.0000
  O   O7        1.0  0.4465264972683373  0.8135233262928027  0.6119901691846864  1.0000
  O   O8        1.0  0.5534562547713691  0.1864410929063069  0.38801239899839873  1.0000
  O   O9        1.0  0.5814266201173981  0.6257219526634471  0.5460092823482158  1.0000
  O   O10       1.0  0.4186148108383422  0.3742494231311042  0.45399719633256563  1.0000
