data_image0
_chemical_formula_structural       Al4H12C32S8O28
_chemical_formula_sum              "Al4 H12 C32 S8 O28"
_cell_length_a       6.6329898286078635
_cell_length_b       16.849416214428416
_cell_length_c       17.908018871783643
_cell_angle_alpha    89.9270470425096
_cell_angle_beta     89.69982726566641
_cell_angle_gamma    90.75946649431111

_space_group_name_H-M_alt    "P 1"
_space_group_IT_number       1

loop_
  _space_group_symop_operation_xyz
  'x, y, z'

loop_
  _atom_site_type_symbol
  _atom_site_label
  _atom_site_symmetry_multiplicity
  _atom_site_fract_x
  _atom_site_fract_y
  _atom_site_fract_z
  _atom_site_occupancy
  Al  Al1       1.0  0.06212159740439919  0.9955394758285435  0.5008600305515076  1.0000
  Al  Al2       1.0  0.5633486384445447  0.0045610746171363  0.5025160358428595  1.0000
  Al  Al3       1.0  0.9366507431529809  0.49543682950397283  0.9974849262610733  1.0000
  Al  Al4       1.0  0.43787958828583834  0.5044595158501579  0.9991400125275692  1.0000
  H   H1        1.0  0.8321860313192032  0.09924764309118222  0.4715866939191715  1.0000
  H   H2        1.0  0.32838125831837317  0.9028500555926655  0.46834323756151985  1.0000
  H   H3        1.0  0.6678081205865567  0.4007509764625681  0.028419580452187208  1.0000
  H   H4        1.0  0.1716177617629526  0.5971490714535791  0.03165373897651591  1.0000
  H   H5        1.0  0.8246773863425858  0.21526938535809143  0.663318446324965  1.0000
  H   H6        1.0  0.6753189649750126  0.284726731956617  0.8366802862232635  1.0000
  H   H7        1.0  0.327674495865466  0.78035625589483  0.33656342888060925  1.0000
  H   H8        1.0  0.17232302897942733  0.719644053583373  0.16343466520716285  1.0000
  H   H9        1.0  0.17304569084082294  0.7333240654727149  0.6647836023202915  1.0000
  H   H10       1.0  0.32697199462923277  0.7666702201211208  0.8352169859280425  1.0000
  H   H11       1.0  0.833102418898548  0.2180084640997109  0.33926198048588674  1.0000
  H   H12       1.0  0.6668962281470596  0.2819860165357753  0.16073814954146573  1.0000
  C   C1        1.0  0.31773753673213895  0.0998434488924005  0.4034839350652392  1.0000
  C   C2        1.0  0.2979229073977478  0.09410842230489891  0.6006980881923029  1.0000
  C   C3        1.0  0.7946131550061394  0.9042639063026243  0.5992864693738655  1.0000
  C   C4        1.0  0.8124020803863484  0.9025013942484321  0.40195613745326864  1.0000
  C   C5        1.0  0.18226960089751998  0.4001574575918879  0.09651972925569653  1.0000
  C   C6        1.0  0.2020818007550105  0.4058869973248351  0.8993058584650416  1.0000
  C   C7        1.0  0.7053825618060258  0.5957292604149984  0.900710594483613  1.0000
  C   C8        1.0  0.6875840924958608  0.5975007922419948  0.09803674472598803  1.0000
  C   C9        1.0  0.11218307123163379  0.19885572081275882  0.6765822483747927  1.0000
  C   C10       1.0  0.38782479641652395  0.301144460924725  0.823412757631367  1.0000
  C   C11       1.0  0.28338992500845717  0.1558132471940894  0.6582107843643926  1.0000
  C   C12       1.0  0.21661193205282103  0.344188106133238  0.8417842268046771  1.0000
  C   C13       1.0  0.3490730037057829  0.24822940350379244  0.7630369490112728  1.0000
  C   C14       1.0  0.15092595682445156  0.25177728655092585  0.7369541527865524  1.0000
  C   C15       1.0  0.6155834501332365  0.7990328023399157  0.325187161668275  1.0000
  C   C16       1.0  0.8844041702185093  0.7009670119799979  0.17480851262887856  1.0000
  C   C17       1.0  0.7892224619659629  0.8423979278164567  0.34343184876371424  1.0000
  C   C18       1.0  0.710774342432032  0.6576090336314097  0.15656157841589655  1.0000
  C   C19       1.0  0.8487991321524503  0.7525314555188486  0.23631404713785292  1.0000
  C   C20       1.0  0.6511991205716894  0.747471356217453  0.2636777059811167  1.0000
  C   C21       1.0  0.9210875423532481  0.7864672504583582  0.6782216017016226  1.0000
  C   C22       1.0  0.578930777054218  0.713526565530117  0.8217787900486048  1.0000
  C   C23       1.0  0.7822704826978892  0.8438598709760969  0.6577332710676347  1.0000
  C   C24       1.0  0.7177478907231032  0.6561357279012583  0.8422637690492609  1.0000
  C   C25       1.0  0.6533605821022164  0.7609649769077295  0.7617028026829262  1.0000
  C   C26       1.0  0.8466683352605955  0.7390300555181996  0.7382942274467867  1.0000
  C   C27       1.0  0.11933563179241699  0.20064010737617372  0.32674132156581953  1.0000
  C   C28       1.0  0.38065942452459467  0.29935780355285163  0.17325788918744686  1.0000
  C   C29       1.0  0.2942871764713714  0.1595956125538862  0.344712470159216  1.0000
  C   C30       1.0  0.20571541298276935  0.34040290972298953  0.15528896646800663  1.0000
  C   C31       1.0  0.3482166991586837  0.24846619887208723  0.235804354072343  1.0000
  C   C32       1.0  0.15178284837888606  0.25152757275667886  0.26418927075205545  1.0000
  S   S1        1.0  0.4899849411222732  0.1802070085288818  0.7141930837756264  1.0000
  S   S2        1.0  0.0100215368679102  0.3198002913457359  0.7858024775566863  1.0000
  S   S3        1.0  0.993126956134368  0.8207830013551884  0.2849511675816458  1.0000
  S   S4        1.0  0.5068622486197398  0.6792203795552822  0.21504226928875886  1.0000
  S   S5        1.0  0.5601070233095554  0.8389127687685802  0.7104415409951416  1.0000
  S   S6        1.0  0.9399158208789158  0.6610804664396357  0.7895571714470864  1.0000
  S   S7        1.0  0.4952241988855874  0.18276183658350934  0.2846995660905805  1.0000
  S   S8        1.0  0.0047738423930284  0.31723430148595366  0.21529964284292197  1.0000
  O   O1        1.0  0.15542490381019286  0.08043320146572341  0.4371978894319924  1.0000
  O   O2        1.0  0.4697561290083953  0.08434861417998718  0.5695354690107524  1.0000
  O   O3        1.0  0.6336728131349004  0.943374566011187  0.5883404419176304  1.0000
  O   O4        1.0  0.9893864803889231  0.9309481742294498  0.4134500916343385  1.0000
  O   O5        1.0  0.9602443919167171  0.9131165940948094  0.5636186264738399  1.0000
  O   O6        1.0  0.6517996823313581  0.9204471302586371  0.43672559768260305  1.0000
  O   O7        1.0  0.49372342559319526  0.07301767343842162  0.41638318835256893  1.0000
  O   O8        1.0  0.1366350363032041  0.055861595169922416  0.5865061138158582  1.0000
  O   O9        1.0  0.8178383834631046  0.0492916535244987  0.49830280961712264  1.0000
  O   O10       1.0  0.3156299138677952  0.9510397924755408  0.49761987564559723  1.0000
  O   O11       1.0  0.006276191392593902  0.42698380799868124  0.08361936616299911  1.0000
  O   O12       1.0  0.36335454764248704  0.4441308184932282  0.9134972911420436  1.0000
  O   O13       1.0  0.5397573270296049  0.5868712524185398  0.9363695002445103  1.0000
  O   O14       1.0  0.848192536290142  0.5795568507755816  0.06326951109006271  1.0000
  O   O15       1.0  0.8663228419463991  0.5566138543578205  0.911653832910929  1.0000
  O   O16       1.0  0.5106147713820235  0.569053458561598  0.08654110086888522  1.0000
  O   O17       1.0  0.3445671666886127  0.41956825986391527  0.06280578931957592  1.0000
  O   O18       1.0  0.0302424849028213  0.41564263601269863  0.93046736940682  1.0000
  O   O19       1.0  0.6821557903664585  0.450707560707535  0.001701789127992  1.0000
  O   O20       1.0  0.1843736349138254  0.5489587541724246  0.002374863169308101  1.0000
  O   O21       1.0  0.9395314790652803  0.1913494632763317  0.6376293278334588  1.0000
  O   O22       1.0  0.5604663541388958  0.30864606284680474  0.8623716372750041  1.0000
  O   O23       1.0  0.4399109424721316  0.8058059535829472  0.3631512750180051  1.0000
  O   O24       1.0  0.060085102813509615  0.69419553985518  0.1368457029589578  1.0000
  O   O25       1.0  0.10171252066229639  0.7781572283122883  0.6435350109687051  1.0000
  O   O26       1.0  0.3983081920249986  0.7218370661649088  0.8564638990719404  1.0000
  O   O27       1.0  0.9447419131986832  0.19276139411568494  0.3654526722708199  1.0000
  O   O28       1.0  0.5552583111460621  0.30723783750107697  0.13454912847403486  1.0000
