data_image0
_chemical_formula_structural       Cd4H16C16N16O24
_chemical_formula_sum              "Cd4 H16 C16 N16 O24"
_cell_length_a       7.177674671582258
_cell_length_b       9.444452950029481
_cell_length_c       12.729040927631461
_cell_angle_alpha    90.00028520806113
_cell_angle_beta     92.6863068624304
_cell_angle_gamma    89.99999528122603

_space_group_name_H-M_alt    "P 1"
_space_group_IT_number       1

loop_
  _space_group_symop_operation_xyz
  'x, y, z'

loop_
  _atom_site_type_symbol
  _atom_site_label
  _atom_site_symmetry_multiplicity
  _atom_site_fract_x
  _atom_site_fract_y
  _atom_site_fract_z
  _atom_site_occupancy
  Cd  Cd1       1.0  0.858318346007394  0.9399699981194515  0.717542602438819  1.0000
  Cd  Cd2       1.0  0.6416801121765587  0.43996878927997335  0.7824565597220571  1.0000
  Cd  Cd3       1.0  0.14168155327673296  0.0600287684542025  0.2824562223752666  1.0000
  Cd  Cd4       1.0  0.3583211818111707  0.5600299772937446  0.21754229615624612  1.0000
  H   H1        1.0  0.7895158938947303  0.8768961672176872  0.4690004310567917  1.0000
  H   H2        1.0  0.7104850179621494  0.3768964496939304  0.030998916244108415  1.0000
  H   H3        1.0  0.21048122627014013  0.12310259935846801  0.5309991174845123  1.0000
  H   H4        1.0  0.28951768101732256  0.6231044345276329  0.9690007565580105  1.0000
  H   H5        1.0  0.45295703025278294  0.08681405311441638  0.6766371872093232  1.0000
  H   H6        1.0  0.0470418803885551  0.5868159873123134  0.8233633380165772  1.0000
  H   H7        1.0  0.5470428793194841  0.9131868311070193  0.32336242346435284  1.0000
  H   H8        1.0  0.9529608391666852  0.41318383809192477  0.17663790649488936  1.0000
  H   H9        1.0  0.20820933940364486  0.8835819103438144  0.8816716706961929  1.0000
  H   H10       1.0  0.291779813579602  0.38358383083586733  0.6183258091536816  1.0000
  H   H11       1.0  0.7917891857528616  0.11641791505761029  0.11832869476694441  1.0000
  H   H12       1.0  0.7082103330674769  0.6164170533851205  0.381673584070434  1.0000
  H   H13       1.0  0.6957507156187361  0.07546642937924021  0.9289916758961925  1.0000
  H   H14       1.0  0.8042449349473201  0.575459249863421  0.5710100006738018  1.0000
  H   H15       1.0  0.3042450098424395  0.9245312783742746  0.07100784157891842  1.0000
  H   H16       1.0  0.19575079051374897  0.42453739906751753  0.4289895167993479  1.0000
  C   C1        1.0  0.6596694953635802  0.931434051962654  0.4832940443338814  1.0000
  C   C2        1.0  0.8403328319057976  0.4314321137808007  0.0167063222813795  1.0000
  C   C3        1.0  0.3403304244967273  0.06856789108398688  0.5167063521974173  1.0000
  C   C4        1.0  0.15967128235304529  0.5685677116235012  0.9832949532943122  1.0000
  C   C5        1.0  0.4752246471717286  0.04835099958395969  0.5976638179421132  1.0000
  C   C6        1.0  0.0247756508233934  0.5483502865940793  0.9023365956007015  1.0000
  C   C7        1.0  0.5247752418247771  0.9516509434547943  0.40233422102220845  1.0000
  C   C8        1.0  0.9752270481560785  0.45165059762748433  0.09766307720141042  1.0000
  C   C9        1.0  0.11390198154740717  0.9343791034566064  0.9347183109858366  1.0000
  C   C10       1.0  0.3860913858287772  0.4343796050592486  0.5652810222816955  1.0000
  C   C11       1.0  0.8860965333212646  0.06562178076476502  0.0652812686236146  1.0000
  C   C12       1.0  0.6139029552169363  0.5656202203419766  0.43471924998877415  1.0000
  C   C13       1.0  0.8320959301239768  0.0413671490123306  0.9602819149153067  1.0000
  C   C14       1.0  0.6678997036386889  0.5413629445845984  0.5397188492568008  1.0000
  C   C15       1.0  0.16789979533759686  0.9586347940314822  0.039717602567662914  1.0000
  C   C16       1.0  0.3320932324154882  0.4586368808139411  0.4602806060937966  1.0000
  N   N1        1.0  0.15726935392890337  0.7855965361314715  0.619719899195694  1.0000
  N   N2        1.0  0.34273375823063645  0.2855949109594178  0.8802798852177748  1.0000
  N   N3        1.0  0.8427333553385025  0.21440434809271378  0.38028055946207945  1.0000
  N   N4        1.0  0.6572703457402653  0.7144049144422553  0.11972060450225543  1.0000
  N   N5        1.0  0.5777849303603588  0.7502832847821282  0.8025743057658092  1.0000
  N   N6        1.0  0.9222162912732941  0.25028360898144797  0.6974250004250069  1.0000
  N   N7        1.0  0.42221497921180867  0.24971654061673126  0.19742530490589877  1.0000
  N   N8        1.0  0.07778640770607838  0.749716216417539  0.30257467237514396  1.0000
  N   N9        1.0  0.6349312193631818  0.9799750408001274  0.580801897892606  1.0000
  N   N10       1.0  0.8650700461602129  0.47997473336912566  0.919198260719  1.0000
  N   N11       1.0  0.3650700643367202  0.020024784593538004  0.4191961721320114  1.0000
  N   N12       1.0  0.13493266310719318  0.5200261508550597  0.08080219793877322  1.0000
  N   N13       1.0  0.9458375705211849  0.9757534989373795  0.8953450514782805  1.0000
  N   N14       1.0  0.554156720677355  0.4757511063665306  0.6046549361415432  1.0000
  N   N15       1.0  0.0541609340596523  0.0242484441039394  0.10465374227747765  1.0000
  N   N16       1.0  0.4458376203683514  0.5242487190346949  0.3953453361289264  1.0000
  O   O1        1.0  0.15975255688103826  0.8480620765424831  0.7102457158461564  1.0000
  O   O2        1.0  0.34024500897601934  0.3480609051011356  0.7897557478419517  1.0000
  O   O3        1.0  0.8402459785634094  0.15193774886156325  0.2897554354726425  1.0000
  O   O4        1.0  0.6597549211720234  0.6519389203029747  0.21024543454106495  1.0000
  O   O5        1.0  0.0010010048941780025  0.7752590860463116  0.5689375295303523  1.0000
  O   O6        1.0  0.49900209500206216  0.2752567326032249  0.9310614306622188  1.0000
  O   O7        1.0  0.9990002993817909  0.22474285699775715  0.4310621122095102  1.0000
  O   O8        1.0  0.5010047880881032  0.724743092795947  0.0689383353305999  1.0000
  O   O9        1.0  0.3044926076569752  0.7398425749056443  0.5850633692603255  1.0000
  O   O10       1.0  0.195510526623778  0.23984224871999515  0.9149386029224335  1.0000
  O   O11       1.0  0.6955087274825047  0.2601561916785826  0.41493863004060944  1.0000
  O   O12       1.0  0.8044963976182372  0.7601586355122621  0.08506430649497793  1.0000
  O   O13       1.0  0.7268102159036189  0.7125858636930928  0.7557155094299619  1.0000
  O   O14       1.0  0.7731868349917691  0.21258545091663453  0.7442851353771262  1.0000
  O   O15       1.0  0.273188298964854  0.2874129028831264  0.24428407017556006  1.0000
  O   O16       1.0  0.22681306429236509  0.7874133156570265  0.25571368943695927  1.0000
  O   O17       1.0  0.5451665264059145  0.8787576857615775  0.8160828012470065  1.0000
  O   O18       1.0  0.954833325073281  0.3787589765975953  0.6839169506699395  1.0000
  O   O19       1.0  0.45483477786974896  0.12124108081476946  0.18391684048695822  1.0000
  O   O20       1.0  0.0451721941770913  0.6212408488094  0.31608514182563147  1.0000
  O   O21       1.0  0.47094237587690907  0.6539570050318985  0.8327939960719919  1.0000
  O   O22       1.0  0.0290551426023882  0.1539560909298245  0.6672059614067152  1.0000
  O   O23       1.0  0.5290561492796967  0.34604387919210217  0.16720636939311362  1.0000
  O   O24       1.0  0.9709475563768848  0.8460426756465864  0.3327937113914744  1.0000
