data_image0
_chemical_formula_structural       Zn2H6C30N2Cl6O12
_chemical_formula_sum              "Zn2 H6 C30 N2 Cl6 O12"
_cell_length_a       12.118248159086244
_cell_length_b       13.110498370333216
_cell_length_c       14.346065561077332
_cell_angle_alpha    89.50323989093806
_cell_angle_beta     89.62055944635458
_cell_angle_gamma    83.57228452941017

_space_group_name_H-M_alt    "P 1"
_space_group_IT_number       1

loop_
  _space_group_symop_operation_xyz
  'x, y, z'

loop_
  _atom_site_type_symbol
  _atom_site_label
  _atom_site_symmetry_multiplicity
  _atom_site_fract_x
  _atom_site_fract_y
  _atom_site_fract_z
  _atom_site_occupancy
  Zn  Zn1       1.0  0.6211321689449179  0.4862740965819087  0.5057047475105632  1.0000
  Zn  Zn2       1.0  0.37888332209014647  0.5137735011537786  0.4941556029114762  1.0000
  H   H1        1.0  0.45337754238428113  0.008765424555214502  0.6907461442438387  1.0000
  H   H2        1.0  0.5466397850436948  0.9912500171700176  0.3092141974833281  1.0000
  H   H3        1.0  0.742855372508032  0.6392844269751308  0.4291790518609985  1.0000
  H   H4        1.0  0.2571400514000004  0.36125923907983554  0.5717698737904228  1.0000
  H   H5        1.0  0.5474669332432711  0.31472006005338227  0.2247554493248883  1.0000
  H   H6        1.0  0.4519601451811184  0.6853380104364252  0.7751257460726533  1.0000
  C   C1        1.0  0.4883814953313958  0.6952764400435074  0.5294191110765921  1.0000
  C   C2        1.0  0.8724877226363501  0.439448893752335  0.5368015272875579  1.0000
  C   C3        1.0  0.012528120144096986  0.54642481111285  0.4758127800543049  1.0000
  C   C4        1.0  0.987486039669058  0.45358237747824154  0.5243778038304823  1.0000
  C   C5        1.0  0.5139464587764095  0.5258379749406785  0.3208595903849839  1.0000
  C   C6        1.0  0.486431045721254  0.47415526034983213  0.6790164265452245  1.0000
  C   C7        1.0  0.5168707206775522  0.5232708799534508  0.22006054703714276  1.0000
  C   C8        1.0  0.4833072940157236  0.4766980392756964  0.7798232506341447  1.0000
  C   C9        1.0  0.5119667356058882  0.514973963940463  0.13503176360749336  1.0000
  C   C10       1.0  0.48816046347167225  0.48505997664506856  0.8648462932238911  1.0000
  C   C11       1.0  0.5044441847837858  0.5052091587576087  0.042392194647270294  1.0000
  C   C12       1.0  0.5113270940725698  0.3047650592492346  0.47045696137806187  1.0000
  C   C13       1.0  0.495635270244108  0.4948299776869123  0.9574806678764174  1.0000
  C   C14       1.0  0.5103908192055399  0.18996981723298498  0.4624849184569227  1.0000
  C   C15       1.0  0.4894111820349492  0.8100667050318723  0.5374398827806031  1.0000
  C   C16       1.0  0.46935001758173206  0.9699854466258845  0.6244528395991437  1.0000
  C   C17       1.0  0.5305575665513586  0.03004361536108041  0.3754695301393624  1.0000
  C   C18       1.0  0.4692563175649481  0.8644380886809628  0.6226539032965872  1.0000
  C   C19       1.0  0.5306405591729515  0.13558346359407383  0.37730296223195825  1.0000
  C   C20       1.0  0.508884226381454  0.8649342794592133  0.4571382884867601  1.0000
  C   C21       1.0  0.490889362547314  0.13511102585271573  0.5427773358731114  1.0000
  C   C22       1.0  0.552914668047805  0.18533101250894657  0.285796810499569  1.0000
  C   C23       1.0  0.5101090498596434  0.973584911626084  0.4565913426625341  1.0000
  C   C24       1.0  0.4470030969118993  0.8147079173494803  0.7141775063805437  1.0000
  C   C25       1.0  0.489700482260389  0.0264422969341851  0.5432985152584704  1.0000
  C   C26       1.0  0.07957359596250059  0.3844367104164022  0.5562980708887435  1.0000
  C   C27       1.0  0.9204740818276774  0.6157580600648984  0.44424117118424516  1.0000
  C   C28       1.0  0.1859246967442445  0.4109409148486877  0.545661982224473  1.0000
  C   C29       1.0  0.8140885570400086  0.5893769707973321  0.4549472217537909  1.0000
  C   C30       1.0  0.1275040951358406  0.5603989755878658  0.46311095626516857  1.0000
  N   N1        1.0  0.7914703438060895  0.5035343310484779  0.5002905524446744  1.0000
  N   N2        1.0  0.20852133545550797  0.49651374587674013  0.49986876744577546  1.0000
  Cl  Cl1       1.0  0.4682282023471273  0.200292394376696  0.6469687926721901  1.0000
  Cl  Cl2       1.0  0.5314709755978342  0.7997339252504575  0.35296064904913027  1.0000
  Cl  Cl3       1.0  0.8275352735307138  0.3431865516935133  0.6025502247697643  1.0000
  Cl  Cl4       1.0  0.17238602081262394  0.6560700037151012  0.3965982391605606  1.0000
  Cl  Cl5       1.0  0.07257288140007735  0.26545419552870453  0.6053101320353987  1.0000
  Cl  Cl6       1.0  0.927599082670021  0.7349769799973842  0.395812159491875  1.0000
  O   O1        1.0  0.5824337841658433  0.6423233292515678  0.5280178475036974  1.0000
  O   O2        1.0  0.5288837716553871  0.2888768296666556  0.2866139883981304  1.0000
  O   O3        1.0  0.4126031429767636  0.861954692881355  0.7834847340235809  1.0000
  O   O4        1.0  0.47047212324146404  0.7111054659733613  0.7132355194610651  1.0000
  O   O5        1.0  0.41726731165180553  0.3576608260566162  0.47194057114888455  1.0000
  O   O6        1.0  0.3938131295736155  0.6638389597000514  0.5210670106080142  1.0000
  O   O7        1.0  0.6058842476483262  0.33629381964390614  0.4786849757084538  1.0000
  O   O8        1.0  0.6066427558716397  0.5165803046484996  0.3627500488849974  1.0000
  O   O9        1.0  0.3938088791519759  0.48350852182591103  0.6370318813938168  1.0000
  O   O10       1.0  0.41708870519963875  0.5354429989077262  0.3565718760075639  1.0000
  O   O11       1.0  0.5833329791884978  0.46452827150654513  0.643391167892126  1.0000
  O   O12       1.0  0.5877693760010203  0.13815523035891894  0.21658541362496203  1.0000
