data_image0
_chemical_formula_structural       K4Si4B4H76C28N4
_chemical_formula_sum              "K4 Si4 B4 H76 C28 N4"
_cell_length_a       5.982202506082849
_cell_length_b       11.389190621426774
_cell_length_c       15.572056455860501
_cell_angle_alpha    90.00093578857089
_cell_angle_beta     90.00061507369841
_cell_angle_gamma    90.00034085382416

_space_group_name_H-M_alt    "P 1"
_space_group_IT_number       1

loop_
  _space_group_symop_operation_xyz
  'x, y, z'

loop_
  _atom_site_type_symbol
  _atom_site_label
  _atom_site_symmetry_multiplicity
  _atom_site_fract_x
  _atom_site_fract_y
  _atom_site_fract_z
  _atom_site_occupancy
  K   K1        1.0  0.4572843033363512  0.19546277463401646  0.585659275288215  1.0000
  K   K2        1.0  0.04269527763313621  0.8045340457894453  0.0856558030012167  1.0000
  K   K3        1.0  0.5427509544667117  0.6954379800664084  0.9143402855862135  1.0000
  K   K4        1.0  0.9572698877606882  0.30454242373518536  0.41434742213139225  1.0000
  Si  Si1       1.0  0.877049257214921  0.03278877392828859  0.7142276881254119  1.0000
  Si  Si2       1.0  0.6229294238013381  0.9672205951445958  0.2142161586561429  1.0000
  Si  Si3       1.0  0.12291759696172731  0.5327806973820514  0.7857711837481318  1.0000
  Si  Si4       1.0  0.3770824141700899  0.4672275468338184  0.2857813339298545  1.0000
  B   B1        1.0  0.9178676188959828  0.1024538794909944  0.541062861719233  1.0000
  B   B2        1.0  0.5821400597891113  0.8975411464742251  0.0410625642261309  1.0000
  B   B3        1.0  0.08215171460634  0.6024362910891484  0.9589387817910406  1.0000
  B   B4        1.0  0.41788282062677246  0.3975608336946691  0.4589398627766457  1.0000
  H   H1        1.0  0.6047674035650772  0.9249496348720497  0.5205582009477113  1.0000
  H   H2        1.0  0.8952228358716923  0.0750625007895565  0.0205585116884919  1.0000
  H   H3        1.0  0.39524996506089854  0.42492403294181014  0.9794229519256277  1.0000
  H   H4        1.0  0.10478194963636871  0.575065640185109  0.4794457828770007  1.0000
  H   H5        1.0  0.774790723347671  0.13201174380871813  0.48608228793502656  1.0000
  H   H6        1.0  0.7252326486268288  0.8679851634808812  0.9860733045847425  1.0000
  H   H7        1.0  0.22524636157976372  0.6319954289246253  0.013920128692248597  1.0000
  H   H8        1.0  0.2747992262432462  0.36799542439237587  0.5139225697316476  1.0000
  H   H9        1.0  0.6571976400870698  0.8519895230634588  0.618742686460429  1.0000
  H   H10       1.0  0.8427893752182032  0.14801511284830576  0.1187411539248799  1.0000
  H   H11       1.0  0.3427772478195053  0.3519782541098096  0.8812356548498884  1.0000
  H   H12       1.0  0.1572261301538234  0.6480259429062443  0.38126531002196634  1.0000
  H   H13       1.0  0.8682963021648007  0.7590733178771741  0.500939120912058  1.0000
  H   H14       1.0  0.6316681707982924  0.2409199477893793  0.0009310089648906  1.0000
  H   H15       1.0  0.13170445258107583  0.25904718783596786  0.9990265340416186  1.0000
  H   H16       1.0  0.36830307944286733  0.74093325821579  0.4990740132268954  1.0000
  H   H17       1.0  0.9820674489230826  0.19461458240446913  0.5768673957958441  1.0000
  H   H18       1.0  0.5179582085121411  0.8053785965910762  0.0768600053590092  1.0000
  H   H19       1.0  0.0179427267411398  0.6945994853633195  0.9231443561529318  1.0000
  H   H20       1.0  0.4820755013854594  0.3053986083818145  0.42313359755436136  1.0000
  H   H21       1.0  0.0575379918358578  0.8237559144098655  0.5746420964463042  1.0000
  H   H22       1.0  0.4424395289130914  0.1762432978206832  0.0746335035754555  1.0000
  H   H23       1.0  0.9424583602606234  0.3237539439847267  0.9253403976911158  1.0000
  H   H24       1.0  0.5575545123505635  0.676260944900946  0.42537201845593126  1.0000
  H   H25       1.0  0.9002686211668446  0.933830137030604  0.4055905880558441  1.0000
  H   H26       1.0  0.599728509543347  0.0661579764437903  0.9055836974222585  1.0000
  H   H27       1.0  0.0997713182429862  0.43379411676825436  0.09439815097530162  1.0000
  H   H28       1.0  0.40028546595662806  0.5661765554168099  0.5944187903562721  1.0000
  H   H29       1.0  0.16292978331345154  0.8668294740167679  0.42125237293547  1.0000
  H   H30       1.0  0.33703822929066973  0.1331501395304926  0.9212438064695333  1.0000
  H   H31       1.0  0.8370961496163432  0.3668063297116502  0.0787477547301521  1.0000
  H   H32       1.0  0.6629529772053644  0.6331745985470077  0.5787620626758425  1.0000
  H   H33       1.0  0.19277321249989396  0.08547478023648838  0.4358803001419388  1.0000
  H   H34       1.0  0.3072304200717824  0.9145016428685578  0.9358721307966531  1.0000
  H   H35       1.0  0.8072968649946761  0.5854572976272364  0.0641363220489879  1.0000
  H   H36       1.0  0.6927801637202222  0.4145276992782953  0.564123023508877  1.0000
  H   H37       1.0  0.258818795622858  0.011499673747607596  0.5320669908675839  1.0000
  H   H38       1.0  0.2411889845970947  0.9884792860276121  0.0320631432982523  1.0000
  H   H39       1.0  0.7412030211043615  0.5114890723066169  0.9679489615729153  1.0000
  H   H40       1.0  0.7588297412503237  0.4885118265186748  0.4679442399754166  1.0000
  H   H41       1.0  0.5922494800440248  0.1778992754784312  0.7706728313241769  1.0000
  H   H42       1.0  0.9076994306753363  0.8221007982317232  0.2706674722289577  1.0000
  H   H43       1.0  0.40769200092469055  0.677917335445329  0.7293322961933342  1.0000
  H   H44       1.0  0.09230267660932873  0.32210635037507973  0.2293353238638502  1.0000
  H   H45       1.0  0.8163067953212604  0.2497408828366828  0.715689861841362  1.0000
  H   H46       1.0  0.6836485345183476  0.7502562260255984  0.215682307119117  1.0000
  H   H47       1.0  0.18363536520854498  0.7497479217536306  0.7843199901552182  1.0000
  H   H48       1.0  0.3163579080337798  0.2502664365735825  0.28431640660364366  1.0000
  H   H49       1.0  0.8532730518450578  0.19672166129634405  0.8212305701678559  1.0000
  H   H50       1.0  0.6466776417457966  0.8032812799397249  0.3212229039458379  1.0000
  H   H51       1.0  0.1466719504016538  0.6967323915253586  0.6787760699912155  1.0000
  H   H52       1.0  0.35332094416914833  0.30328579264317307  0.1787738842578506  1.0000
  H   H53       1.0  0.7993385578745061  0.9161689176815456  0.845694049012451  1.0000
  H   H54       1.0  0.7006531176212931  0.0838450978541658  0.34569515842710524  1.0000
  H   H55       1.0  0.20062356430190684  0.41616443433274947  0.6542947034999074  1.0000
  H   H56       1.0  0.29936679562553087  0.583844431579493  0.15431245355711096  1.0000
  H   H57       1.0  0.8308583529811528  0.8226573833331726  0.7550882841742917  1.0000
  H   H58       1.0  0.6691284556744675  0.1773493720968203  0.2550891476108745  1.0000
  H   H59       1.0  0.16911625758721974  0.3226459969149573  0.7448961230748026  1.0000
  H   H60       1.0  0.33087729743864003  0.6773622268208824  0.2449183143545497  1.0000
  H   H61       1.0  0.575499875943663  0.9008970680466957  0.7708749812597658  1.0000
  H   H62       1.0  0.9244824743950772  0.09909949806942822  0.2708698931655178  1.0000
  H   H63       1.0  0.42446711660652875  0.4008924102350446  0.7291110172969013  1.0000
  H   H64       1.0  0.07552755337913201  0.5991058082145954  0.2291353351888148  1.0000
  H   H65       1.0  0.2818795029172207  0.9793445677241904  0.687913584826191  1.0000
  H   H66       1.0  0.21809031092100636  0.0206790852929188  0.187897926641817  1.0000
  H   H67       1.0  0.718086560411571  0.4793111939634612  0.8121022630955749  1.0000
  H   H68       1.0  0.7819156317974958  0.5206906687515768  0.3121031395638028  1.0000
  H   H69       1.0  0.2559794401342473  0.12277317927289032  0.733549078449421  1.0000
  H   H70       1.0  0.2439903116076962  0.8772585013391629  0.2335432477821584  1.0000
  H   H71       1.0  0.743974892159379  0.622735329744131  0.7664566643820903  1.0000
  H   H72       1.0  0.7560307053297992  0.3772707976616587  0.266460859658018  1.0000
  H   H73       1.0  0.2271358320460166  0.998697372662832  0.7990948238333857  1.0000
  H   H74       1.0  0.2728228580414651  0.0013480411885283  0.2990797397978326  1.0000
  H   H75       1.0  0.7727986533811942  0.4986468273904379  0.70092125869931  1.0000
  H   H76       1.0  0.7272079761619279  0.5013438108055795  0.20092301837840407  1.0000
  C   C1        1.0  0.7348540662541369  0.9089325953208628  0.5699769512719328  1.0000
  C   C2        1.0  0.7651429306959656  0.09106745640354319  0.0699751337806447  1.0000
  C   C3        1.0  0.2651397482591591  0.4089133356812198  0.9300104290654757  1.0000
  C   C4        1.0  0.23487203598001832  0.5910787631413966  0.4300287128253117  1.0000
  C   C5        1.0  0.9280343431215812  0.8436512684889051  0.526208705902114  1.0000
  C   C6        1.0  0.5719594386367532  0.15634430884842487  0.0262025970811166  1.0000
  C   C7        1.0  0.07197724176938891  0.34364017014119236  0.973775313899651  1.0000
  C   C8        1.0  0.42803775754002527  0.6563546469468662  0.4737981882904236  1.0000
  C   C9        1.0  0.030512814977314  0.9170219223754542  0.4540561072486327  1.0000
  C   C10       1.0  0.4694847721768483  0.0829654366573607  0.9540518302684049  1.0000
  C   C11       1.0  0.9695135925498731  0.4170011728512363  0.0459343544868958  1.0000
  C   C12       1.0  0.5305310339620206  0.582979034065758  0.5459540722487191  1.0000
  C   C13       1.0  0.1177430151056882  0.0341563935448548  0.48913231456334927  1.0000
  C   C14       1.0  0.38226082384655774  0.9658176882541694  0.9891301335060376  1.0000
  C   C15       1.0  0.8822964875463059  0.5341406472124888  0.0108734102483865  1.0000
  C   C16       1.0  0.6177502455131645  0.4658466909301922  0.5108746337810075  1.0000
  C   C17       1.0  0.7734434084583556  0.17712330506843443  0.7592449393260381  1.0000
  C   C18       1.0  0.7265050992543252  0.8228773954217062  0.2592390381548881  1.0000
  C   C19       1.0  0.22649472180357585  0.677128664339918  0.740756967816573  1.0000
  C   C20       1.0  0.2735020302188076  0.3228856143848375  0.2407611986786478  1.0000
  C   C21       1.0  0.7580799226510563  0.9058776311138885  0.7772463168301728  1.0000
  C   C22       1.0  0.7418959659947433  0.0941260993233115  0.277246392224221  1.0000
  C   C23       1.0  0.2418854454274708  0.4058748027448614  0.722741668680676  1.0000
  C   C24       1.0  0.2581173580170599  0.5941364460019044  0.2227594180047205  1.0000
  C   C25       1.0  0.1894851304205289  0.032882573915735194  0.7346581120635776  1.0000
  C   C26       1.0  0.3104763021894499  0.9671508870364388  0.2346452259293912  1.0000
  C   C27       1.0  0.8104666800801539  0.5328423080181324  0.7653529620725622  1.0000
  C   C28       1.0  0.6895338635705672  0.4671541368358873  0.2653574031935193  1.0000
  N   N1        1.0  0.8013260484826291  0.0217348778381705  0.6075126345721882  1.0000
  N   N2        1.0  0.6986706005005773  0.9782712672174866  0.1075078914371375  1.0000
  N   N3        1.0  0.19868750653625258  0.5217241548930145  0.8924809658573095  1.0000
  N   N4        1.0  0.3013430136941508  0.4782811672285092  0.3924929461015765  1.0000
