data_image0
_chemical_formula_structural       Cu4H40C32N8O16
_chemical_formula_sum              "Cu4 H40 C32 N8 O16"
_cell_length_a       4.843478349687965
_cell_length_b       12.74699429239467
_cell_length_c       16.26507107428796
_cell_angle_alpha    89.99545729884093
_cell_angle_beta     90.00198555952976
_cell_angle_gamma    95.725999851941

_space_group_name_H-M_alt    "P 1"
_space_group_IT_number       1

loop_
  _space_group_symop_operation_xyz
  'x, y, z'

loop_
  _atom_site_type_symbol
  _atom_site_label
  _atom_site_symmetry_multiplicity
  _atom_site_fract_x
  _atom_site_fract_y
  _atom_site_fract_z
  _atom_site_occupancy
  Cu  Cu1       1.0  0.47051823203507576  0.6721892073839089  0.7726046561410911  1.0000
  Cu  Cu2       1.0  0.029482039026014272  0.8277555455428924  0.2725923733842137  1.0000
  Cu  Cu3       1.0  0.5294848387754882  0.32774061270325916  0.2273927070248263  1.0000
  Cu  Cu4       1.0  0.9705053123573321  0.17221607533937802  0.7273988402589708  1.0000
  H   H1        1.0  0.35717842434918606  0.5523396634462756  0.9883326470833181  1.0000
  H   H2        1.0  0.14282338486991367  0.9477172807140448  0.4882722697836073  1.0000
  H   H3        1.0  0.6428899145125226  0.44769578627492007  0.0116936094133422  1.0000
  H   H4        1.0  0.8572773516548934  0.0523157898846236  0.511694349955434  1.0000
  H   H5        1.0  0.13672786287256145  0.6337663106171123  0.9386735040758225  1.0000
  H   H6        1.0  0.36325844589693196  0.8662931266608923  0.4386142935119395  1.0000
  H   H7        1.0  0.8632756769173184  0.3662739013448899  0.0613902556199335  1.0000
  H   H8        1.0  0.6367684573899268  0.1337573319039507  0.5612969920125508  1.0000
  H   H9        1.0  0.6470518374769156  0.6892191243413706  0.07375041445300211  1.0000
  H   H10       1.0  0.8528381071579217  0.8108754047290107  0.5737282905730083  1.0000
  H   H11       1.0  0.35284297474957066  0.3108858055380566  0.926258624194034  1.0000
  H   H12       1.0  0.14708266783161858  0.18921847407733594  0.42624754857224906  1.0000
  H   H13       1.0  0.989623505921031  0.8492804768166521  0.07237616127615351  1.0000
  H   H14       1.0  0.5103793017193965  0.6507810085403848  0.572397976782554  1.0000
  H   H15       1.0  0.010332086586395004  0.1507968252494791  0.9275953748613404  1.0000
  H   H16       1.0  0.48966747716317366  0.3492820517280321  0.42761229357167  1.0000
  H   H17       1.0  0.08172347990747414  0.9466199385590602  0.9385196396967785  1.0000
  H   H18       1.0  0.41846955214655407  0.5533629150406724  0.4385775688619945  1.0000
  H   H19       1.0  0.9183849604288665  0.0533800105492617  0.06142607742055621  1.0000
  H   H20       1.0  0.581790506218134  0.4466093536974683  0.5614640609385761  1.0000
  H   H21       1.0  0.8344607703051136  0.8759779790861869  0.8114822831324491  1.0000
  H   H22       1.0  0.6658362598655285  0.6239196383589416  0.311544921179852  1.0000
  H   H23       1.0  0.1657439089150259  0.12393360516966817  0.1884591335210928  1.0000
  H   H24       1.0  0.3345165383293177  0.37596663252460155  0.6885004006527778  1.0000
  H   H25       1.0  0.8959986435214375  0.5354530896092555  0.6444542478407627  1.0000
  H   H26       1.0  0.6040089997453464  0.9645248639586798  0.144480345093811  1.0000
  H   H27       1.0  0.10400517641861035  0.4645571644235105  0.3554730239887149  1.0000
  H   H28       1.0  0.39602247691644266  0.0354341165354981  0.855539765444931  1.0000
  H   H29       1.0  0.11111063844528252  0.8101675086744962  0.6946173160791105  1.0000
  H   H30       1.0  0.3888058223609861  0.6898148672464546  0.19464802297719794  1.0000
  H   H31       1.0  0.8888287371056477  0.18983331189895133  0.3053849630709068  1.0000
  H   H32       1.0  0.6111239074972586  0.3101496817926161  0.8054292646074259  1.0000
  H   H33       1.0  0.1976853970007042  0.5080446903599309  0.8436956579189143  1.0000
  H   H34       1.0  0.3020641254616976  0.991981564300339  0.3436249399216963  1.0000
  H   H35       1.0  0.802049499617624  0.4919790991496882  0.1563539601801125  1.0000
  H   H36       1.0  0.6976310811829902  0.008079311248344802  0.6563299954038513  1.0000
  H   H37       1.0  0.5436715554660125  0.5105134500220886  0.8567289587971345  1.0000
  H   H38       1.0  0.9560656052604696  0.9894715080626995  0.3566618168660583  1.0000
  H   H39       1.0  0.4560284332752644  0.48945673699947184  0.1433120533862038  1.0000
  H   H40       1.0  0.04362086944156119  0.010525498721548803  0.6433257055618429  1.0000
  C   C1        1.0  0.3453605255959076  0.6065491628095927  0.9362438265461961  1.0000
  C   C2        1.0  0.15460047971860993  0.8934860788751845  0.43620661191815197  1.0000
  C   C3        1.0  0.6546212865693447  0.3934792341931443  0.0637768963968313  1.0000
  C   C4        1.0  0.845399909222962  0.10654231129450409  0.5637612370813019  1.0000
  C   C5        1.0  0.5578240262426064  0.700129690228856  0.9440692102321651  1.0000
  C   C6        1.0  0.9421787534983465  0.7998915452617297  0.444060427210971  1.0000
  C   C7        1.0  0.44218189457276935  0.299888444668305  0.055928765019992  1.0000
  C   C8        1.0  0.05788042060678578  0.20012498601822407  0.5559283261475444  1.0000
  C   C9        1.0  0.6893355164064018  0.7333720093876508  0.0170590677770903  1.0000
  C   C10       1.0  0.8106136932892197  0.7666909653241093  0.517055239864888  1.0000
  C   C11       1.0  0.3106072383149012  0.2666958354949927  0.9829376759790238  1.0000
  C   C12       1.0  0.18938395985966133  0.23337369770067076  0.4829390450134881  1.0000
  C   C13       1.0  0.881774505750357  0.8225946166944383  0.0160293123951405  1.0000
  C   C14       1.0  0.6182389252862137  0.6774463459419239  0.5160468865038439  1.0000
  C   C15       1.0  0.11819235776187038  0.17746296593241345  0.9839477577421293  1.0000
  C   C16       1.0  0.3818304616615862  0.32259304672007966  0.4839633847011698  1.0000
  C   C17       1.0  0.9356383904381786  0.8760819740527099  0.9419857629638102  1.0000
  C   C18       1.0  0.564492896660326  0.6239110100313354  0.44202646393862477  1.0000
  C   C19       1.0  0.06442403868996388  0.12392351748327711  0.05797347966274911  1.0000
  C   C20       1.0  0.4356991039202356  0.3760770646272463  0.5580016391056903  1.0000
  C   C21       1.0  0.8000679855507115  0.8378304058595916  0.8710145410731513  1.0000
  C   C22       1.0  0.7001583495307954  0.6621166306197493  0.37105855993437586  1.0000
  C   C23       1.0  0.20008630060134175  0.16212457291111093  0.12893978507721468  1.0000
  C   C24       1.0  0.3001339756530824  0.3378217150996434  0.6289732340544419  1.0000
  C   C25       1.0  0.02390657867726281  0.5855006651777259  0.6888679545430635  1.0000
  C   C26       1.0  0.4760730733905234  0.914465681793864  0.18888314114166602  1.0000
  C   C27       1.0  0.9760722709160417  0.41446228750418623  0.3110943630487242  1.0000
  C   C28       1.0  0.5239221506890033  0.08551224178264498  0.811141272324008  1.0000
  C   C29       1.0  0.3207818182898521  0.8482327893961427  0.6786455587512779  1.0000
  C   C30       1.0  0.17916431942499136  0.651744036624656  0.17863959449420014  1.0000
  C   C31       1.0  0.6791987789886917  0.15175223825799122  0.32138254330531174  1.0000
  C   C32       1.0  0.8207988904212371  0.3482299605768943  0.8213829744862835  1.0000
  N   N1        1.0  0.3775306905903477  0.5563155720937445  0.8558345900135578  1.0000
  N   N2        1.0  0.12227250249024738  0.9436897554037459  0.3557785555560499  1.0000
  N   N3        1.0  0.6222602624051914  0.44368611089380744  0.14419535499803263  1.0000
  N   N4        1.0  0.8774958396238117  0.05633559819453641  0.644189907164062  1.0000
  N   N5        1.0  0.6168802492735067  0.7515940139765009  0.8724789248633089  1.0000
  N   N6        1.0  0.8832967074033317  0.7483607912660092  0.3724942552025681  1.0000
  N   N7        1.0  0.38324989503164625  0.2483633414439623  0.1274999936658787  1.0000
  N   N8        1.0  0.11693270376543549  0.2515894155859471  0.6275135603339381  1.0000
  O   O1        1.0  0.2873954379289216  0.58376517910677  0.6812628736401152  1.0000
  O   O2        1.0  0.21258166210107993  0.9162027013634386  0.18126234322283355  1.0000
  O   O3        1.0  0.7125767996060403  0.4161961992793692  0.3187111254404229  1.0000
  O   O4        1.0  0.7874156923049398  0.0837909925290248  0.818749158661447  1.0000
  O   O5        1.0  0.9094574364202328  0.6381833341163486  0.7414436321421647  1.0000
  O   O6        1.0  0.5904754697244385  0.8617812398469195  0.24147843179057565  1.0000
  O   O7        1.0  0.09047876817504628  0.3617512522322243  0.25853036758596204  1.0000
  O   O8        1.0  0.40946058517030787  0.13821484874771528  0.7585736474562808  1.0000
  O   O9        1.0  0.5292539606980994  0.8017196805602113  0.7028293360401605  1.0000
  O   O10       1.0  0.9706354538343829  0.6982226679924752  0.2028173205022057  1.0000
  O   O11       1.0  0.47064292237159566  0.1981912684295111  0.29716802716816204  1.0000
  O   O12       1.0  0.029265050042489832  0.301763980606225  0.7971437663237353  1.0000
  O   O13       1.0  0.3415156757373268  0.9331498057421825  0.6386130765147869  1.0000
  O   O14       1.0  0.1585134193571562  0.5668616432752032  0.1385765145425282  1.0000
  O   O15       1.0  0.6585615532163372  0.06688800148441489  0.361486957682871  1.0000
  O   O16       1.0  0.8415519595517222  0.4331083593311504  0.861448514342726  1.0000
