data_image0
_chemical_formula_structural       La4H32C24N4O28
_chemical_formula_sum              "La4 H32 C24 N4 O28"
_cell_length_a       7.037889480039139
_cell_length_b       10.261118251058985
_cell_length_c       12.167016455008438
_cell_angle_alpha    89.9998916945621
_cell_angle_beta     90.00008042968149
_cell_angle_gamma    90.00037338888313

_space_group_name_H-M_alt    "P 1"
_space_group_IT_number       1

loop_
  _space_group_symop_operation_xyz
  'x, y, z'

loop_
  _atom_site_type_symbol
  _atom_site_label
  _atom_site_symmetry_multiplicity
  _atom_site_fract_x
  _atom_site_fract_y
  _atom_site_fract_z
  _atom_site_occupancy
  La  La1       1.0  0.8682208967918328  0.1507408406612214  0.8983379666955644  1.0000
  La  La2       1.0  0.6317819844573905  0.8492563581302051  0.3983404559803533  1.0000
  La  La3       1.0  0.13178906681714148  0.650743509736273  0.6016597714973033  1.0000
  La  La4       1.0  0.3682101781208118  0.3492550414513218  0.10166324957033622  1.0000
  H   H1        1.0  0.5972078655222363  0.7768679881150999  0.8184212991542242  1.0000
  H   H2        1.0  0.9027905589767258  0.2231332880229999  0.3184241844232716  1.0000
  H   H3        1.0  0.4027919286530519  0.2768656723930292  0.6815754160999675  1.0000
  H   H4        1.0  0.09720751041176359  0.723133674206224  0.1815764345895943  1.0000
  H   H5        1.0  0.7334162173408812  0.7278852010643674  0.9310866474953131  1.0000
  H   H6        1.0  0.7665824808455142  0.2721177716217725  0.4310893441919391  1.0000
  H   H7        1.0  0.2665816908474454  0.22788447779427656  0.568910145834501  1.0000
  H   H8        1.0  0.23342173718734927  0.7721160959225769  0.0689128405330592  1.0000
  H   H9        1.0  0.6130356661625884  0.7964437197121018  0.07643659443183283  1.0000
  H   H10       1.0  0.8869621705123691  0.2035551752143476  0.5764406113218996  1.0000
  H   H11       1.0  0.38696452022796285  0.29644566351126395  0.4235622639368161  1.0000
  H   H12       1.0  0.1130369275566139  0.7035580134025919  0.9235627959406049  1.0000
  H   H13       1.0  0.5162261596323177  0.9526866854637035  0.09652599005820411  1.0000
  H   H14       1.0  0.9837774093664038  0.0473131389968984  0.5965278688485187  1.0000
  H   H15       1.0  0.4837769312442147  0.4526900818473649  0.40347261926206107  1.0000
  H   H16       1.0  0.016225888620795097  0.5473136401036455  0.9034733217819382  1.0000
  H   H17       1.0  0.3348514895614088  0.8931489519338811  0.9279442526756017  1.0000
  H   H18       1.0  0.1651499688565465  0.1068517914964602  0.4279471305172394  1.0000
  H   H19       1.0  0.665149408762666  0.39314805514570855  0.5720530991223711  1.0000
  H   H20       1.0  0.8348555216774755  0.6068537732838309  0.07205449574210832  1.0000
  H   H21       1.0  0.447501924298642  0.9622002882560989  0.8112237633992551  1.0000
  H   H22       1.0  0.05249640883209139  0.0378016913700776  0.3112250161337329  1.0000
  H   H23       1.0  0.5525010505922765  0.4622015496387777  0.6887751221196368  1.0000
  H   H24       1.0  0.9475055842658335  0.5378009916952067  0.18877672019091565  1.0000
  H   H25       1.0  0.6372381289025737  0.4240468359293885  0.8603834038940619  1.0000
  H   H26       1.0  0.862764660166839  0.5759533715987004  0.36038815998492174  1.0000
  H   H27       1.0  0.36276448371501147  0.9240504530014776  0.6396155424387049  1.0000
  H   H28       1.0  0.13723201165298352  0.0759470385465661  0.1396159812115201  1.0000
  H   H29       1.0  0.824267083327335  0.418693155052942  0.7772866949484651  1.0000
  H   H30       1.0  0.67573408301719  0.5813091878529946  0.2772904688894401  1.0000
  H   H31       1.0  0.1757354784368559  0.9186928256830243  0.7227130818152788  1.0000
  H   H32       1.0  0.3242597979016182  0.08130350503162728  0.22271448566245775  1.0000
  C   C1        1.0  0.885879885694621  0.8321774300359978  0.8097446353122992  1.0000
  C   C2        1.0  0.6141213594792134  0.1678219164534482  0.3097473745727584  1.0000
  C   C3        1.0  0.11412185457884048  0.3321806256160754  0.6902544574585932  1.0000
  C   C4        1.0  0.3858776055774769  0.66781967607632  0.19025908586712603  1.0000
  C   C5        1.0  0.7058884091145998  0.8115242329095269  0.8764963583020633  1.0000
  C   C6        1.0  0.7941115773365084  0.18847691304721786  0.3764992106505718  1.0000
  C   C7        1.0  0.2941159767877153  0.31152351040115883  0.6235011236054789  1.0000
  C   C8        1.0  0.2058875838582495  0.6884779154956246  0.12350228549804852  1.0000
  C   C9        1.0  0.6358995261934054  0.9003311033444558  0.05873538597539611  1.0000
  C   C10       1.0  0.864103951003294  0.0996678312764843  0.5587379061265524  1.0000
  C   C11       1.0  0.36410306753430177  0.4003329052087424  0.44126248490558606  1.0000
  C   C12       1.0  0.13589558148655806  0.5996707320197459  0.9412640229422283  1.0000
  C   C13       1.0  0.8107761007789166  0.9437993939459731  0.12332644200055402  1.0000
  C   C14       1.0  0.6892261123897756  0.0561896503550514  0.6233280676910057  1.0000
  C   C15       1.0  0.18922548484635368  0.4438064057586715  0.376673003376574  1.0000
  C   C16       1.0  0.3107758490357568  0.5561973762673204  0.8766714649958021  1.0000
  C   C17       1.0  0.4464647888594726  0.9617655344991504  0.9012951464002372  1.0000
  C   C18       1.0  0.0535380257122213  0.038237217779744995  0.40129639928426303  1.0000
  C   C19       1.0  0.5535367610098517  0.4617640787693488  0.5987037398132316  1.0000
  C   C20       1.0  0.9464653924165491  0.5382396390172205  0.09870533634425985  1.0000
  C   C21       1.0  0.3908773053751062  0.0981012190379928  0.9356008533229173  1.0000
  C   C22       1.0  0.1091199089929447  0.9018985326690582  0.435601596529331  1.0000
  C   C23       1.0  0.6091264748661446  0.598103182949366  0.5643928593036946  1.0000
  C   C24       1.0  0.8908741743394728  0.40190061174257596  0.06439873753205921  1.0000
  N   N1        1.0  0.6371439820852558  0.9247436376052106  0.9393284063793532  1.0000
  N   N2        1.0  0.8628589987624267  0.07525931661572122  0.43933067306922885  1.0000
  N   N3        1.0  0.3628628997692047  0.4247423888619011  0.5606721826367008  1.0000
  N   N4        1.0  0.1371405082610835  0.5752601524294717  0.06067264733478341  1.0000
  O   O1        1.0  0.9771364536096456  0.9395080343484992  0.8159408470002774  1.0000
  O   O2        1.0  0.5228605439711701  0.060491298244272684  0.3159412176312913  1.0000
  O   O3        1.0  0.0228705684422508  0.43950693746090497  0.6840613622698941  1.0000
  O   O4        1.0  0.47712745575765325  0.5604865562422958  0.18406623578334091  1.0000
  O   O5        1.0  0.9354013071507836  0.7359181162999776  0.7521299501692413  1.0000
  O   O6        1.0  0.5645969563110568  0.26408233389039987  0.2521308520314279  1.0000
  O   O7        1.0  0.0646023608484754  0.2359190121340617  0.7478709398281964  1.0000
  O   O8        1.0  0.4354043436428655  0.7640762876563371  0.24787381118674293  1.0000
  O   O9        1.0  0.9265947464533681  0.0227402482799803  0.0770291020563008  1.0000
  O   O10       1.0  0.5734073542744583  0.9772537725689789  0.5770291656382441  1.0000
  O   O11       1.0  0.07341704983155489  0.5227487578770464  0.42296854880175533  1.0000
  O   O12       1.0  0.4265929217982531  0.4772558949396668  0.9229688739897102  1.0000
  O   O13       1.0  0.827764064753893  0.9014072573862181  0.22035930944826285  1.0000
  O   O14       1.0  0.6722440675929704  0.09857084933184271  0.7203624975851144  1.0000
  O   O15       1.0  0.1722271721823319  0.40141538526121684  0.27964184728441677  1.0000
  O   O16       1.0  0.32776540069054505  0.5985837414952684  0.7796386113341288  1.0000
  O   O17       1.0  0.5241094142906206  0.17554040980855487  0.9672084300854709  1.0000
  O   O18       1.0  0.9758808463439835  0.824460532784009  0.4672079504620187  1.0000
  O   O19       1.0  0.47588799683907  0.6755369759043574  0.5327818715295082  1.0000
  O   O20       1.0  0.024105397265131497  0.32445978055623204  0.03279415082155881  1.0000
  O   O21       1.0  0.22019276790801712  0.1317170609419591  0.9316375835698667  1.0000
  O   O22       1.0  0.2798044368128457  0.8682778268831656  0.4316409845066504  1.0000
  O   O23       1.0  0.7798013853845802  0.6317236775684448  0.5683519659952128  1.0000
  O   O24       1.0  0.7201893273217905  0.3682898537519677  0.06835858124329523  1.0000
  O   O25       1.0  0.752354764927226  0.3750943656944584  0.8366759520077168  1.0000
  O   O26       1.0  0.7476394412441111  0.6248990730847268  0.3366854680525151  1.0000
  O   O27       1.0  0.2476488037297813  0.8750954656498281  0.6633206066742475  1.0000
  O   O28       1.0  0.25234490747006083  0.1249039218575163  0.16332188268818731  1.0000
