data_image0
_chemical_formula_structural       Na4H64C40N4O8
_chemical_formula_sum              "Na4 H64 C40 N4 O8"
_cell_length_a       6.904248394
_cell_length_b       12.340701962423749
_cell_length_c       13.1609
_cell_angle_alpha    90.0
_cell_angle_beta     90.0
_cell_angle_gamma    101.11910909987682

_space_group_name_H-M_alt    "P 1"
_space_group_IT_number       1

loop_
  _space_group_symop_operation_xyz
  'x, y, z'

loop_
  _atom_site_type_symbol
  _atom_site_label
  _atom_site_symmetry_multiplicity
  _atom_site_fract_x
  _atom_site_fract_y
  _atom_site_fract_z
  _atom_site_occupancy
  Na  Na1       1.0  0.257939373613354  0.4698726403342022  0.9984370369807537  1.0000
  Na  Na2       1.0  0.7420606721007204  0.0301278864207006  0.4984377968072096  1.0000
  Na  Na3       1.0  0.7420604852043909  0.5301284131756034  0.0015622031927904  1.0000
  Na  Na4       1.0  0.2579417988209372  0.9698723412602988  0.5015622031927904  1.0000
  H   H1        1.0  0.48496360806886674  0.4329473570293203  0.8084272352194759  1.0000
  H   H2        1.0  0.515038765085869  0.0670515180679772  0.3084279950459319  1.0000
  H   H3        1.0  0.5150365354121221  0.5670545223092917  0.19157200495406806  1.0000
  H   H4        1.0  0.48496515421936687  0.9329487096130222  0.691574284433436  1.0000
  H   H5        1.0  0.42355761528789765  0.4135800199222999  0.6235409432485639  1.0000
  H   H6        1.0  0.5764453271933334  0.0864205068326029  0.1235417030750199  1.0000
  H   H7        1.0  0.5764436919134255  0.5864210335875057  0.3764598165778921  1.0000
  H   H8        1.0  0.4235556953447387  0.9135797208483966  0.8764582969249801  1.0000
  H   H9        1.0  0.36606305685146623  0.5724917791535944  0.5195883260263372  1.0000
  H   H10       1.0  0.6339389425106107  0.9275081494535087  0.0195875661998812  1.0000
  H   H11       1.0  0.6339379656866058  0.42750844852740505  0.4804116739736628  1.0000
  H   H12       1.0  0.3660557171666525  0.0724904265698854  0.9804131936265748  1.0000
  H   H13       1.0  0.3754621111152758  0.7553542253530736  0.6052230470560502  1.0000
  H   H14       1.0  0.6245372761428882  0.7446465290828357  0.10522380688250621  1.0000
  H   H15       1.0  0.6245331178884825  0.24464600232793293  0.3947769529439498  1.0000
  H   H16       1.0  0.37545940124444854  0.2553536985981708  0.8947769529439499  1.0000
  H   H17       1.0  0.44178837976291874  0.7768018252168931  0.7887568479359288  1.0000
  H   H18       1.0  0.5582124558788237  0.7231989292190093  0.2887560881094728  1.0000
  H   H19       1.0  0.5582036678104316  0.22319757663530032  0.21124315206407118  1.0000
  H   H20       1.0  0.4417900150428267  0.2768012984619901  0.7112454315434392  1.0000
  H   H21       1.0  0.1812853150130209  0.2223370630217332  0.1032095069486161  1.0000
  H   H22       1.0  0.8187158944213808  0.2776626379043705  0.6032095069486161  1.0000
  H   H23       1.0  0.8187168712453854  0.7776623388304671  0.8967904930513839  1.0000
  H   H24       1.0  0.18128339506986177  0.7223367639478298  0.3967904930513839  1.0000
  H   H25       1.0  0.0404562642582889  0.12219871392899512  0.0188368576617108  1.0000
  H   H26       1.0  0.9595434967925343  0.3778009869971086  0.5188360978352549  1.0000
  H   H27       1.0  0.9595459220001175  0.8778006879232052  0.9811631423382892  1.0000
  H   H28       1.0  0.04045462897838089  0.6221992406838908  0.4811639021647451  1.0000
  H   H29       1.0  0.9159715238263574  0.1978091217196862  0.10531878518946061  1.0000
  H   H30       1.0  0.08403113399162271  0.3021905792064175  0.6053180253630046  1.0000
  H   H31       1.0  0.0840321108156274  0.8021902801325141  0.8946804549840834  1.0000
  H   H32       1.0  0.9159684401628709  0.697809648474589  0.3946804549840834  1.0000
  H   H33       1.0  0.7584325851304499  0.28660801550726944  0.9673388598044212  1.0000
  H   H34       1.0  0.24156805497746356  0.2133900337612218  0.4673388598044212  1.0000
  H   H35       1.0  0.2415693164647124  0.7133905605161247  0.0326603803691228  1.0000
  H   H36       1.0  0.7584326828973645  0.7866093680909785  0.5326603803691228  1.0000
  H   H37       1.0  0.8526212819954678  0.1911719356234443  0.8885083846849399  1.0000
  H   H38       1.0  0.1473796427756895  0.3088269394738532  0.3885083846849398  1.0000
  H   H39       1.0  0.1473840856933464  0.8088282920575622  0.1114916153150602  1.0000
  H   H40       1.0  0.8526210950991382  0.6911724623783471  0.6114916153150602  1.0000
  H   H41       1.0  0.0493716112687608  0.3460883351018893  0.7890281059805915  1.0000
  H   H42       1.0  0.9506293135023969  0.1539105399954082  0.2890273461541355  1.0000
  H   H43       1.0  0.9506320233732242  0.653911066750311  0.2109718940194085  1.0000
  H   H44       1.0  0.049370260652096945  0.8460896876855984  0.7109718940194085  1.0000
  H   H45       1.0  0.7889347545749814  0.3448561985265997  0.7866232552485002  1.0000
  H   H46       1.0  0.2110664548594201  0.1551435023994969  0.2866232552485002  1.0000
  H   H47       1.0  0.21106743168342493  0.6551432033255936  0.2133767447514998  1.0000
  H   H48       1.0  0.7889331192950736  0.8448567252815025  0.7133767447514998  1.0000
  H   H49       1.0  0.0837131181340922  0.5316016917616082  0.737499715065077  1.0000
  H   H50       1.0  0.9162888812279846  0.9683982368454949  0.2374997150650771  1.0000
  H   H51       1.0  0.91628790440398  0.4683985359193983  0.262499525108467  1.0000
  H   H52       1.0  0.08371185664684332  0.0316011650067054  0.762500284934923  1.0000
  H   H53       1.0  0.03659449982657036  0.6290057216849192  0.8296423496873332  1.0000
  H   H54       1.0  0.9634086632558407  0.8709933810933776  0.3296415898608771  1.0000
  H   H55       1.0  0.9634065227115016  0.3709945059960803  0.1703568904862109  1.0000
  H   H56       1.0  0.0365935230025656  0.1290060207588226  0.6703584101391229  1.0000
  H   H57       1.0  0.833188068693417  0.5486071584897161  0.7607230508551837  1.0000
  H   H58       1.0  0.16681537905223826  0.9513927701173801  0.2607230508551837  1.0000
  H   H59       1.0  0.1668126691814109  0.4513922433624771  0.2392769491448163  1.0000
  H   H60       1.0  0.8331870918694122  0.048607457563619505  0.7392777089712723  1.0000
  H   H61       1.0  0.4980573825374606  0.6934137617518914  0.9403543830589102  1.0000
  H   H62       1.0  0.5019431684410379  0.8065861668552118  0.440355142885366  1.0000
  H   H63       1.0  0.5019410278967058  0.3065872917579142  0.059644857114634  1.0000
  H   H64       1.0  0.49805756943379004  0.1934132349969886  0.5596456169410899  1.0000
  C   C1        1.0  0.4680612843111476  0.6069643509111559  0.8157512024253677  1.0000
  C   C2        1.0  0.5319409997141734  0.8930364035247467  0.3157504425989117  1.0000
  C   C3        1.0  0.5319353680088454  0.39304000591386773  0.1842472779217204  1.0000
  C   C4        1.0  0.46805945349741057  0.1069621724986476  0.6842518368804562  1.0000
  C   C5        1.0  0.46218958781997804  0.5042708874994162  0.7639241997127826  1.0000
  C   C6        1.0  0.5378106784952763  0.9957282152788809  0.2639264791921505  1.0000
  C   C7        1.0  0.537808563018281  0.49572521103756634  0.23607807976657824  1.0000
  C   C8        1.0  0.46219091336929813  0.0042736640597312  0.7360720011549375  1.0000
  C   C9        1.0  0.42695267263015785  0.49344922685425274  0.6599799405815716  1.0000
  C   C10       1.0  0.5730502698510733  0.0065512999006501005  0.1599784209286597  1.0000
  C   C11       1.0  0.5730419619797616  0.5065534783131582  0.3400170201126045  1.0000
  C   C12       1.0  0.42695103735025003  0.9934497536091557  0.8400246183771642  1.0000
  C   C13       1.0  0.3947391547151399  0.5826337826932217  0.6006982805127308  1.0000
  C   C14       1.0  0.6052599478797802  0.9173661459138815  0.1006998001656427  1.0000
  C   C15       1.0  0.6052586863925313  0.4173656191589785  0.3993032391401812  1.0000
  C   C16       1.0  0.3947428077051214  0.0826349075959243  0.8992986801814453  1.0000
  C   C17       1.0  0.40230881731764623  0.6846310724233434  0.6490779505960873  1.0000
  C   C18       1.0  0.5976934667076749  0.815369682012559  0.1490741514638074  1.0000
  C   C19       1.0  0.5976864116861123  0.3153691552576561  0.3509197699245519  1.0000
  C   C20       1.0  0.40230698650390206  0.1846288940108352  0.8509288878420165  1.0000
  C   C21       1.0  0.4398039477573477  0.6969491348610148  0.7526065846560642  1.0000
  C   C22       1.0  0.5601948701743211  0.803049967917282  0.2526111436148  1.0000
  C   C23       1.0  0.5601904272566713  0.303048615333573  0.2473964546497598  1.0000
  C   C24       1.0  0.43980555796991183  0.19695273725012902  0.747388096558744  1.0000
  C   C25       1.0  0.04748048352575301  0.2026253553035247  0.0566177085153754  1.0000
  C   C26       1.0  0.9525204412454045  0.2973735197937728  0.5566169486889194  1.0000
  C   C27       1.0  0.9525217027326534  0.7973740465486756  0.9433822914846246  1.0000
  C   C28       1.0  0.04747884824584499  0.7026258820584275  0.44338229148462466  1.0000
  C   C29       1.0  0.8865174973557971  0.2752503919684344  0.920948415381929  1.0000
  C   C30       1.0  0.1134837120786045  0.22474930895766937  0.420947655555473  1.0000
  C   C31       1.0  0.11348613728618767  0.7247490098837659  0.079051584618071  1.0000
  C   C32       1.0  0.8865158620758893  0.7752509187233372  0.579051584618071  1.0000
  C   C33       1.0  0.9214137644253171  0.3576920556242627  0.8353486463691695  1.0000
  C   C34       1.0  0.0785871603458403  0.1423068194730277  0.3353486463691695  1.0000
  C   C35       1.0  0.0785869734495037  0.6423073462279305  0.1646505938043745  1.0000
  C   C36       1.0  0.9214121291454092  0.8576925823791656  0.6646513536308305  1.0000
  C   C37       1.0  0.978559700280407  0.548658359875553  0.7952723597930245  1.0000
  C   C38       1.0  0.02144229908167005  0.951341568731543  0.2952715999665685  1.0000
  C   C39       1.0  0.02143987387409401  0.45134186780544644  0.2047276402069755  1.0000
  C   C40       1.0  0.978558723456402  0.0486586589494564  0.7047284000334314  1.0000
  N   N1        1.0  0.4957626616480296  0.6135685038552481  0.9180322014451932  1.0000
  N   N2        1.0  0.504239053050803  0.8864305989230488  0.4180329612716491  1.0000
  N   N3        1.0  0.5042366278432198  0.38643089799695224  0.0819677985548068  1.0000
  N   N4        1.0  0.4957622541505202  0.11357045458675691  0.5819677985548068  1.0000
  O   O1        1.0  0.9596587161191295  0.4679963572919377  0.8759606105965432  1.0000
  O   O2        1.0  0.040342208652028005  0.0320025178053527  0.3759606105965432  1.0000
  O   O3        1.0  0.04034202175569127  0.5320030445602555  0.124038629577008  1.0000
  O   O4        1.0  0.9596573655024726  0.9679977098756467  0.6240393894034639  1.0000
  O   O5        1.0  0.059088145582563804  0.2889872282910559  0.983393232985584  1.0000
  O   O6        1.0  0.9409116154682594  0.21101247263504772  0.4833932329855841  1.0000
  O   O7        1.0  0.9409143253390866  0.7110129993899507  0.0166067670144159  1.0000
  O   O8        1.0  0.059087958686234315  0.788987755045959  0.5166060071879599  1.0000
