data_image0
_chemical_formula_structural       Zn4H54C82N22
_chemical_formula_sum              "Zn4 H54 C82 N22"
_cell_length_a       18.654589203961837
_cell_length_b       19.21350138845262
_cell_length_c       21.873371482331574
_cell_angle_alpha    111.80290774657797
_cell_angle_beta     105.83166296240675
_cell_angle_gamma    110.93906098076657

_space_group_name_H-M_alt    "P 1"
_space_group_IT_number       1

loop_
  _space_group_symop_operation_xyz
  'x, y, z'

loop_
  _atom_site_type_symbol
  _atom_site_label
  _atom_site_symmetry_multiplicity
  _atom_site_fract_x
  _atom_site_fract_y
  _atom_site_fract_z
  _atom_site_occupancy
  Zn  Zn1       1.0  0.11379449370855352  0.10794156505992449  0.5077564971272537  1.0000
  Zn  Zn2       1.0  0.9234511144493067  0.940729172400296  0.5343238571121347  1.0000
  Zn  Zn3       1.0  0.0015574251964737152  0.8920943842351363  0.4014822025025141  1.0000
  Zn  Zn4       1.0  0.01698021520306271  0.13450646929057086  0.6146754617900143  1.0000
  H   H1        1.0  0.06269316549173  0.15540113253229748  0.3833472059771523  1.0000
  H   H2        1.0  0.015537722349321954  0.7498890461435154  0.6432718957024762  1.0000
  H   H3        1.0  0.014400340188430552  0.6695699416526891  0.7092414462983428  1.0000
  H   H4        1.0  0.7444574597490573  0.8867760893419144  0.3941148204568138  1.0000
  H   H5        1.0  0.042218314826385564  0.5611562102400213  0.7286363093440826  1.0000
  H   H6        1.0  0.22571283419602392  0.4509991521082384  0.5632923981496631  1.0000
  H   H7        1.0  0.25664073700916396  0.557277208843324  0.5218425442048442  1.0000
  H   H8        1.0  0.22900156650237605  0.6658754270785323  0.502671814057763  1.0000
  H   H9        1.0  0.25363639826819906  0.8826427414312047  0.2967386752512553  1.0000
  H   H10       1.0  0.4046658891216595  0.1523522052019857  0.4759230929034004  1.0000
  H   H11       1.0  0.5588076516110334  0.2421585555559957  0.5137001524216201  1.0000
  H   H12       1.0  0.9438037293028857  0.8042213576870765  0.5846311889858528  1.0000
  H   H13       1.0  0.6944399718292046  0.24811608157357057  0.5163485054558805  1.0000
  H   H14       1.0  0.7682750762091641  0.1669772119284616  0.4866315993438164  1.0000
  H   H15       1.0  0.8831645561712378  0.6747994501178454  0.24701082298082622  1.0000
  H   H16       1.0  0.6229968529167706  0.895868891517992  0.31067222780784937  1.0000
  H   H17       1.0  0.46081932568986866  0.8212996286938148  0.23756401923996145  1.0000
  H   H18       1.0  0.3255030390205817  0.816307134122418  0.23333232799214434  1.0000
  H   H19       1.0  0.7698496536162054  0.5316557063336733  0.1509052503409834  1.0000
  H   H20       1.0  0.6463116108307079  0.38422524712677847  0.047499895242659004  1.0000
  H   H21       1.0  0.4815113536107276  0.18349580900199666  0.8478223162528166  1.0000
  H   H22       1.0  0.3546780164888687  0.09749052715196878  0.7213900475409574  1.0000
  H   H23       1.0  0.14788919535099143  0.8663099681870248  0.34880065476013294  1.0000
  H   H24       1.0  0.6023883972991301  0.570518699307975  0.24532995484329242  1.0000
  H   H25       1.0  0.3194603032567399  0.2210532929596738  0.9477767817599697  1.0000
  H   H26       1.0  0.09176602320528103  0.3380642579593456  0.6947702129785753  1.0000
  H   H27       1.0  0.19305209180964766  0.13635438945286182  0.8232147842884389  1.0000
  H   H28       1.0  0.0712273550093983  0.19882786457815627  0.8932248253623172  1.0000
  H   H29       1.0  0.1109596905837904  0.14605343585534314  0.1745449320371506  1.0000
  H   H30       1.0  0.09842941150770912  0.14794465792829206  0.2850329448589477  1.0000
  H   H31       1.0  0.9188522169946295  0.9176776053845258  0.7786069274107064  1.0000
  H   H32       1.0  0.9064848132097227  0.8769099927673096  0.03566683004347503  1.0000
  H   H33       1.0  0.9594050298741906  0.928205898805018  0.9010865075476673  1.0000
  H   H34       1.0  0.02171092750984372  0.19207506322051418  0.7802528522192063  1.0000
  H   H35       1.0  0.8908053787844991  0.878445075434456  0.14557224113310246  1.0000
  H   H36       1.0  0.7012386105052784  0.710864106076002  0.3242539840119534  1.0000
  H   H37       1.0  0.19057788280536414  0.30693043763149325  0.5351260222181011  1.0000
  H   H38       1.0  0.8931580178016815  0.16915643055895657  0.5050689134667508  1.0000
  H   H39       1.0  0.9129947303458011  0.8724411657727912  0.2544233529641745  1.0000
  H   H40       1.0  0.2567655707118631  0.10287958588430259  0.6183329279091723  1.0000
  H   H41       1.0  0.0882752789956029  0.4530032717731273  0.6934351289566294  1.0000
  H   H42       1.0  0.4162595001972064  0.35623038980867955  0.09333212620575897  1.0000
  H   H43       1.0  0.3691934164289846  0.42402438415744104  0.17223782218256642  1.0000
  H   H44       1.0  0.44479279765651114  0.5212136022829837  0.18163499159427945  1.0000
  H   H45       1.0  0.8917464015811728  0.9101643965131315  0.6678036972818618  1.0000
  H   H46       1.0  0.47598040251367013  0.49043100574792925  0.24749763572694408  1.0000
  H   H47       1.0  0.14629032656723948  0.27648745773326056  0.015134903814093513  1.0000
  H   H48       1.0  0.20851487954253403  0.2118865985450213  0.10279749339070321  1.0000
  H   H49       1.0  0.1392311116462537  0.2442568026690211  0.130348364921872  1.0000
  H   H50       1.0  0.2307257128371063  0.3208299288609595  0.13227084499767028  1.0000
  H   H51       1.0  0.2882159525583744  0.14869632963679894  0.48168110462688674  1.0000
  H   H52       1.0  0.07566613287147557  0.0484726773113522  0.7061456052515425  1.0000
  H   H53       1.0  0.11467092677681033  0.8378143304841926  0.4845428823538143  1.0000
  H   H54       1.0  0.14987593202415184  0.7457748935101448  0.5106620701733107  1.0000
  C   C1        1.0  0.027293693343047206  0.0858187680927287  0.3621862306658201  1.0000
  C   C2        1.0  0.24345036398108985  0.0788381101388893  0.45261462472633696  1.0000
  C   C3        1.0  0.1093123363668767  0.05976973918132699  0.674405783070398  1.0000
  C   C4        1.0  0.7920411024360519  0.9561601700020574  0.42836353681887834  1.0000
  C   C5        1.0  0.06709992470988636  0.8360515296302538  0.5044613086483524  1.0000
  C   C6        1.0  0.1951774615883011  0.08304069039476049  0.6911711463696548  1.0000
  C   C7        1.0  0.04501207827121341  0.8013307538677239  0.5475494542449014  1.0000
  C   C8        1.0  0.24797223420365094  0.009130122243220698  0.405169454406888  1.0000
  C   C9        1.0  0.9649309302471422  0.053584702037405  0.7557850140536004  1.0000
  C   C10       1.0  0.13000138822684457  0.7265555724677596  0.5471072393086018  1.0000
  C   C11       1.0  0.07758812056091818  0.7529831812613139  0.5729644499501915  1.0000
  C   C12       1.0  0.7845624261607895  0.027732770087546  0.43155084373591995  1.0000
  C   C13       1.0  0.0540971977492931  0.7281621457844949  0.6206419734997369  1.0000
  C   C14       1.0  0.07666514542980717  0.673532279864453  0.6386341665288029  1.0000
  C   C15       1.0  0.12559056422637851  0.6428883932550208  0.6083775434000459  1.0000
  C   C16       1.0  0.8486810174702059  0.6975143591999708  0.2743975709689225  1.0000
  C   C17       1.0  0.15463986922326  0.6723193886824814  0.5638453722658808  1.0000
  C   C18       1.0  0.0494292220012796  0.6440568631713077  0.6841952400179352  1.0000
  C   C19       1.0  0.06490045799417038  0.5841594104199288  0.6950100547969528  1.0000
  C   C20       1.0  0.10902141866166912  0.5482181209577133  0.6611831940662114  1.0000
  C   C21       1.0  0.14164391096959159  0.5806018735793897  0.6195186120177497  1.0000
  C   C22       1.0  0.1867206763651978  0.5465984216193359  0.5860652812242079  1.0000
  C   C23       1.0  0.7624063705307051  0.6520700430200108  0.2609344704032779  1.0000
  C   C24       1.0  0.22000327250559357  0.5813815311715873  0.5455686694173566  1.0000
  C   C25       1.0  0.20468706876373943  0.6414941850129309  0.534953422361987  1.0000
  C   C26       1.0  0.11692526306644888  0.4796076063760566  0.664163379979641  1.0000
  C   C27       1.0  0.1557474768841161  0.441607395069866  0.6270520954202254  1.0000
  C   C28       1.0  0.11364009704770694  0.31738057048411855  0.6537931571387716  1.0000
  C   C29       1.0  0.1931952185790989  0.4780360367230541  0.5908069712627934  1.0000
  C   C30       1.0  0.31548133932683703  0.9443859133897092  0.33367993891843645  1.0000
  C   C31       1.0  0.3203778997058606  0.015853331929029896  0.38894638386680913  1.0000
  C   C32       1.0  0.3996601885054431  0.09578853243190369  0.43315532034517185  1.0000
  C   C33       1.0  0.4748873411179345  0.1042080314828127  0.4277787908690485  1.0000
  C   C34       1.0  0.14898227668657432  0.36065049118067793  0.6206789386392018  1.0000
  C   C35       1.0  0.47119112498538124  0.0291122970088793  0.3761201771368405  1.0000
  C   C36       1.0  0.38953000808135835  0.9493298867072323  0.32662665989234807  1.0000
  C   C37       1.0  0.5570908100722533  0.18431858824007458  0.47620822407780145  1.0000
  C   C38       1.0  0.6318295020350816  0.18757907353721487  0.4776809218116398  1.0000
  C   C39       1.0  0.6306808344302084  0.11076182698874253  0.43134871595975705  1.0000
  C   C40       1.0  0.7568373829222069  0.7166890015356272  0.314770064364403  1.0000
  C   C41       1.0  0.54896750559503  0.032258547988590194  0.37806807806583004  1.0000
  C   C42       1.0  0.5469351475781252  0.9554483702801374  0.3313689426475861  1.0000
  C   C43       1.0  0.4633431395841683  0.878816219414574  0.27656907585500795  1.0000
  C   C44       1.0  0.38823731912702913  0.8759817698235252  0.27423416758200864  1.0000
  C   C45       1.0  0.20132681655591256  0.08630715589571737  0.6291026411811842  1.0000
  C   C46       1.0  0.7068146680491407  0.1081821194360941  0.4418564534385681  1.0000
  C   C47       1.0  0.7053252924923328  0.030402626895892102  0.40239979836444933  1.0000
  C   C48       1.0  0.6253376483948118  0.9559899187312055  0.3443105590733354  1.0000
  C   C49       1.0  0.26517859072102806  0.11398489955870161  0.762584756387497  1.0000
  C   C50       1.0  0.2559724353937085  0.1455509536001927  0.8278558891386112  1.0000
  C   C51       1.0  0.3265001785417566  0.1931827325849653  0.8979664786448466  1.0000
  C   C52       1.0  0.16395615720565368  0.30130755127851944  0.5725795228796784  1.0000
  C   C53       1.0  0.40977826868370215  0.2112815206241194  0.905617545388239  1.0000
  C   C54       1.0  0.4173976766306565  0.17176698413291552  0.8410937812202806  1.0000
  C   C55       1.0  0.34640228252827393  0.12438057821152879  0.7707657994228327  1.0000
  C   C56       1.0  0.9801097567437365  0.8189202690019997  0.5554740049915167  1.0000
  C   C57       1.0  0.638450765715028  0.42530933438272456  0.09215624378931864  1.0000
  C   C58       1.0  0.7065118047313063  0.5074021116758799  0.14939532954870322  1.0000
  C   C59       1.0  0.5548232501682903  0.393393230794672  0.08711298103207812  1.0000
  C   C60       1.0  0.6939446656675797  0.5625132782048395  0.20470515219080457  1.0000
  C   C61       1.0  0.6123317369736725  0.52949614017394  0.20249212946595924  1.0000
  C   C62       1.0  0.542576293859014  0.4457037124654875  0.14546875154091055  1.0000
  C   C63       1.0  0.9920872443155483  0.014023726187630791  0.22356601422094963  1.0000
  C   C64       1.0  0.8679570480241521  0.10026351788766867  0.48526300823900204  1.0000
  C   C65       1.0  0.9393477918598735  0.9373392024903922  0.1525023255709216  1.0000
  C   C66       1.0  0.9477131793097514  0.9358368323149832  0.09096850367798504  1.0000
  C   C67       1.0  0.17168899454220116  0.9350963384065307  0.384646148436488  1.0000
  C   C68       1.0  0.007907754032004301  0.0113857715290919  0.0975959065023702  1.0000
  C   C69       1.0  0.06256664969773598  0.08805036956128019  0.1687545067203686  1.0000
  C   C70       1.0  0.0545035899036819  0.0887403616122526  0.2300894563923066  1.0000
  C   C71       1.0  0.07197280622254708  0.14596296766321604  0.964468677074926  1.0000
  C   C72       1.0  0.0454552972512019  0.1386316693978031  0.894147595738339  1.0000
  C   C73       1.0  0.036126779668968816  0.06763855173559821  0.9660521071096824  1.0000
  C   C74       1.0  0.9895496971539754  0.05864134641122119  0.8273655340605969  1.0000
  C   C75       1.0  0.9604842830591452  0.9813442772823534  0.8300560143313761  1.0000
  C   C76       1.0  0.9501131679650641  0.9417396125357198  0.29623612116988346  1.0000
  C   C77       1.0  0.983434411692052  0.9866365131136519  0.8977075572687883  1.0000
  C   C78       1.0  0.9868347885581483  0.12199937924371079  0.7416296537754475  1.0000
  C   C79       1.0  0.9872430061901553  0.014465419033960803  0.28913978470961155  1.0000
  C   C80       1.0  0.4374575219515009  0.4649384152464222  0.18801102861699096  1.0000
  C   C81       1.0  0.17893199772367302  0.25203426380317495  0.10172140224610621  1.0000
  C   C82       1.0  0.920653946663137  0.9783747105114954  0.6841194976593884  1.0000
  N   N1        1.0  0.016508261922467706  0.05715483688613431  0.40867475241487483  1.0000
  N   N2        1.0  0.47986387624343513  0.32008085950348436  0.025836553227051817  1.0000
  N   N3        1.0  0.0043383788554578  0.0035218266821602  0.0303860719530746  1.0000
  N   N4        1.0  0.8726984491087749  0.9850443908193539  0.478126620921664  1.0000
  N   N5        1.0  0.0480876758551361  0.07528007042817109  0.034640823149857204  1.0000
  N   N6        1.0  0.8884422287989082  0.7807801917698498  0.3308571280374864  1.0000
  N   N7        1.0  0.10747827003668681  0.23878662675162587  0.6271308441869934  1.0000
  N   N8        1.0  0.8316880757347603  0.7930669671244528  0.3564065815860857  1.0000
  N   N9        1.0  0.13857576466948976  0.22855150316419776  0.5761822805421843  1.0000
  N   N10       1.0  0.919487066382274  0.0740088964628285  0.5131669547130925  1.0000
  N   N11       1.0  0.9693758966097831  0.9678417153290365  0.3678868015158088  1.0000
  N   N12       1.0  0.9646282339554942  0.8593618231180072  0.5189372996605854  1.0000
  N   N13       1.0  0.12555329499862466  0.0684578940693612  0.5808819684043272  1.0000
  N   N14       1.0  0.4627568221867121  0.4124319862053199  0.1425600223199552  1.0000
  N   N15       1.0  0.12865686943488444  0.22806806569319346  0.0261795271388081  1.0000
  N   N16       1.0  0.12616336172284565  0.9592490633023941  0.4176154640799368  1.0000
  N   N17       1.0  0.9594202076592281  0.09004547769182379  0.6681350122292146  1.0000
  N   N18       1.0  0.9183202250043863  0.00030272767551760364  0.6321696417848202  1.0000
  N   N19       1.0  0.17119875581145289  0.048824105219679816  0.45967385383042375  1.0000
  N   N20       1.0  0.06769080124519888  0.05227367761767709  0.6083760989591838  1.0000
  N   N21       1.0  0.01905258400111629  0.8706422600684646  0.48792652093916195  1.0000
  N   N22       1.0  0.48822390813106853  0.2731305167229293  0.9717895916854644  1.0000
