data_image0
_chemical_formula_structural       Tl4H16C28Br4N16
_chemical_formula_sum              "Tl4 H16 C28 Br4 N16"
_cell_length_a       4.0899294485183875
_cell_length_b       12.927734213975146
_cell_length_c       18.234801239046178
_cell_angle_alpha    107.00694920949465
_cell_angle_beta     96.42804204185161
_cell_angle_gamma    90.00653341741558

_space_group_name_H-M_alt    "P 1"
_space_group_IT_number       1

loop_
  _space_group_symop_operation_xyz
  'x, y, z'

loop_
  _atom_site_type_symbol
  _atom_site_label
  _atom_site_symmetry_multiplicity
  _atom_site_fract_x
  _atom_site_fract_y
  _atom_site_fract_z
  _atom_site_occupancy
  Tl  Tl1       1.0  0.06441291820014781  0.906761239238598  0.07323627003420799  1.0000
  Tl  Tl2       1.0  0.9896637119416598  0.5932060219148098  0.9266939345507337  1.0000
  Tl  Tl3       1.0  0.9355696855571268  0.09324069720756256  0.9267638400095849  1.0000
  Tl  Tl4       1.0  0.010330922658759789  0.40679347302823016  0.07330487985615969  1.0000
  H   H1        1.0  0.0888787858444857  0.23860104289980905  0.3067619395571839  1.0000
  H   H2        1.0  0.7788438152138327  0.26106527916443406  0.6929575545753719  1.0000
  H   H3        1.0  0.9111457295475988  0.7614017202231053  0.6932393416655742  1.0000
  H   H4        1.0  0.22113609828837608  0.7389349910932805  0.3070394159384192  1.0000
  H   H5        1.0  0.3141566427507456  0.39428270286811784  0.4176729039722673  1.0000
  H   H6        1.0  0.8936949516827397  0.10529373564960307  0.5821560506003038  1.0000
  H   H7        1.0  0.6858483518279288  0.6057216707632873  0.5823282302558397  1.0000
  H   H8        1.0  0.10630690086406246  0.8947041436843503  0.4178426144497393  1.0000
  H   H9        1.0  0.7659529124474814  0.6128471883028083  0.3148750289863926  1.0000
  H   H10       1.0  0.4490441117419124  0.8868559300192015  0.6852445236052062  1.0000
  H   H11       1.0  0.23404442558957333  0.38715398212844576  0.6851274755688905  1.0000
  H   H12       1.0  0.5509649587512727  0.11314033370567236  0.3147539920880007  1.0000
  H   H13       1.0  0.5377209804621331  0.4598083239362579  0.2071450237703729  1.0000
  H   H14       1.0  0.32777546007323377  0.03999993618814558  0.7928131768666304  1.0000
  H   H15       1.0  0.4622615649738364  0.5401920682386602  0.7928591640527998  1.0000
  H   H16       1.0  0.6721917147642245  0.9599962636958208  0.20718157813951169  1.0000
  C   C1        1.0  0.679226566819878  0.24686993768997909  0.18146205820843156  1.0000
  C   C2        1.0  0.495607734056918  0.2529388093340969  0.8184307525482524  1.0000
  C   C3        1.0  0.32077596438787037  0.7531336813852361  0.81854215687585  1.0000
  C   C4        1.0  0.5043745713133418  0.7470606619087972  0.18156666427036328  1.0000
  C   C5        1.0  0.8022491616806987  0.3374989486269085  0.24813502311278765  1.0000
  C   C6        1.0  0.5513943508182776  0.16225301623036603  0.7517521568546499  1.0000
  C   C7        1.0  0.19774579766986733  0.6625030301189481  0.7518675857560665  1.0000
  C   C8        1.0  0.44859041512538766  0.837746456032647  0.24824531923425744  1.0000
  C   C9        1.0  0.017837463414807086  0.32061882491790766  0.3088941816456341  1.0000
  C   C10       1.0  0.7060820932752281  0.17905629148098964  0.6909344530803949  1.0000
  C   C11       1.0  0.9821745034494996  0.679381505100245  0.6911063124740123  1.0000
  C   C12       1.0  0.2939025088945968  0.8209415621125798  0.3090626958407725  1.0000
  C   C13       1.0  0.1444467445446307  0.4075795619803058  0.37112493161616555  1.0000
  C   C14       1.0  0.7707468740494647  0.09204092934501057  0.6287723136262072  1.0000
  C   C15       1.0  0.8555604226044762  0.5924216032316563  0.628877259401925  1.0000
  C   C16       1.0  0.229254841086636  0.9079553499190566  0.37122712549287934  1.0000
  C   C17       1.0  0.05525026769046091  0.5122626657987367  0.372302308158325  1.0000
  C   C18       1.0  0.680824406889883  0.9873662338702043  0.6277019262381741  1.0000
  C   C19       1.0  0.9447620239239924  0.4877401480222331  0.6277019804232822  1.0000
  C   C20       1.0  0.3191920716866505  0.012630051514577193  0.37229786850271296  1.0000
  C   C21       1.0  0.8390249725753877  0.5313111067079388  0.31327767150386876  1.0000
  C   C22       1.0  0.5235505574819684  0.9683829601527802  0.6867635394162759  1.0000
  C   C23       1.0  0.1609798817950647  0.468690913317502  0.686727376919755  1.0000
  C   C24       1.0  0.4764536869328851  0.031614120166345586  0.3132355719385912  1.0000
  C   C25       1.0  0.7125514187244021  0.4436992050992714  0.2517954649615035  1.0000
  C   C26       1.0  0.45815838464515934  0.056062331747078496  0.7481693471907676  1.0000
  C   C27       1.0  0.2874461226311881  0.556303611900759  0.7482090186166984  1.0000
  C   C28       1.0  0.5418263944800685  0.9439371498157095  0.2518286795165351  1.0000
  Br  Br1       1.0  0.23667403064551001  0.6329081644182178  0.4547997769325889  1.0000
  Br  Br2       1.0  0.7807382312757201  0.8666741684596172  0.5453268038976872  1.0000
  Br  Br3       1.0  0.7633549700956621  0.3670905354717745  0.5451997036746334  1.0000
  Br  Br4       1.0  0.2193053371738785  0.13332139320996106  0.4546778841797591  1.0000
  N   N1        1.0  0.4941805908716433  0.2576121062421208  0.11761699318429919  1.0000
  N   N2        1.0  0.374978709300791  0.2423024082394959  0.8823746679974815  1.0000
  N   N3        1.0  0.5058242926594616  0.7423906859189341  0.8823860163496277  1.0000
  N   N4        1.0  0.6250083534424393  0.7576954463741924  0.11762254019398449  1.0000
  N   N5        1.0  0.4464903063561537  0.15703272245804803  0.06897868623584459  1.0000
  N   N6        1.0  0.37663337170211975  0.34290704382975423  0.9310010372314322  1.0000
  N   N7        1.0  0.5535121721253304  0.8429708594180664  0.9310233263748768  1.0000
  N   N8        1.0  0.6233659939081377  0.6570908158845297  0.06899646731152836  1.0000
  N   N9        1.0  0.5963036979270201  0.08804513052445627  0.1023424570668467  1.0000
  N   N10       1.0  0.4930687584739104  0.4118008250582575  0.8975481143955903  1.0000
  N   N11       1.0  0.40370113287782056  0.911957624437498  0.897658349993513  1.0000
  N   N12       1.0  0.5069256596264111  0.5881970140162378  0.10244817036998907  1.0000
  N   N13       1.0  0.7445569667207367  0.14186876168074747  0.17273346182630428  1.0000
  N   N14       1.0  0.5702043026771122  0.3578900284536245  0.8270981194554636  1.0000
  N   N15       1.0  0.2554478085603193  0.8581332025460422  0.827268282886969  1.0000
  N   N16       1.0  0.4297827337029858  0.6421078075605136  0.17289798749921909  1.0000
