data_image0
_chemical_formula_structural       Cu2H12C12N10
_chemical_formula_sum              "Cu2 H12 C12 N10"
_cell_length_a       5.334312218763308
_cell_length_b       7.509184670398845
_cell_length_c       10.663346175009108
_cell_angle_alpha    89.99812480180195
_cell_angle_beta     89.99930533632421
_cell_angle_gamma    89.94328642371273

_space_group_name_H-M_alt    "P 1"
_space_group_IT_number       1

loop_
  _space_group_symop_operation_xyz
  'x, y, z'

loop_
  _atom_site_type_symbol
  _atom_site_label
  _atom_site_symmetry_multiplicity
  _atom_site_fract_x
  _atom_site_fract_y
  _atom_site_fract_z
  _atom_site_occupancy
  Cu  Cu1       1.0  0.36692137945603776  0.7499075279186583  0.7500078809726604  1.0000
  Cu  Cu2       1.0  0.6330707426912666  0.2501222694157476  0.24999574933649177  1.0000
  H   H1        1.0  0.5731199027554722  0.750160374354543  0.9791097245684812  1.0000
  H   H2        1.0  0.5731373345068747  0.7501112318298977  0.5209055254168788  1.0000
  H   H3        1.0  0.4268590799736173  0.24988673776776685  0.020883589589921307  1.0000
  H   H4        1.0  0.4267611774885722  0.24979739789478828  0.47911123432871255  1.0000
  H   H5        1.0  0.7426358845170709  0.8692836300032809  0.09747263070558891  1.0000
  H   H6        1.0  0.742683596692153  0.6307329437730474  0.40254818246945234  1.0000
  H   H7        1.0  0.2573507441852456  0.3692621387828011  0.9025529248925893  1.0000
  H   H8        1.0  0.25733469789736313  0.13072361485335188  0.5974419637969959  1.0000
  H   H9        1.0  0.2573730730523777  0.130782120195839  0.9025281859633553  1.0000
  H   H10       1.0  0.2573593247697019  0.36911972812259813  0.5974226283896016  1.0000
  H   H11       1.0  0.7426357374405014  0.6307836399953787  0.0974535184820056  1.0000
  H   H12       1.0  0.7426612389191333  0.8692449240319674  0.4025279069305938  1.0000
  C   C1        1.0  0.6838127669980736  0.39973400589353497  0.7500025163191709  1.0000
  C   C2        1.0  0.6837855297271673  0.09964542729500177  0.7499964716384896  1.0000
  C   C3        1.0  0.31624598522661523  0.9003603921054335  0.25000059504718314  1.0000
  C   C4        1.0  0.3161812363719747  0.6002891325233861  0.2500039274881943  1.0000
  C   C5        1.0  0.7427832257541382  0.7500413237393602  0.0377951271946131  1.0000
  C   C6        1.0  0.7427780691843607  0.749993848906648  0.46220036888620103  1.0000
  C   C7        1.0  0.25719012655525825  0.2500111160357434  0.9622103781003519  1.0000
  C   C8        1.0  0.25717855595524236  0.24991876562656756  0.5377816933549724  1.0000
  C   C9        1.0  0.9609414027834262  0.7498668408591344  0.9581023226984444  1.0000
  C   C10       1.0  0.9609609458152376  0.7498475827093782  0.54188306794115  1.0000
  C   C11       1.0  0.039050712641966384  0.2501696150074153  0.04190036972390491  1.0000
  C   C12       1.0  0.0390968578055819  0.2501142852599543  0.45813088001112595  1.0000
  N   N1        1.0  0.8056350169010145  0.24959092552955292  0.7499970653009741  1.0000
  N   N2        1.0  0.19436085654102445  0.7504375395304235  0.2499990627468023  1.0000
  N   N3        1.0  0.5835670367381597  0.5396175899786398  0.7500065547825373  1.0000
  N   N4        1.0  0.583360872152312  0.959954984988208  0.7499986931294346  1.0000
  N   N5        1.0  0.4166875214305179  0.040044172711077394  0.2499993116909778  1.0000
  N   N6        1.0  0.41645505550961553  0.4604361723945161  0.24999613783387536  1.0000
  N   N7        1.0  0.1359051106222324  0.7498604971179288  0.8926735875807736  1.0000
  N   N8        1.0  0.1359119431465388  0.7498229405132835  0.6073288237376674  1.0000
  N   N9        1.0  0.8640644997962497  0.25018528497876247  0.10732441541852471  1.0000
  N   N10       1.0  0.8641364774776861  0.2501469191029955  0.392703879801637  1.0000
