data_image0
_chemical_formula_structural       Zr6H48C98Br4O52
_chemical_formula_sum              "Zr6 H48 C98 Br4 O52"
_cell_length_a       19.098570255211982
_cell_length_b       19.066279718294766
_cell_length_c       19.113481721086536
_cell_angle_alpha    59.62367398271522
_cell_angle_beta     59.86354504034245
_cell_angle_gamma    60.10997703693229

_space_group_name_H-M_alt    "P 1"
_space_group_IT_number       1

loop_
  _space_group_symop_operation_xyz
  'x, y, z'

loop_
  _atom_site_type_symbol
  _atom_site_label
  _atom_site_symmetry_multiplicity
  _atom_site_fract_x
  _atom_site_fract_y
  _atom_site_fract_z
  _atom_site_occupancy
  Zr  Zr1       1.0  0.9047665436162191  0.4089690304113204  0.5897102283924127  1.0000
  Zr  Zr2       1.0  0.09654061062977363  0.5893778495490309  0.4093090004127404  1.0000
  Zr  Zr3       1.0  0.08977583372359285  0.40299634753964136  0.5959068715029475  1.0000
  Zr  Zr4       1.0  0.9113142954556039  0.5955629346158562  0.403334534234581  1.0000
  Zr  Zr5       1.0  0.9082006199233202  0.5916250913656781  0.5919556810743102  1.0000
  Zr  Zr6       1.0  0.09297404912227583  0.40685156574394205  0.40719614893393435  1.0000
  H   H1        1.0  0.9228070798130547  0.4254174198118362  0.7186740309382529  1.0000
  H   H2        1.0  0.9330835189998793  0.718322103765452  0.4257320378476166  1.0000
  H   H3        1.0  0.21886202889334064  0.4217476703528292  0.4318429127329821  1.0000
  H   H4        1.0  0.9275273965423664  0.4315072865714672  0.42210681603943095  1.0000
  H   H5        1.0  0.4403735697615331  0.6234694510266224  0.034892892301947184  1.0000
  H   H6        1.0  0.5241833450657866  0.41245250538380424  0.9290249553473939  1.0000
  H   H7        1.0  0.6852470233875819  0.605103893345934  0.8229931509456847  1.0000
  H   H8        1.0  0.5629873507240788  0.5996767771823173  0.9582302204555119  1.0000
  H   H9        1.0  0.32541438057138816  0.3827139532560651  0.1834614188621373  1.0000
  H   H10       1.0  0.45607645687042014  0.3796057319229432  0.05627444692053279  1.0000
  H   H11       1.0  0.1342251018189059  0.9288003403914615  0.4127257942486223  1.0000
  H   H12       1.0  0.9011523898526405  0.03465080940915757  0.6237195375958465  1.0000
  H   H13       1.0  0.1083125757637617  0.18321955659699543  0.38295836349038126  1.0000
  H   H14       1.0  0.10784004645339719  0.056121275960130404  0.3797937814236789  1.0000
  H   H15       1.0  0.8865538940927139  0.8227730698095997  0.6052666318960505  1.0000
  H   H16       1.0  0.8789366308099388  0.9580153788760556  0.5998556005763048  1.0000
  H   H17       1.0  0.43266995654607143  0.028737523067320588  0.4071764327635989  1.0000
  H   H18       1.0  0.5313807782849267  0.9301341702362438  0.6292743297800669  1.0000
  H   H19       1.0  0.6864427506124288  0.8281654383943716  0.3811706375136484  1.0000
  H   H20       1.0  0.5579053896993855  0.9568244622673633  0.3794307078996583  1.0000
  H   H21       1.0  0.322273689967858  0.17811410306136122  0.6097936492861677  1.0000
  H   H22       1.0  0.45537891490425847  0.053651259294412064  0.6067834920945997  1.0000
  H   H23       1.0  0.9093328753650953  0.6290980673222819  0.9303093685364701  1.0000
  H   H24       1.0  0.13153129960959123  0.4069080430493912  0.02900692350875994  1.0000
  H   H25       1.0  0.8899431962345973  0.6095797825274402  0.17830644696864786  1.0000
  H   H26       1.0  0.8844140500011124  0.6066605551867781  0.0537352008347014  1.0000
  H   H27       1.0  0.10431715242548728  0.38101382552996194  0.8283365432718385  1.0000
  H   H28       1.0  0.1060116296841044  0.3792901381094184  0.9569497429461649  1.0000
  H   H29       1.0  0.12266849672659681  0.8230142647052432  0.1707917673185548  1.0000
  H   H30       1.0  0.8962672322534143  0.8151389689377881  0.1829042422947539  1.0000
  H   H31       1.0  0.8834930710154506  0.1704767161212289  0.82337723060337  1.0000
  H   H32       1.0  0.10570947712709265  0.18255560667406448  0.8154847466017897  1.0000
  H   H33       1.0  0.43694436797374436  0.4025195436289552  0.6316220383174311  1.0000
  H   H34       1.0  0.5288864556033915  0.6312819784457346  0.4029479162603876  1.0000
  H   H35       1.0  0.6840364328940324  0.39233320938627964  0.6031993904147157  1.0000
  H   H36       1.0  0.5570415750693769  0.3849054017052183  0.6080819472031892  1.0000
  H   H37       1.0  0.3203996317286765  0.6028131871388637  0.3927589304859963  1.0000
  H   H38       1.0  0.44990558083200227  0.6077618936302684  0.38530278959810715  1.0000
  H   H39       1.0  0.3673847295837548  0.5769431475938305  0.25240844428736137  1.0000
  H   H40       1.0  0.7404801116099835  0.3090735427439314  0.8339902267575637  1.0000
  H   H41       1.0  0.11641976912848404  0.8336611199809668  0.3093417941055563  1.0000
  H   H42       1.0  0.8032510548445727  0.25204083526949717  0.5773878931518227  1.0000
  H   H43       1.0  0.3450740181601758  0.25264863320934683  0.312388898148491  1.0000
  H   H44       1.0  0.7580614236754856  0.8485095772376356  0.5820805852051762  1.0000
  H   H45       1.0  0.8113760374260436  0.5818666352769954  0.8487952449709368  1.0000
  H   H46       1.0  0.08972838473420108  0.31215848565360466  0.25297980105728607  1.0000
  H   H47       1.0  0.3580826622231967  0.30426225032545773  0.5827071804525517  1.0000
  H   H48       1.0  0.7550611744639683  0.5824057332242488  0.30468039229481997  1.0000
  C   C1        1.0  0.758712057048072  0.5058656371409925  0.7277710463516626  1.0000
  C   C2        1.0  0.0076195834474859685  0.7274673530287216  0.5061630132273008  1.0000
  C   C3        1.0  0.2368673370945374  0.497667425329503  0.26504454448375014  1.0000
  C   C4        1.0  0.0003885942774530949  0.26472563486267836  0.4980134722490843  1.0000
  C   C5        1.0  0.9940406716924669  0.2610381665143964  0.733828525633065  1.0000
  C   C6        1.0  0.7629326501544611  0.5087557549272076  0.49496691609283516  1.0000
  C   C7        1.0  0.011087306142336176  0.7335048254248234  0.2614047977309328  1.0000
  C   C8        1.0  0.23331864685766865  0.4946352559291966  0.5091160113828151  1.0000
  C   C9        1.0  0.0012556605834604538  0.4982282965074916  0.7349032882882865  1.0000
  C   C10       1.0  0.2286902022922987  0.2566201222169155  0.5074822716140658  1.0000
  C   C11       1.0  0.00718653397994725  0.5071680166134556  0.25695359812473123  1.0000
  C   C12       1.0  0.7656387119986191  0.7346310816028776  0.49849456454732183  1.0000
  C   C13       1.0  0.31388795293440097  0.4994858356712584  0.18634954541892768  1.0000
  C   C14       1.0  0.6800037476280778  0.505601387447605  0.8047728828051604  1.0000
  C   C15       1.0  0.3470834286879594  0.5676084205004415  0.1437744475075249  1.0000
  C   C16       1.0  0.41831798344215787  0.5681657511362914  0.06886883225512723  1.0000
  C   C17       1.0  0.6334662848677227  0.45153084372135066  0.8346845436254711  1.0000
  C   C18       1.0  0.5615157347831143  0.4517931033691698  0.9090608249483337  1.0000
  C   C19       1.0  0.6518848237489291  0.5599250216576406  0.8493786983993129  1.0000
  C   C20       1.0  0.5816742737650318  0.5578540820675071  0.9244411316692762  1.0000
  C   C21       1.0  0.3536638186852841  0.43313669743456273  0.15265730324115626  1.0000
  C   C22       1.0  0.42605597630966935  0.43308345234325435  0.07954813982696149  1.0000
  C   C23       1.0  0.4596869288935323  0.5010177295485576  0.035668828068374056  1.0000
  C   C24       1.0  0.5351852772533267  0.5032063910768515  0.9562621249584708  1.0000
  C   C25       1.0  0.009536541978114387  0.8045321248458563  0.5058426309099672  1.0000
  C   C26       1.0  0.0002190586167430908  0.18605088801457006  0.49981196887679846  1.0000
  C   C27       1.0  0.0802258550018635  0.8344496085689244  0.4517868757671621  1.0000
  C   C28       1.0  0.07751864375310198  0.9088465434076127  0.45202712595999367  1.0000
  C   C29       1.0  0.9414820804515782  0.14346247375630133  0.5679414343008133  1.0000
  C   C30       1.0  0.9445427750874205  0.06861325379099982  0.5684266899819547  1.0000
  C   C31       1.0  0.060431726607454585  0.15242137975883444  0.43339884065341033  1.0000
  C   C32       1.0  0.061145221408118296  0.07936184750091967  0.4332979121418745  1.0000
  C   C33       1.0  0.9387008219632947  0.8491544807693928  0.5601229929439597  1.0000
  C   C34       1.0  0.9358943736651997  0.9242265294609168  0.5580479120407064  1.0000
  C   C35       1.0  0.005209825547403564  0.9560605654458669  0.5034045796685973  1.0000
  C   C36       1.0  0.0034781742904001897  0.035463282019463784  0.5012365159400218  1.0000
  C   C37       1.0  0.3061111037870106  0.1782569492895973  0.5063621928247599  1.0000
  C   C38       1.0  0.686044367320214  0.8106327877523611  0.5016325790755902  1.0000
  C   C39       1.0  0.3382764696218814  0.13570354496932427  0.4485156452370944  1.0000
  C   C40       1.0  0.4112872529644703  0.06258349913744614  0.4499325670568196  1.0000
  C   C41       1.0  0.6417333658252247  0.8404295006936023  0.5718008675125502  1.0000
  C   C42       1.0  0.5663736399130243  0.9108951847187542  0.5725665193706391  1.0000
  C   C43       1.0  0.6533306945667549  0.8530181187050162  0.43395308040517466  1.0000
  C   C44       1.0  0.5798682158041047  0.9247148154732797  0.4342658792735675  1.0000
  C   C45       1.0  0.3487897098338594  0.14598236780764762  0.5639130965067024  1.0000
  C   C46       1.0  0.4228914240473571  0.07501756981269395  0.5627174237083139  1.0000
  C   C47       1.0  0.455903728151739  0.03143494698735344  0.5055356225132002  1.0000
  C   C48       1.0  0.5345659682384397  0.9553255059696609  0.5038478709669078  1.0000
  C   C49       1.0  0.00176180832740154  0.5014355625018112  0.8108348130947718  1.0000
  C   C50       1.0  0.009334754510227694  0.5060881341901505  0.1785262242178192  1.0000
  C   C51       1.0  0.9461191814216505  0.5715992039655973  0.8406347716585216  1.0000
  C   C52       1.0  0.9502795504998574  0.57237981107631  0.9110839778429137  1.0000
  C   C53       1.0  0.07757721802087046  0.4482259633452514  0.13599061802466392  1.0000
  C   C54       1.0  0.07631630968104022  0.4496956246690686  0.06281537464737849  1.0000
  C   C55       1.0  0.9414367440075467  0.5636938275603286  0.1461844042254156  1.0000
  C   C56       1.0  0.9395485764825154  0.5625398062281305  0.07517153744515073  1.0000
  C   C57       1.0  0.059793139057632186  0.4337821397612558  0.8531933391411926  1.0000
  C   C58       1.0  0.06128517272124864  0.43409767909601277  0.9248684079057198  1.0000
  C   C59       1.0  0.006402384394341757  0.5036759107508146  0.9554913221818849  1.0000
  C   C60       1.0  0.007296591821109706  0.5053459340758194  0.03160232087535063  1.0000
  C   C61       1.0  0.07026602802375953  0.8530003036993321  0.14599743229247514  1.0000
  C   C62       1.0  0.06626520347059266  0.929023283197907  0.07438309899582411  1.0000
  C   C63       1.0  0.12701805230592086  0.9736663107218534  0.03440398249498591  1.0000
  C   C64       1.0  0.9430505646874818  0.847723389728607  0.15142963020825562  1.0000
  C   C65       1.0  0.9370929775857276  0.9227814714156466  0.07955982811797217  1.0000
  C   C66       1.0  0.8688692733377723  0.960965670475268  0.045365021227730964  1.0000
  C   C67       1.0  0.9307413530964085  0.1456423372291623  0.853339347000947  1.0000
  C   C68       1.0  0.9303247423127133  0.07403450412373762  0.9293667867848754  1.0000
  C   C69       1.0  0.8649041676294402  0.034064104602172976  0.9740359462615447  1.0000
  C   C70       1.0  0.05783811895138785  0.15105340739715692  0.8480478580926842  1.0000
  C   C71       1.0  0.06058712411113729  0.07918782472233223  0.9231095259824398  1.0000
  C   C72       1.0  0.12483345379319392  0.04498317475196966  0.9612925703950737  1.0000
  C   C73       1.0  0.008966003039994114  0.8131950734553756  0.1839032939416754  1.0000
  C   C74       1.0  0.999930090000561  0.9641413078827554  0.039196308829538465  1.0000
  C   C75       1.0  0.9939742274874919  0.18352576620666392  0.813512363196729  1.0000
  C   C76       1.0  0.9967321573082584  0.0388519597693743  0.9644677475903194  1.0000
  C   C77       1.0  0.3101295702528333  0.49516872840931114  0.510755738170289  1.0000
  C   C78       1.0  0.683941409258331  0.5103823360089026  0.49554353322165656  1.0000
  C   C79       1.0  0.3437507195995622  0.4382535333250317  0.5785924785938548  1.0000
  C   C80       1.0  0.4144992792129756  0.44462466863046063  0.5767202235436103  1.0000
  C   C81       1.0  0.6393817978672872  0.5782152575617944  0.4386499115704226  1.0000
  C   C82       1.0  0.5641267771862886  0.5763593629667343  0.44503940961650557  1.0000
  C   C83       1.0  0.6516873226817809  0.4423884705280513  0.5568253035850219  1.0000
  C   C84       1.0  0.5786943999996481  0.43981780875915183  0.5603817512000474  1.0000
  C   C85       1.0  0.3490904477553725  0.5564517118493697  0.44278278624651785  1.0000
  C   C86       1.0  0.42108176142399156  0.5600259818005853  0.4402136298104011  1.0000
  C   C87       1.0  0.45562706452543  0.5040634045281395  0.5072344063200661  1.0000
  C   C88       1.0  0.5330683889337282  0.5068578795179376  0.5044529856370374  1.0000
  C   C89       1.0  0.30748760970788425  0.6448266397549035  0.17079742013158483  1.0000
  C   C90       1.0  0.6502805458436641  0.3976578962736284  0.7877047108918519  1.0000
  C   C91       1.0  0.16426626780626197  0.7873953189730685  0.39798464808201567  1.0000
  C   C92       1.0  0.8768961083494844  0.17042967531781966  0.6452157613178855  1.0000
  C   C93       1.0  0.29742947678615644  0.16061810947014984  0.38547719545810116  1.0000
  C   C94       1.0  0.6668164118944161  0.8002719334479168  0.6506548362246248  1.0000
  C   C95       1.0  0.8822989868452852  0.6504542738578678  0.8005022395908766  1.0000
  C   C96       1.0  0.1564912762840578  0.38507900513174315  0.16097349770314648  1.0000
  C   C97       1.0  0.30781001900739113  0.36997709437785903  0.6562661329999456  1.0000
  C   C98       1.0  0.6658687057862384  0.6559130386693751  0.370400431190838  1.0000
  Br  Br1       1.0  0.20551239208071342  0.10274885251748594  0.9083473368653188  1.0000
  Br  Br2       1.0  0.2081704169824549  0.9323451620657508  0.08710522621566244  1.0000
  Br  Br3       1.0  0.7723238688531211  0.08677579562345984  0.9327737220278038  1.0000
  Br  Br4       1.0  0.7833506292417951  0.9080276744187119  0.10316116368887411  1.0000
  O   O1        1.0  0.7882597170271524  0.4476200930142158  0.6958817683326757  1.0000
  O   O2        1.0  0.06822907415468646  0.6955486548049238  0.4479424162257216  1.0000
  O   O3        1.0  0.20628164390814865  0.5570421894028074  0.2957579227137117  1.0000
  O   O4        1.0  0.9408866307296436  0.29542218110405116  0.5573959664581666  1.0000
  O   O5        1.0  0.055059468038770334  0.29055508452510986  0.70193530812503  1.0000
  O   O6        1.0  0.7945952267553621  0.5684120576397973  0.4357438107724148  1.0000
  O   O7        1.0  0.9524583273738402  0.7015930542657713  0.290921973694381  1.0000
  O   O8        1.0  0.20118243086821525  0.4354510158232969  0.568787982912198  1.0000
  O   O9        1.0  0.942631353851233  0.5583000861173701  0.7029888214677341  1.0000
  O   O10       1.0  0.19777831596805145  0.2882752109554828  0.44791167369023543  1.0000
  O   O11       1.0  0.06597494649302159  0.44756835154187496  0.2886515481846316  1.0000
  O   O12       1.0  0.796069072921739  0.7027062094657879  0.5586016344195174  1.0000
  O   O13       1.0  0.2003360599490378  0.28766320142978696  0.565848289597831  1.0000
  O   O14       1.0  0.9461019698369171  0.5655286613820748  0.2879981624579812  1.0000
  O   O15       1.0  0.7986955023800846  0.7074738886793526  0.4361651627240306  1.0000
  O   O16       1.0  0.057650188807912305  0.4358674314054412  0.7077947129303864  1.0000
  O   O17       1.0  0.9334101555575385  0.2938771811834755  0.7041444588932534  1.0000
  O   O18       1.0  0.20605796999863912  0.5528097741521947  0.4467945032142708  1.0000
  O   O19       1.0  0.06855864455360461  0.7038220302847265  0.29424651694856147  1.0000
  O   O20       1.0  0.7943459733434111  0.4464478495665676  0.5531361035589484  1.0000
  O   O21       1.0  0.05860132312480463  0.29700971674417087  0.43671950457454756  1.0000
  O   O22       1.0  0.7928570536795333  0.5618908963856202  0.7006532309288502  1.0000
  O   O23       1.0  0.9445866158322428  0.7003243907878204  0.5622224396666411  1.0000
  O   O24       1.0  0.207678722173199  0.43635982117643834  0.2973377062825193  1.0000
  O   O25       1.0  0.948602594389719  0.45107726627135497  0.4435183587613379  1.0000
  O   O26       1.0  0.15680675015733672  0.4431819634163999  0.4513985111460102  1.0000
  O   O27       1.0  0.9523901560180761  0.6559780804129361  0.44694261917137373  1.0000
  O   O28       1.0  0.9446787995690823  0.44660650710065425  0.6563297801911787  1.0000
  O   O29       1.0  0.03922482641355174  0.5348938381366679  0.5403383975539668  1.0000
  O   O30       1.0  0.8855081059411134  0.5400043170886804  0.5352356198353263  1.0000
  O   O31       1.0  0.04187625777631604  0.5380688725599968  0.3839971276587875  1.0000
  O   O32       1.0  0.03604025359268795  0.3836523258799219  0.5384126940115763  1.0000
  O   O33       1.0  0.33473714532904336  0.6371106140255521  0.22890286830207873  1.0000
  O   O34       1.0  0.2611116486766892  0.7133338408629085  0.13731602243056065  1.0000
  O   O35       1.0  0.706694440263448  0.3164591011011665  0.8043030494091923  1.0000
  O   O36       1.0  0.6085127849705  0.42192143022818857  0.7434666718350228  1.0000
  O   O37       1.0  0.17249052720436717  0.8039409121648475  0.31677154406430214  1.0000
  O   O38       1.0  0.22595210018890538  0.7431321519577879  0.42231042180130635  1.0000
  O   O39       1.0  0.799268880248775  0.2285646894525257  0.6375417595149173  1.0000
  O   O40       1.0  0.8883101187423107  0.13687178449460194  0.7137019874021817  1.0000
  O   O41       1.0  0.3187441292689925  0.22274069570429592  0.3083089735490105  1.0000
  O   O42       1.0  0.2556007525925068  0.12166445122610266  0.3976262695763637  1.0000
  O   O43       1.0  0.7286413102730406  0.8225153105576198  0.6429990945978475  1.0000
  O   O44       1.0  0.6281820171834411  0.7586793083021065  0.7202792313715706  1.0000
  O   O45       1.0  0.805874519033672  0.6427869904647779  0.8227883667963665  1.0000
  O   O46       1.0  0.8928924738875638  0.7200829669345269  0.7588801695625734  1.0000
  O   O47       1.0  0.15007522487644565  0.30795932764077344  0.22310895609612655  1.0000
  O   O48       1.0  0.2251886524264748  0.3970924185276701  0.12205720078326719  1.0000
  O   O49       1.0  0.3316317303265707  0.29519927279399377  0.6442571613621553  1.0000
  O   O50       1.0  0.267773484456633  0.37507840437558565  0.7277503149619946  1.0000
  O   O51       1.0  0.7288885918690652  0.643958392088841  0.29560703601842403  1.0000
  O   O52       1.0  0.6292298162319342  0.7274092190689316  0.3754798390368565  1.0000
