data_image0
_chemical_formula_structural       Cu2H36C28S2N4O12
_chemical_formula_sum              "Cu2 H36 C28 S2 N4 O12"
_cell_length_a       8.498587041887752
_cell_length_b       8.785940960536532
_cell_length_c       11.938274644275346
_cell_angle_alpha    102.52358949199701
_cell_angle_beta     93.62926091010783
_cell_angle_gamma    117.8752851575573

_space_group_name_H-M_alt    "P 1"
_space_group_IT_number       1

loop_
  _space_group_symop_operation_xyz
  'x, y, z'

loop_
  _atom_site_type_symbol
  _atom_site_label
  _atom_site_symmetry_multiplicity
  _atom_site_fract_x
  _atom_site_fract_y
  _atom_site_fract_z
  _atom_site_occupancy
  Cu  Cu1       1.0  0.49999260486597985  0.9999926216293885  0.9999993618142468  1.0000
  Cu  Cu2       1.0  2.6225697879488225e-06  0.5000033261778043  0.5000004887476379  1.0000
  H   H1        1.0  0.8325660804876163  0.13467252421753537  0.02471574907193741  1.0000
  H   H2        1.0  0.16742480843197427  0.8653208101699265  0.9752848969495105  1.0000
  H   H3        1.0  0.8257299344516226  0.8778405618912543  0.945269124213567  1.0000
  H   H4        1.0  0.1742616572458147  0.12215413982501391  0.0547284253014411  1.0000
  H   H5        1.0  0.8830456359179593  0.9857335618683933  0.8325713037235757  1.0000
  H   H6        1.0  0.11694796371205028  0.014265156098858298  0.1674278272030776  1.0000
  H   H7        1.0  0.9794180902918009  0.7776212986988822  0.5706921271779207  1.0000
  H   H8        1.0  0.020585437688723073  0.22238545997026188  0.4293079371271418  1.0000
  H   H9        1.0  0.5403170796345477  0.8353280301624507  0.7522086208818164  1.0000
  H   H10       1.0  0.45967044932594797  0.16466800198553236  0.2477914623197463  1.0000
  H   H11       1.0  0.6418986868955797  0.6967176215999514  0.7351668809233017  1.0000
  H   H12       1.0  0.3580914023143436  0.3032811231035026  0.26482957378807004  1.0000
  H   H13       1.0  0.4607535924422166  0.41982681695174756  0.7607575632627429  1.0000
  H   H14       1.0  0.5392560805030725  0.5801664276028689  0.23925066610321005  1.0000
  H   H15       1.0  0.24975617804056321  0.2235921314437377  0.8679163691314713  1.0000
  H   H16       1.0  0.7502490039542449  0.7763944502547557  0.1320855450584659  1.0000
  H   H17       1.0  0.1461070739755783  0.370454148189296  0.0351275405961431  1.0000
  H   H18       1.0  0.8538730796935566  0.6295271467133503  0.9648681378051833  1.0000
  H   H19       1.0  0.2622678191668726  0.6969157116522383  0.07952810313713601  1.0000
  H   H20       1.0  0.7377081521969301  0.30306426903794664  0.9204646506535141  1.0000
  H   H21       1.0  0.09508313529455133  0.9325078274332482  0.44844853575605714  1.0000
  H   H22       1.0  0.9049265983701886  0.06750427488941571  0.5515543621203989  1.0000
  H   H23       1.0  0.877490215937172  0.7963828436868782  0.35656018471160417  1.0000
  H   H24       1.0  0.12252358818766138  0.2036279347991083  0.6434393432528366  1.0000
  H   H25       1.0  0.9671291616231201  0.5674630073144371  0.27192276476454674  1.0000
  H   H26       1.0  0.0328827695838356  0.4325464127548102  0.7280789676345731  1.0000
  H   H27       1.0  0.09577020810495883  0.7784371293396571  0.24292575080305298  1.0000
  H   H28       1.0  0.9042442138430573  0.2215749439297596  0.7570798791349915  1.0000
  H   H29       1.0  0.4167041257873692  0.902403477214925  0.2744900336389761  1.0000
  H   H30       1.0  0.5833051564943759  0.0976006120348032  0.7255065240512834  1.0000
  H   H31       1.0  0.6953057367473575  0.9316121785954221  0.375510958960781  1.0000
  H   H32       1.0  0.30470570392795787  0.06839859792960108  0.624489293536513  1.0000
  H   H33       1.0  0.6696413277082056  0.7586544134811818  0.5257063869137539  1.0000
  H   H34       1.0  0.3303685327151911  0.24136974258457392  0.47430181219155537  1.0000
  H   H35       1.0  0.3607048623513831  0.5688176195547425  0.5639171378578139  1.0000
  H   H36       1.0  0.6393080648322637  0.4311985032969048  0.4360865610511268  1.0000
  C   C1        1.0  0.7761837442751441  0.9283614454364012  0.8828858288588319  1.0000
  C   C2        1.0  0.2238066695591101  0.07163325859690423  0.11711166480987598  1.0000
  C   C3        1.0  0.6041933688508578  0.777651203147862  0.7995311542384796  1.0000
  C   C4        1.0  0.39579519523497453  0.2223421622538027  0.20046603518853348  1.0000
  C   C5        1.0  0.4707009470819583  0.6591554499664979  0.8610861079998527  1.0000
  C   C6        1.0  0.5292886057902989  0.34083520911865145  0.13891320500535187  1.0000
  C   C7        1.0  0.4104455153071526  0.47528776377020426  0.8309135328628797  1.0000
  C   C8        1.0  0.5895467333621057  0.524698863200783  0.1690852583413545  1.0000
  C   C9        1.0  0.2919470058808429  0.36622756270568857  0.8910457612056318  1.0000
  C   C10       1.0  0.708049637339961  0.6337631022623497  0.10895137820101294  1.0000
  C   C11       1.0  0.23611467987080195  0.4456359792987996  0.9823343538857755  1.0000
  C   C12       1.0  0.7638745726123372  0.5543399352338338  0.017660053171546456  1.0000
  C   C13       1.0  0.3014653318164092  0.6292357346796038  0.008833241453352503  1.0000
  C   C14       1.0  0.6985196992127596  0.3707482351692802  0.9911631012776707  1.0000
  C   C15       1.0  0.9921547499461596  0.7935518761919125  0.40206636489395453  1.0000
  C   C16       1.0  0.00785600339761317  0.20645754619437176  0.5979353116588655  1.0000
  C   C17       1.0  0.0691667798150134  0.7093511881794184  0.31172341972167317  1.0000
  C   C18       1.0  0.9308383933908785  0.2906541919318073  0.6882806890078895  1.0000
  C   C19       1.0  0.24031815216665103  0.7231274386339379  0.36613141670183313  1.0000
  C   C20       1.0  0.7596887203266643  0.27687660908461703  0.6338708828740209  1.0000
  C   C21       1.0  0.4081760962231795  0.8311702877941227  0.3399298828771861  1.0000
  C   C22       1.0  0.591832309117372  0.16883914582126638  0.6600708457575735  1.0000
  C   C23       1.0  0.5651623323280288  0.8470144096968681  0.3969179538187717  1.0000
  C   C24       1.0  0.4348467448977686  0.1529963648671924  0.6030830232113829  1.0000
  C   C25       1.0  0.5512952459046048  0.7523492574123765  0.4792081786081751  1.0000
  C   C26       1.0  0.44871430587364347  0.2476695500097179  0.5207966299318014  1.0000
  C   C27       1.0  0.38091267022981157  0.6463351246629117  0.501243914144922  1.0000
  C   C28       1.0  0.6190984149285583  0.3536796661521251  0.49875864429687056  1.0000
  S   S1        1.0  0.1525692052083941  0.8357813079909137  0.7658482393137618  1.0000
  S   S2        1.0  0.8474280861953075  0.1642200806445828  0.23415233632173477  1.0000
  N   N1        1.0  0.4152440227851811  0.7343420271603378  0.9497974902701215  1.0000
  N   N2        1.0  0.584744526387233  0.2656419225473741  0.05020069245072278  1.0000
  N   N3        1.0  0.22945352087028678  0.632385701121315  0.4462434677951349  1.0000
  N   N4        1.0  0.7705565760345432  0.3676223935063587  0.5537562879113762  1.0000
  O   O1        1.0  0.7415557307255084  0.06577114780402128  0.9446649139661929  1.0000
  O   O2        1.0  0.25843330844565304  0.9342208479517992  0.05533542781355997  1.0000
  O   O3        1.0  0.9295375740733005  0.6923974012412798  0.4852406580287293  1.0000
  O   O4        1.0  0.07046529746828156  0.3076080296692608  0.5147574854300245  1.0000
  O   O5        1.0  0.3316375337887364  0.995112473061148  0.8228632573466398  1.0000
  O   O6        1.0  0.668360777294005  0.0048862356379615005  0.1771360969652207  1.0000
  O   O7        1.0  0.048251021877398124  0.7699213187455739  0.8585937273937672  1.0000
  O   O8        1.0  0.9517479688137341  0.23007873749724436  0.14140503908802768  1.0000
  O   O9        1.0  0.046809470116507074  0.8900854206777778  0.6921821109271703  1.0000
  O   O10       1.0  0.9531908643451104  0.10991731746238288  0.3078171523454073  1.0000
  O   O11       1.0  0.173973700059136  0.6912850855507243  0.6905305394507834  1.0000
  O   O12       1.0  0.8260271326572736  0.3087163027286977  0.309469367498167  1.0000
