data_image0
_chemical_formula_structural       Dy2H30C30N2O16
_chemical_formula_sum              "Dy2 H30 C30 N2 O16"
_cell_length_a       8.587449821697216
_cell_length_b       10.20187151589607
_cell_length_c       10.90412185775232
_cell_angle_alpha    63.923932688310906
_cell_angle_beta     71.01606623677209
_cell_angle_gamma    80.05466854946214

_space_group_name_H-M_alt    "P 1"
_space_group_IT_number       1

loop_
  _space_group_symop_operation_xyz
  'x, y, z'

loop_
  _atom_site_type_symbol
  _atom_site_label
  _atom_site_symmetry_multiplicity
  _atom_site_fract_x
  _atom_site_fract_y
  _atom_site_fract_z
  _atom_site_occupancy
  Dy  Dy1       1.0  0.6361916218189522  0.9398357629606051  0.6507085339777914  1.0000
  Dy  Dy2       1.0  0.3638130247200095  0.06016026649968611  0.3492886421343897  1.0000
  H   H1        1.0  0.4409520730702781  0.2543790102188693  0.7000498927144247  1.0000
  H   H2        1.0  0.5590374848951497  0.7456246053454264  0.29994248750548985  1.0000
  H   H3        1.0  0.4971557446069783  0.5386039449400853  0.2596187318494784  1.0000
  H   H4        1.0  0.5028214686274239  0.4613995246582761  0.7403795289476774  1.0000
  H   H5        1.0  0.04971644184649188  0.8312079913550433  0.8819735127488287  1.0000
  H   H6        1.0  0.9502966005449239  0.16881420606868147  0.1180202412681197  1.0000
  H   H7        1.0  0.23608378177880956  0.12804318510181636  0.9791036353356048  1.0000
  H   H8        1.0  0.7639320319394898  0.871972458420167  0.020893894988276356  1.0000
  H   H9        1.0  0.707840954388118  0.567917874011563  0.09059757370562951  1.0000
  H   H10       1.0  0.29214777007849346  0.43207349844393406  0.9094164385126859  1.0000
  H   H11       1.0  0.1489228968674396  0.6334191866468826  0.7439629941521133  1.0000
  H   H12       1.0  0.8510682338931871  0.3665732994403398  0.2560499724735408  1.0000
  H   H13       1.0  0.6404256511272521  0.15846205826338175  0.8311895295702597  1.0000
  H   H14       1.0  0.35957128423281404  0.841542763850995  0.16879686257360066  1.0000
  H   H15       1.0  0.7012097077793487  0.3178762145011119  0.8899681182069655  1.0000
  H   H16       1.0  0.2987873348887788  0.6821252704342625  0.11002417298174545  1.0000
  H   H17       1.0  0.796790360167826  0.4703506533263278  0.7346138633540775  1.0000
  H   H18       1.0  0.20320431178650722  0.529649754975871  0.2653766981567642  1.0000
  H   H19       1.0  0.9139852625553359  0.3465258324084388  0.851304213426225  1.0000
  H   H20       1.0  0.08600911609397602  0.6534788692496603  0.148690200500404  1.0000
  H   H21       1.0  0.043948739254417994  0.19684054050529196  0.5818744338179798  1.0000
  H   H22       1.0  0.9560599456741343  0.8031455347739039  0.4181376576563879  1.0000
  H   H23       1.0  0.11386312514965624  0.28549541222332653  0.6640293628797379  1.0000
  H   H24       1.0  0.8861381942443386  0.7144894688386358  0.33598779158051406  1.0000
  H   H25       1.0  0.018929497532411705  0.3899864026198827  0.5247413616756731  1.0000
  H   H26       1.0  0.9810915439872405  0.6099998309580951  0.47526392413128343  1.0000
  H   H27       1.0  0.7636383434413505  0.08361652646768647  0.342162572029899  1.0000
  H   H28       1.0  0.23636243997972164  0.916381592314643  0.6578393120625489  1.0000
  H   H29       1.0  0.9169532204901644  0.09776471311868559  0.3898043814478669  1.0000
  H   H30       1.0  0.08304908338677562  0.9022279697019752  0.6101983896803277  1.0000
  C   C1        1.0  0.4327033177515816  0.26344622132951656  0.4483466055505331  1.0000
  C   C2        1.0  0.5672900720831535  0.7365529732420341  0.551653016833903  1.0000
  C   C3        1.0  0.46752912444043926  0.3844329663145557  0.47648452168946415  1.0000
  C   C4        1.0  0.5324581264431886  0.6155673396086526  0.5235106782759329  1.0000
  C   C5        1.0  0.4675862921057643  0.36193913237363506  0.612825163482995  1.0000
  C   C6        1.0  0.5323983303392695  0.6380644272708549  0.3871693839497823  1.0000
  C   C7        1.0  0.4991578509557826  0.5230681767954051  0.3644831676779887  1.0000
  C   C8        1.0  0.500823177956221  0.4769331541495204  0.6355140854996149  1.0000
  C   C9        1.0  0.32717069364910867  0.9541120739785284  0.8366272092963528  1.0000
  C   C10       1.0  0.6728418198411745  0.04589704748799049  0.16336917435656056  1.0000
  C   C11       1.0  0.15840493876993386  0.9782725387022492  0.920848207081079  1.0000
  C   C12       1.0  0.841610723964223  0.021747546169848395  0.07914207457645252  1.0000
  C   C13       1.0  0.026021168853780818  0.9056189149670499  0.9334272304328265  1.0000
  C   C14       1.0  0.9739944383442349  0.09440226174329067  0.06656262669338274  1.0000
  C   C15       1.0  0.132126271352341  0.07332270208983259  0.9878219094723093  1.0000
  C   C16       1.0  0.8678895024541121  0.9266951991057577  0.012169221247859107  1.0000
  C   C17       1.0  0.8293335568114276  0.7350898614407271  0.8159555184700409  1.0000
  C   C18       1.0  0.17065779985800592  0.2648994107959907  0.18405409629868066  1.0000
  C   C19       1.0  0.9189822796699475  0.6126970093034315  0.9088385180626303  1.0000
  C   C20       1.0  0.0810098005608211  0.38729979336928  0.09117706535797514  1.0000
  C   C21       1.0  0.8360255430785345  0.5368491656088922  0.05287222627412541  1.0000
  C   C22       1.0  0.163964154578359  0.4631465480977963  0.9471425525587803  1.0000
  C   C23       1.0  0.0841725795224022  0.5749092053442979  0.8559572881807754  1.0000
  C   C24       1.0  0.9158183490495732  0.4250865192591247  0.14405718012145746  1.0000
  C   C25       1.0  0.7545671155019847  0.1705883238868893  0.743834910964935  1.0000
  C   C26       1.0  0.2454350055748264  0.8294099167878315  0.25615833678523364  1.0000
  C   C27       1.0  0.8155510932261765  0.35529555931903894  0.8041630445908581  1.0000
  C   C28       1.0  0.18444585832558152  0.6447069804560284  0.19583159733707595  1.0000
  C   C29       1.0  0.0183025120515907  0.2854471243426886  0.6172519429438451  1.0000
  C   C30       1.0  0.9817098019902062  0.7145412166346218  0.3827546675151652  1.0000
  N   N1        1.0  0.8592724076695647  0.2649729466215902  0.7242959651431845  1.0000
  N   N2        1.0  0.1407273270691505  0.7350230515845977  0.2757015280015054  1.0000
  O   O1        1.0  0.47242968737475616  0.13063270959582945  0.5204077958953874  1.0000
  O   O2        1.0  0.5275709013861061  0.869370954707705  0.47958548990921906  1.0000
  O   O3        1.0  0.3630762761921816  0.29442313343920284  0.3521344913810367  1.0000
  O   O4        1.0  0.6369210123406717  0.7055740088088666  0.6478576477525949  1.0000
  O   O5        1.0  0.3498218151250754  0.8708258662593732  0.7708589763666822  1.0000
  O   O6        1.0  0.6501831344062197  0.12918645300862147  0.2291389219664737  1.0000
  O   O7        1.0  0.4478459007342224  0.017358943045017793  0.8281228837627737  1.0000
  O   O8        1.0  0.5521730450121896  0.9826447737139359  0.17187406989338425  1.0000
  O   O9        1.0  0.9020747661792612  0.808448802904486  0.6839612982292637  1.0000
  O   O10       1.0  0.0979214467542704  0.1915415924245849  0.31604757497563435  1.0000
  O   O11       1.0  0.6796431046271394  0.7652957375001531  0.8701596473367629  1.0000
  O   O12       1.0  0.320347084191802  0.23469473900657783  0.1298406025295193  1.0000
  O   O13       1.0  0.7816861694022492  0.09859075172349918  0.6699450685510085  1.0000
  O   O14       1.0  0.2183221143458098  0.901406402265259  0.3300507514378452  1.0000
  O   O15       1.0  0.815670717830173  0.042894887243392084  0.42179262583271526  1.0000
  O   O16       1.0  0.1843316097669145  0.9570978202429712  0.5782082951151252  1.0000
