data_image0
_chemical_formula_structural       Hg4H16C32N20
_chemical_formula_sum              "Hg4 H16 C32 N20"
_cell_length_a       7.189409186159159
_cell_length_b       7.9053873872948985
_cell_length_c       16.95917031337832
_cell_angle_alpha    89.99907718185572
_cell_angle_beta     92.19764793241795
_cell_angle_gamma    90.0003579329905

_space_group_name_H-M_alt    "P 1"
_space_group_IT_number       1

loop_
  _space_group_symop_operation_xyz
  'x, y, z'

loop_
  _atom_site_type_symbol
  _atom_site_label
  _atom_site_symmetry_multiplicity
  _atom_site_fract_x
  _atom_site_fract_y
  _atom_site_fract_z
  _atom_site_occupancy
  Hg  Hg1       1.0  0.2202768850286247  0.7360107547442637  0.19155427899573851  1.0000
  Hg  Hg2       1.0  0.7797153781588335  0.23601357018645783  0.3084467840375923  1.0000
  Hg  Hg3       1.0  0.7797302953046312  0.2639898968721823  0.8084449674063096  1.0000
  Hg  Hg4       1.0  0.2202583302235936  0.7639807564952432  0.6915541054611226  1.0000
  H   H1        1.0  0.6297007170767017  0.6270801521631028  0.10787624605932683  1.0000
  H   H2        1.0  0.3703063739410767  0.1270699668628623  0.3921224405199767  1.0000
  H   H3        1.0  0.37031893948307737  0.3729369439408003  0.8921250361330595  1.0000
  H   H4        1.0  0.6296909623411651  0.8729319496266115  0.6078801335569041  1.0000
  H   H5        1.0  0.8121625367372332  0.6159710508864931  0.9852151853666271  1.0000
  H   H6        1.0  0.18782819737979392  0.11596730387324779  0.5147809523913978  1.0000
  H   H7        1.0  0.187852977931108  0.3840435153052083  0.014784828883186706  1.0000
  H   H8        1.0  0.8121608551466935  0.8840396724730083  0.4852190857616849  1.0000
  H   H9        1.0  0.675362887455492  0.7484456501391107  0.861045413726288  1.0000
  H   H10       1.0  0.3246243808435452  0.24843987261181866  0.6389496227696442  1.0000
  H   H11       1.0  0.3246499108469081  0.25156006136345604  0.13895218369713552  1.0000
  H   H12       1.0  0.6753618879592268  0.751563308846137  0.36105035587579704  1.0000
  H   H13       1.0  0.3639723081109949  0.8901365496274135  0.8664924667603345  1.0000
  H   H14       1.0  0.6360184693406195  0.3901266104738922  0.6335027255517716  1.0000
  H   H15       1.0  0.6360335645593127  0.10985651227390747  0.13350380323704067  1.0000
  H   H16       1.0  0.36396639075915976  0.6098753060100534  0.366497812671959  1.0000
  C   C1        1.0  0.5756044247566124  0.6843835922494673  0.05318271311543302  1.0000
  C   C2        1.0  0.42440018957799447  0.1843795059574589  0.4468154761717643  1.0000
  C   C3        1.0  0.4244096980210728  0.3156183243368247  0.9468172714216366  1.0000
  C   C4        1.0  0.5755985722263547  0.8156148207949271  0.5531859490261297  1.0000
  C   C5        1.0  0.6771205288433394  0.678420450630085  0.9845222813022405  1.0000
  C   C6        1.0  0.3228718811954749  0.17842006913813438  0.5154751771503784  1.0000
  C   C7        1.0  0.32290041846201234  0.32157640605573323  0.015482566735642002  1.0000
  C   C8        1.0  0.67711163755569  0.8215742576108197  0.4845235633377173  1.0000
  C   C9        1.0  0.6011790470833417  0.7514487758980336  0.9158157115323962  1.0000
  C   C10       1.0  0.3988110042027415  0.25145289731570125  0.5841799508411968  1.0000
  C   C11       1.0  0.39883095062879903  0.24854428598525397  0.08418241575173373  1.0000
  C   C12       1.0  0.601178031480913  0.7485540790206142  0.4158206766463978  1.0000
  C   C13       1.0  0.42766744449861693  0.8292925658385856  0.9182511345077348  1.0000
  C   C14       1.0  0.5723271994034889  0.3292902827475713  0.5817440225170573  1.0000
  C   C15       1.0  0.5723453537495686  0.17069290630161044  0.08174646299299583  1.0000
  C   C16       1.0  0.4276632954947104  0.6707116337918391  0.41825427741285653  1.0000
  C   C17       1.0  0.33590800649133706  0.8303966528311901  0.9895769464252031  1.0000
  C   C18       1.0  0.6640865759661664  0.33039861101443074  0.5104205594872371  1.0000
  C   C19       1.0  0.6640923829558717  0.16959261422367428  0.010416257869799503  1.0000
  C   C20       1.0  0.3359065847593214  0.6696083653038511  0.48958192528711925  1.0000
  C   C21       1.0  0.1560002398955191  0.9183587882806633  0.9950156896847491  1.0000
  C   C22       1.0  0.8439989388574461  0.41835321839849365  0.5049830015916899  1.0000
  C   C23       1.0  0.8440096231078513  0.08164692312459468  0.004987152227229809  1.0000
  C   C24       1.0  0.15599298158996075  0.5816512280850148  0.4950141494205766  1.0000
  C   C25       1.0  0.37237011882936594  0.9295062852145575  0.24206257886341126  1.0000
  C   C26       1.0  0.627620329937038  0.4294997080498959  0.2579393038901117  1.0000
  C   C27       1.0  0.6276287609053028  0.0704994262487375  0.7579347209493508  1.0000
  C   C28       1.0  0.3723785497840737  0.570500943572803  0.7420579959419842  1.0000
  C   C29       1.0  0.05176331628742051  0.5392386708848347  0.15621211293505874  1.0000
  C   C30       1.0  0.9482417775821258  0.039257816916951106  0.343791929477142  1.0000
  C   C31       1.0  0.948258904947771  0.4607480660541583  0.8437968902441855  1.0000
  C   C32       1.0  0.05172196886302768  0.9607428344088047  0.6562164130187187  1.0000
  N   N1        1.0  0.4082878497523197  0.7576684791397807  0.05599828931052291  1.0000
  N   N2        1.0  0.5917073973963695  0.25767061124354024  0.4439997211294299  1.0000
  N   N3        1.0  0.5917208403273618  0.2423283776697217  0.9439968615254418  1.0000
  N   N4        1.0  0.40828163828389563  0.7423351001326352  0.5560009063629963  1.0000
  N   N5        1.0  0.0741761576732571  0.9246470573472292  0.06546055453272712  1.0000
  N   N6        1.0  0.9258309336945703  0.4246554266475471  0.4345429010856635  1.0000
  N   N7        1.0  0.9258309721281252  0.07535232927925509  0.9345404598777167  1.0000
  N   N8        1.0  0.07417066236537549  0.575343959983108  0.5654568156114764  1.0000
  N   N9        1.0  0.9166637009211698  0.0066693300480337985  0.07093737820740391  1.0000
  N   N10       1.0  0.0833384852318417  0.506675385342099  0.42906508552953687  1.0000
  N   N11       1.0  0.08334482074715051  0.9933338514628145  0.9290636659496061  1.0000
  N   N12       1.0  0.9166575265514041  0.493321471342611  0.5709351014675266  1.0000
  N   N13       1.0  0.4686134638719821  0.035754880279746694  0.2684812834056275  1.0000
  N   N14       1.0  0.5313876041503108  0.5357590275915172  0.2315168030484785  1.0000
  N   N15       1.0  0.5313784734385933  0.9642571559745929  0.7315152782431369  1.0000
  N   N16       1.0  0.46862242728815323  0.46424921383342616  0.768480145508626  1.0000
  N   N17       1.0  0.9627081173176891  0.42681360397388335  0.13061790038401005  1.0000
  N   N18       1.0  0.037297560113763985  0.9268213685047114  0.3693866875942008  1.0000
  N   N19       1.0  0.0373126952145029  0.5731718679910923  0.8693916623735236  1.0000
  N   N20       1.0  0.9626705976539114  0.07316157352989448  0.6306134935692143  1.0000
