data_image0
_chemical_formula_structural       Cu8H104C84N8O32
_chemical_formula_sum              "Cu8 H104 C84 N8 O32"
_cell_length_a       8.71355929742069
_cell_length_b       12.84053452560438
_cell_length_c       28.308411057402452
_cell_angle_alpha    90.00047087076557
_cell_angle_beta     89.99960384387424
_cell_angle_gamma    90.00267243858931

_space_group_name_H-M_alt    "P 1"
_space_group_IT_number       1

loop_
  _space_group_symop_operation_xyz
  'x, y, z'

loop_
  _atom_site_type_symbol
  _atom_site_label
  _atom_site_symmetry_multiplicity
  _atom_site_fract_x
  _atom_site_fract_y
  _atom_site_fract_z
  _atom_site_occupancy
  Cu  Cu1       1.0  0.42845938337703154  0.4665904907843272  0.036876727682205485  1.0000
  Cu  Cu2       1.0  0.42849026644653065  0.0334044357477339  0.4631379219262043  1.0000
  Cu  Cu3       1.0  0.0715111594961968  0.9666051165588172  0.9631349087940959  1.0000
  Cu  Cu4       1.0  0.07149868569669592  0.5333833145710116  0.5368565538571274  1.0000
  Cu  Cu5       1.0  0.5715100751547479  0.5333849544472145  0.9631392121963953  1.0000
  Cu  Cu6       1.0  0.5714929657113926  0.9666224092521818  0.5368582359270775  1.0000
  Cu  Cu7       1.0  0.9285007623076635  0.033385126066868095  0.03686230871556969  1.0000
  Cu  Cu8       1.0  0.9284994644607139  0.46660537023094406  0.4631364246416964  1.0000
  H   H1        1.0  0.2589394222913697  0.26730506479032806  0.0630394341210945  1.0000
  H   H2        1.0  0.25895130743653977  0.23267048047441116  0.4369642774411985  1.0000
  H   H3        1.0  0.2410529923430999  0.7673160137446043  0.9369619203888744  1.0000
  H   H4        1.0  0.2410582349298024  0.7326723296498513  0.5630316489287707  1.0000
  H   H5        1.0  0.7410633179683329  0.7326766111963466  0.9369719134584995  1.0000
  H   H6        1.0  0.7410434003681842  0.7673361163479342  0.5630339998732906  1.0000
  H   H7        1.0  0.7589612245360655  0.23266721982822952  0.06303141133432887  1.0000
  H   H8        1.0  0.7589640154739354  0.26731401921711745  0.4369652153105789  1.0000
  H   H9        1.0  0.3232524397248326  0.5420601010491383  0.13594259183147267  1.0000
  H   H10       1.0  0.3232802816343181  0.9579288086086565  0.36406214137592485  1.0000
  H   H11       1.0  0.1767531748788755  0.04205091601038191  0.8640625138335378  1.0000
  H   H12       1.0  0.1767722953630866  0.45793730324628257  0.6359346260777128  1.0000
  H   H13       1.0  0.6767227584036277  0.4579488317616409  0.8640496802261308  1.0000
  H   H14       1.0  0.6767224594356022  0.0420723368575011  0.6359364891716125  1.0000
  H   H15       1.0  0.8232518609633671  0.957935432593878  0.13593541018009597  1.0000
  H   H16       1.0  0.8232258550609329  0.5420607270057544  0.3640632979651669  1.0000
  H   H17       1.0  0.09344353328380349  0.19328117499728137  0.12590877503857456  1.0000
  H   H18       1.0  0.09346763909833558  0.3066992591754881  0.3740931743497668  1.0000
  H   H19       1.0  0.40654493826020394  0.6932892131318837  0.8740894770487841  1.0000
  H   H20       1.0  0.40654469956037076  0.8067176048210098  0.6259026752205655  1.0000
  H   H21       1.0  0.9065569119442001  0.8067067312009613  0.8741000997918319  1.0000
  H   H22       1.0  0.9065236259721557  0.6933127890884377  0.6259061627343099  1.0000
  H   H23       1.0  0.5934704260949389  0.3066893477564249  0.1259038546644575  1.0000
  H   H24       1.0  0.5934718127019422  0.19327030153233685  0.3740952487835827  1.0000
  H   H25       1.0  0.1534740408525082  0.4828245000634723  0.20228019213924844  1.0000
  H   H26       1.0  0.15352468281599835  0.017150045709009003  0.2977166820639637  1.0000
  H   H27       1.0  0.3465125375068751  0.9828300365776172  0.7977223203713847  1.0000
  H   H28       1.0  0.346527420577651  0.51716943105356  0.7022752602693955  1.0000
  H   H29       1.0  0.8464885336482767  0.5171945567144007  0.7977096071875847  1.0000
  H   H30       1.0  0.8464757634855004  0.9828658966158415  0.702282301765578  1.0000
  H   H31       1.0  0.6535062699399957  0.0171563122732294  0.20227878289448845  1.0000
  H   H32       1.0  0.6534718775137093  0.48282937799721276  0.29772231052179166  1.0000
  H   H33       1.0  0.9312234114947273  0.23118055034021268  0.19549044088562784  1.0000
  H   H34       1.0  0.9312395645741273  0.2687788810836409  0.3045160580578141  1.0000
  H   H35       1.0  0.568753975715687  0.7311914410407921  0.8045132316615663  1.0000
  H   H36       1.0  0.5687518860876181  0.7688290749993881  0.6954806899022613  1.0000
  H   H37       1.0  0.06874604871414648  0.7688416218605952  0.8045191405460057  1.0000
  H   H38       1.0  0.0687505526409851  0.7312277157012375  0.6954861050325363  1.0000
  H   H39       1.0  0.43124991264726015  0.26879880144504387  0.1954825728491727  1.0000
  H   H40       1.0  0.4312462642298769  0.23116506131139397  0.3045147613700436  1.0000
  H   H41       1.0  0.9337923789521196  0.356107875283385  0.22224526377629414  1.0000
  H   H42       1.0  0.9338085659012447  0.1438368405119803  0.27776052308887955  1.0000
  H   H43       1.0  0.5662073713774232  0.8561244314440302  0.7777613480010003  1.0000
  H   H44       1.0  0.5662121646172904  0.6438913314502132  0.7222336388008868  1.0000
  H   H45       1.0  0.06619773911091899  0.6439252002011101  0.7777625513938914  1.0000
  H   H46       1.0  0.06619417548220238  0.8561736503659176  0.7222388139799063  1.0000
  H   H47       1.0  0.43379651691300575  0.1438634746840819  0.22223375000157822  1.0000
  H   H48       1.0  0.4337974619367272  0.3560989111200002  0.27776145919985135  1.0000
  H   H49       1.0  0.17987752931212236  0.18803064685145185  0.23662488250898406  1.0000
  H   H50       1.0  0.17987690346394197  0.31194161823540867  0.2633705217268627  1.0000
  H   H51       1.0  0.32012779611660136  0.6880487451991044  0.7633669914392129  1.0000
  H   H52       1.0  0.3201208763853458  0.8119592327868544  0.7366278201961762  1.0000
  H   H53       1.0  0.82012980309603  0.8119938622102792  0.7633748078329174  1.0000
  H   H54       1.0  0.820101737950928  0.6880813328241114  0.7366312881545125  1.0000
  H   H55       1.0  0.6798875686161736  0.3119422762712034  0.23663093257199816  1.0000
  H   H56       1.0  0.6798795687607678  0.18802322183867654  0.2633715168227511  1.0000
  H   H57       1.0  0.9940905018099355  0.5296440630379705  0.9556173095298062  1.0000
  H   H58       1.0  0.994055120212387  0.9703509690798172  0.5444078395514893  1.0000
  H   H59       1.0  0.5059395881335218  0.029645799691401496  0.044396207960367896  1.0000
  H   H60       1.0  0.5059318283471512  0.47034301053422206  0.4556009650386627  1.0000
  H   H61       1.0  0.005912239344610299  0.47036409160998005  0.044395451106829895  1.0000
  H   H62       1.0  0.005931553600582601  0.029644724773525904  0.455604921079228  1.0000
  H   H63       1.0  0.4940803672787836  0.9703452217429103  0.955589705481273  1.0000
  H   H64       1.0  0.49407779818496766  0.5296503472765295  0.5444057902806136  1.0000
  H   H65       1.0  0.08886253940481478  0.5197581504336597  0.8992491561318514  1.0000
  H   H66       1.0  0.08887823455430777  0.9802635392325598  0.6007712357414903  1.0000
  H   H67       1.0  0.41113809839342946  0.019746468110696504  0.10076434430368407  1.0000
  H   H68       1.0  0.4111437429216733  0.4802261039649024  0.39923338659943397  1.0000
  H   H69       1.0  0.9111080682598994  0.4802601279047351  0.10076466431407739  1.0000
  H   H70       1.0  0.9111405732852444  0.019736048993649998  0.3992355195794983  1.0000
  H   H71       1.0  0.5888772665631592  0.9802484472050349  0.8992254549210866  1.0000
  H   H72       1.0  0.5888876882331997  0.5197524572701866  0.6007701894015652  1.0000
  H   H73       1.0  0.08035434918127042  0.6406777041070127  0.9287982060302438  1.0000
  H   H74       1.0  0.08037500672231347  0.8593499469114433  0.5712398668149135  1.0000
  H   H75       1.0  0.4196500133822666  0.1406595264030344  0.07123022923234859  1.0000
  H   H76       1.0  0.4196501320819194  0.35932266031888094  0.4287734885979261  1.0000
  H   H77       1.0  0.9196311777702487  0.3593475837098694  0.0712364562747752  1.0000
  H   H78       1.0  0.9196598681630659  0.1406550931000865  0.42877183402551816  1.0000
  H   H79       1.0  0.5803584654743118  0.8593283797817151  0.9287631025057762  1.0000
  H   H80       1.0  0.580377856387784  0.6406636887346905  0.5712339731922426  1.0000
  H   H81       1.0  0.5629929445331426  0.20137792731595985  0.9117846065278667  1.0000
  H   H82       1.0  0.5629987227146528  0.2986489891203021  0.5882187645325985  1.0000
  H   H83       1.0  0.9370030496069288  0.7013594752457946  0.0882171884015435  1.0000
  H   H84       1.0  0.9369947802132685  0.798644955863729  0.4117826871341207  1.0000
  H   H85       1.0  0.43698454874527926  0.7986286692149278  0.08821155129380288  1.0000
  H   H86       1.0  0.4369661472758111  0.7013786343793456  0.4117780998457618  1.0000
  H   H87       1.0  0.06299739614726718  0.2986408914130577  0.9117828551546195  1.0000
  H   H88       1.0  0.06299418894846548  0.20134918035294186  0.5882184161784991  1.0000
  H   H89       1.0  0.3951771987942648  0.17092124508808124  0.9462702411020769  1.0000
  H   H90       1.0  0.3951617338323742  0.3290855652382375  0.5537292532715766  1.0000
  H   H91       1.0  0.10482235899520727  0.6709282635037895  0.05372969373862448  1.0000
  H   H92       1.0  0.10482689546744688  0.8290802143726451  0.44627162539750026  1.0000
  H   H93       1.0  0.604809475284938  0.8290791213816887  0.053732981736054286  1.0000
  H   H94       1.0  0.6048054316925331  0.6709482885296083  0.446263372093135  1.0000
  H   H95       1.0  0.8951689053288021  0.3290627576172653  0.9462717628176021  1.0000
  H   H96       1.0  0.8951632212373183  0.17090847029904668  0.5537209998581004  1.0000
  H   H97       1.0  0.579766885329377  0.15624431787836807  0.9714017676096062  1.0000
  H   H98       1.0  0.5797610201092952  0.3437807926141615  0.5285959152110706  1.0000
  H   H99       1.0  0.9202260051415578  0.6562297082422076  0.0285945600222988  1.0000
  H   H100      1.0  0.9202298477439185  0.8437578378424888  0.4714035854345439  1.0000
  H   H101      1.0  0.4202048692798641  0.8437482604569198  0.028594743443988994  1.0000
  H   H102      1.0  0.42021532617965807  0.6562437158999472  0.47139741663007567  1.0000
  H   H103      1.0  0.0797583735767802  0.3437675430401653  0.9714068965529918  1.0000
  H   H104      1.0  0.0797556788024281  0.1562448649412929  0.5285975178977864  1.0000
  C   C1        1.0  0.235187946916028  0.3113693440090444  0.09509573897518209  1.0000
  C   C2        1.0  0.2351975117275558  0.18861635276389416  0.4049023718627537  1.0000
  C   C3        1.0  0.2648074976788166  0.8113695616002873  0.9049050735443128  1.0000
  C   C4        1.0  0.2648319537411794  0.6886171972418395  0.5950909172218031  1.0000
  C   C5        1.0  0.7648067603050277  0.6886232347883305  0.9049117228625433  1.0000
  C   C6        1.0  0.7647960484901616  0.8113918016110516  0.5950962587077837  1.0000
  C   C7        1.0  0.7352021285845466  0.1886121143451547  0.09508967118853207  1.0000
  C   C8        1.0  0.7351868537408774  0.3113691515802515  0.4049070067769661  1.0000
  C   C9        1.0  0.27003732647238365  0.4650811536292848  0.1357397389719708  1.0000
  C   C10       1.0  0.2700739447236912  0.0349118763131884  0.3642597096106782  1.0000
  C   C11       1.0  0.22995262178164916  0.9650740820643049  0.8642627072575875  1.0000
  C   C12       1.0  0.22996446041527457  0.534919361821899  0.6357375978166784  1.0000
  C   C13       1.0  0.7299332809175211  0.5349231064317692  0.8642553590970717  1.0000
  C   C14       1.0  0.7299230582237611  0.9650916054295137  0.6357406872069118  1.0000
  C   C15       1.0  0.7700638906028273  0.03491771821752819  0.13573627650954018  1.0000
  C   C16       1.0  0.7700313946551133  0.46507633204249293  0.36426032622431126  1.0000
  C   C17       1.0  0.14138982703003927  0.2710840315178372  0.1304463891930183  1.0000
  C   C18       1.0  0.1414109779374257  0.22889246785592832  0.3695505111381222  1.0000
  C   C19       1.0  0.3585959615577252  0.7710904707470333  0.8695507404035963  1.0000
  C   C20       1.0  0.3586212577698972  0.7289047065376836  0.6304393958372854  1.0000
  C   C21       1.0  0.858592256314523  0.728911662199003  0.8695593064046461  1.0000
  C   C22       1.0  0.8585768441087679  0.7711156864186746  0.6304470596829075  1.0000
  C   C23       1.0  0.6414079262964236  0.22888497484699144  0.1304450640795167  1.0000
  C   C24       1.0  0.641384925976787  0.2710894299225259  0.36955852818964974  1.0000
  C   C25       1.0  0.10812380474227008  0.332347667699345  0.16998849744939545  1.0000
  C   C26       1.0  0.10813243631850608  0.16761843372424323  0.3300109474677057  1.0000
  C   C27       1.0  0.39186390178918623  0.8323575592833024  0.8300116869260703  1.0000
  C   C28       1.0  0.39187837153214383  0.667648015716466  0.6699840295436204  1.0000
  C   C29       1.0  0.8918525408486744  0.6676589288549194  0.8300122526482168  1.0000
  C   C30       1.0  0.8918599760633866  0.8323842691556746  0.6699887428495898  1.0000
  C   C31       1.0  0.6081399865117944  0.16763190444750356  0.16998729685032285  1.0000
  C   C32       1.0  0.6081186311056967  0.33234612061129815  0.3300153075008224  1.0000
  C   C33       1.0  0.1756518288579514  0.43137111461577143  0.17234232683464507  1.0000
  C   C34       1.0  0.175689279702695  0.0686049113635292  0.32765873852171973  1.0000
  C   C35       1.0  0.3243300633167436  0.9313741545930938  0.8276589337930316  1.0000
  C   C36       1.0  0.32435373819283336  0.5686238326485692  0.672338341480369  1.0000
  C   C37       1.0  0.8243095979436319  0.5686479421950636  0.8276531245238344  1.0000
  C   C38       1.0  0.8243111663382547  0.9314040219232779  0.6723420115542351  1.0000
  C   C39       1.0  0.6756830061153635  0.0686168668632732  0.17234146298395803  1.0000
  C   C40       1.0  0.6756524454545526  0.43136718867013  0.3276588760369491  1.0000
  C   C41       1.0  0.0074145949776536  0.2926261191414739  0.2090758547822914  1.0000
  C   C42       1.0  0.0074302663605080995  0.20733913277820898  0.2909199218077489  1.0000
  C   C43       1.0  0.49257497038244924  0.7926338169789416  0.7909217085029494  1.0000
  C   C44       1.0  0.4925809782037545  0.7073788377865498  0.7090727307763557  1.0000
  C   C45       1.0  0.9925697845506818  0.7073960532601757  0.7909298408623326  1.0000
  C   C46       1.0  0.9925621463505436  0.7926729155006739  0.7090790620231926  1.0000
  C   C47       1.0  0.5074346561363825  0.20735642562001996  0.2090765687648997  1.0000
  C   C48       1.0  0.5074252054704117  0.2926129623159284  0.2909244867424192  1.0000
  C   C49       1.0  0.10400236697486058  0.2499872687172413  0.24999460476806945  1.0000
  C   C50       1.0  0.39600033337644186  0.7500036315811726  0.7499960875190083  1.0000
  C   C51       1.0  0.8959888983092767  0.7500317886230691  0.7500072050924016  1.0000
  C   C52       1.0  0.6040092929778067  0.24998193831831364  0.2500025429920214  1.0000
  C   C53       1.0  0.242372573461509  0.5346241987080802  0.9580428514323598  1.0000
  C   C54       1.0  0.2423816624148785  0.9654093560790785  0.5419648451922967  1.0000
  C   C55       1.0  0.2576428580113372  0.03459803014201409  0.04195374837897959  1.0000
  C   C56       1.0  0.25762093197145214  0.4653914916248779  0.45804396076317017  1.0000
  C   C57       1.0  0.7576313157030297  0.46539174370956726  0.04196037141627329  1.0000
  C   C58       1.0  0.7576279645451081  0.034597241078287794  0.4580443829149912  1.0000
  C   C59       1.0  0.7423943118547527  0.9653906552260237  0.9580335780473204  1.0000
  C   C60       1.0  0.7424059091227446  0.5346010876424356  0.5419592620170589  1.0000
  C   C61       1.0  0.506604805859844  0.3141882463937549  0.965599625764298  1.0000
  C   C62       1.0  0.5066028687341628  0.1858088497339452  0.5343890304232273  1.0000
  C   C63       1.0  0.9933828804658017  0.8141970832009875  0.0343898733919161  1.0000
  C   C64       1.0  0.99339779301053  0.6857912197770587  0.4656049348257198  1.0000
  C   C65       1.0  0.4934071162084876  0.685809005266776  0.034395472247055595  1.0000
  C   C66       1.0  0.4933769206131016  0.8142211103530241  0.46560783394338046  1.0000
  C   C67       1.0  0.006612974314514  0.1857892652324935  0.965605224616425  1.0000
  C   C68       1.0  0.0066141288574428  0.314202138018885  0.5343961684606668  1.0000
  C   C69       1.0  0.09084882552551218  0.556456347444687  0.9342303451810848  1.0000
  C   C70       1.0  0.0908616237776911  0.9435692989019341  0.5657868631468475  1.0000
  C   C71       1.0  0.4091508929776708  0.056439296817671895  0.06577905325419658  1.0000
  C   C72       1.0  0.4091348778017192  0.44354255748746846  0.4342222144994422  1.0000
  C   C73       1.0  0.9091470301343845  0.4435611524965069  0.0657820622285357  1.0000
  C   C74       1.0  0.9091457077561385  0.0564326255100625  0.43422165845039007  1.0000
  C   C75       1.0  0.5908748005291428  0.9435501671685956  0.934210039445446  1.0000
  C   C76       1.0  0.5908862248676244  0.556443791441211  0.5657834810386504  1.0000
  C   C77       1.0  0.5114006387715689  0.2039910283002513  0.9470229571672987  1.0000
  C   C78       1.0  0.5114012781440564  0.29600699845420303  0.55297522646525  1.0000
  C   C79       1.0  0.9885886502639422  0.7040000494746649  0.05297284229570209  1.0000
  C   C80       1.0  0.988595485637397  0.7959919956580064  0.44702515555653105  1.0000
  C   C81       1.0  0.48858259231129597  0.7960046653516815  0.05297355387972399  1.0000
  C   C82       1.0  0.4885704776356261  0.704019846373775  0.44702199115612  1.0000
  C   C83       1.0  0.0114083522935573  0.2959917505017629  0.947026494744385  1.0000
  C   C84       1.0  0.0113980741473654  0.20400447698580848  0.5529763010073905  1.0000
  N   N1        1.0  0.2991673411200821  0.40639913163039393  0.09745557001767927  1.0000
  N   N2        1.0  0.29918534219789444  0.093587031706555  0.4025438156742282  1.0000
  N   N3        1.0  0.2008334911822232  0.906403512945985  0.9025494831172264  1.0000
  N   N4        1.0  0.20084791673574637  0.5935866734409813  0.5974501783188799  1.0000
  N   N5        1.0  0.7008227754629031  0.5935903319464729  0.9025504788115837  1.0000
  N   N6        1.0  0.7008082179088005  0.9064180075364732  0.5974551681423887  1.0000
  N   N7        1.0  0.7991841684104484  0.0935758268135274  0.09744950062539458  1.0000
  N   N8        1.0  0.7991605621771213  0.4064043479204145  0.4025477456997564  1.0000
  O   O1        1.0  0.23773668216143307  0.49763149501178827  0.9998314274199626  1.0000
  O   O2        1.0  0.23771600188757697  0.0023820163776307  0.5001698199276631  1.0000
  O   O3        1.0  0.262296819499987  0.9976214986081045  0.0001633687587344  1.0000
  O   O4        1.0  0.2622926221370463  0.5023717124623914  0.4998390233443998  1.0000
  O   O5        1.0  0.7622821254042761  0.5023579689645885  0.00016861609602609998  1.0000
  O   O6        1.0  0.7622832966554894  0.9976347048342475  0.4998425874767846  1.0000
  O   O7        1.0  0.7377300210643084  0.0023531685620028003  0.9998320824462466  1.0000
  O   O8        1.0  0.7377411051675934  0.49763176987397617  0.5001627864411516  1.0000
  O   O9        1.0  0.36344807949704006  0.555794802762719  0.9346299307966388  1.0000
  O   O10       1.0  0.363465522678858  0.9442262278388965  0.5653690263217255  1.0000
  O   O11       1.0  0.13654011668315036  0.0557597755220556  0.0653653350712915  1.0000
  O   O12       1.0  0.1365275825258649  0.4442368182927509  0.43463334206481347  1.0000
  O   O13       1.0  0.6365489241734393  0.4442297061420248  0.06537046606021589  1.0000
  O   O14       1.0  0.6365486941488924  0.055757784581608384  0.4346313704409325  1.0000
  O   O15       1.0  0.863476396048476  0.9442382549213876  0.9346216381428574  1.0000
  O   O16       1.0  0.8634866353562101  0.5557799031039962  0.5653734132931233  1.0000
  O   O17       1.0  0.4416561906530345  0.32689685498073107  0.005588225313587699  1.0000
  O   O18       1.0  0.44163401615885783  0.17310705458088188  0.4944006084853853  1.0000
  O   O19       1.0  0.058355241279919284  0.8269007266910363  0.99440346062601  1.0000
  O   O20       1.0  0.0583794628845951  0.6730911827863576  0.5055919161694857  1.0000
  O   O21       1.0  0.5584050796288408  0.6730980611761197  0.9944142909300381  1.0000
  O   O22       1.0  0.5583859401086001  0.8269112243527982  0.5055927232970487  1.0000
  O   O23       1.0  0.9416233990610721  0.1730895154082219  0.005593756919594698  1.0000
  O   O24       1.0  0.9416336068315232  0.3269068476888819  0.49440459484968347  1.0000
  O   O25       1.0  0.5685867935993159  0.38531610172357494  0.9405661424784596  1.0000
  O   O26       1.0  0.568625316542672  0.11468918615653222  0.5594273253747275  1.0000
  O   O27       1.0  0.9313667644819787  0.8853234300167896  0.05942750807508899  1.0000
  O   O28       1.0  0.9313601253397291  0.6146675834874386  0.44057202635183046  1.0000
  O   O29       1.0  0.4313803707440158  0.6146827067550333  0.05942436330941799  1.0000
  O   O30       1.0  0.43133496291838463  0.8853415524790904  0.4405776638081065  1.0000
  O   O31       1.0  0.06864745296167739  0.11467849443064179  0.9405728887210142  1.0000
  O   O32       1.0  0.06864146770749359  0.38532188019108565  0.5594251911675413  1.0000
