data_image0
_chemical_formula_structural       Zn2H30C38N4O8
_chemical_formula_sum              "Zn2 H30 C38 N4 O8"
_cell_length_a       7.438639152413941
_cell_length_b       9.872119501920519
_cell_length_c       12.100499468855277
_cell_angle_alpha    83.02946260536307
_cell_angle_beta     85.76742329977709
_cell_angle_gamma    68.35531886678372

_space_group_name_H-M_alt    "P 1"
_space_group_IT_number       1

loop_
  _space_group_symop_operation_xyz
  'x, y, z'

loop_
  _atom_site_type_symbol
  _atom_site_label
  _atom_site_symmetry_multiplicity
  _atom_site_fract_x
  _atom_site_fract_y
  _atom_site_fract_z
  _atom_site_occupancy
  Zn  Zn1       1.0  0.18920907190043573  0.0663070037628657  0.0255327957232367  1.0000
  Zn  Zn2       1.0  0.8107946714159626  0.9336909271890262  0.974469011547292  1.0000
  H   H1        1.0  0.9593516580907885  0.04644230797101301  0.6090716451833202  1.0000
  H   H2        1.0  0.040644269117819806  0.9535578118136671  0.390933587268357  1.0000
  H   H3        1.0  0.10254098205085424  0.16883386425330826  0.4549082545134055  1.0000
  H   H4        1.0  0.8974541885786494  0.8311706374086897  0.5450965836522457  1.0000
  H   H5        1.0  0.40715220894355025  0.2086712952440308  0.4832735285773921  1.0000
  H   H6        1.0  0.5928470175888947  0.7913332074806476  0.5167294840881453  1.0000
  H   H7        1.0  0.5717420738473961  0.11761947066096921  0.6645258515844148  1.0000
  H   H8        1.0  0.4282614270514741  0.8823817457629987  0.3354772990772119  1.0000
  H   H9        1.0  0.42312521364826233  0.2653089578473882  0.929011604215674  1.0000
  H   H10       1.0  0.5768669479830275  0.7346878791851881  0.07098749657041739  1.0000
  H   H11       1.0  0.23407403378946154  0.545658596067689  0.8195677095801484  1.0000
  H   H12       1.0  0.7659235317200767  0.45433824206658363  0.18042950835367574  1.0000
  H   H13       1.0  0.7750407430699365  0.26271657919718905  0.0001538076088465147  1.0000
  H   H14       1.0  0.2249514365268864  0.737280259253886  0.9998428130117674  1.0000
  H   H15       1.0  0.7358662258210201  0.30630282770118816  0.8545678598964415  1.0000
  H   H16       1.0  0.26413053581735096  0.693692916352994  0.1454270194575216  1.0000
  H   H17       1.0  0.6562409119470443  0.44802680599264744  0.94510841000681  1.0000
  H   H18       1.0  0.3437544957275092  0.5519689375496952  0.054887353421136716  1.0000
  H   H19       1.0  0.8999618075628886  0.694680846513819  0.7828564043929802  1.0000
  H   H20       1.0  0.10004089545331846  0.30531927630288896  0.21714358096696876  1.0000
  H   H21       1.0  0.7257980275763741  0.6583601607707195  0.8753943906718575  1.0000
  H   H22       1.0  0.2742025295818776  0.34163886839972696  0.12460248673855999  1.0000
  H   H23       1.0  0.002391779728782134  0.4377086084939421  0.6399931473273383  1.0000
  H   H24       1.0  0.9976109232874246  0.5622915143227659  0.36000683803261063  1.0000
  H   H25       1.0  0.8407732246964698  0.38586355579489146  0.49196787389749375  1.0000
  H   H26       1.0  0.15923594645221323  0.6141343781500197  0.5080287436334601  1.0000
  H   H27       1.0  0.28670647169420954  0.6583705118899418  0.6258286031358296  1.0000
  H   H28       1.0  0.7133018895947955  0.34162632750205546  0.3741665025371006  1.0000
  H   H29       1.0  0.44884839267137255  0.7078108446494086  0.7728343692196944  1.0000
  H   H30       1.0  0.5511489956782327  0.2921947563328402  0.22716365623357856  1.0000
  C   C1        1.0  0.08695813540287374  0.9383824503698862  0.8098984338447008  1.0000
  C   C2        1.0  0.9130447740997949  0.06161438413775502  0.1901051684550978  1.0000
  C   C3        1.0  0.1843804006162912  0.013244816274635704  0.7232913603642571  1.0000
  C   C4        1.0  0.8156190563566521  0.9867564000323058  0.2767119623538363  1.0000
  C   C5        1.0  0.09352137391779537  0.0630939279719271  0.620843857472792  1.0000
  C   C6        1.0  0.9064719166092913  0.9369116686378121  0.3791617805333729  1.0000
  C   C7        1.0  0.1731900934761228  0.1326661194693841  0.5348235232316654  1.0000
  C   C8        1.0  0.8268034807720351  0.8673416671528501  0.46518354239906057  1.0000
  C   C9        1.0  0.3442387308159596  0.1547087310607438  0.5503094112666389  1.0000
  C   C10       1.0  0.6557533009474594  0.8453023447772169  0.4496924413327363  1.0000
  C   C11       1.0  0.4364033809793708  0.10400502151701121  0.6511581462820217  1.0000
  C   C12       1.0  0.5635937350101512  0.8960038625731457  0.3488453561714806  1.0000
  C   C13       1.0  0.3593949506760195  0.0321493121860001  0.738380903429011  1.0000
  C   C14       1.0  0.6406056358087535  0.9678551915233559  0.26162039844071927  1.0000
  C   C15       1.0  0.47046152275910885  0.9736847571940076  0.842923678302597  1.0000
  C   C16       1.0  0.529541174268587  0.026315365149869804  0.1570771337791754  1.0000
  C   C17       1.0  0.2720205179896454  0.3247667500774085  0.9108622168824139  1.0000
  C   C18       1.0  0.7279732933035633  0.6752322784251703  0.0891357740106145  1.0000
  C   C19       1.0  0.1818489943727926  0.46120690088325494  0.8568792397350647  1.0000
  C   C20       1.0  0.8181466970228325  0.5387910326715897  0.14311795131744276  1.0000
  C   C21       1.0  0.9609905834463605  0.3617739583681541  0.913020488236661  1.0000
  C   C22       1.0  0.03900106402334557  0.6382239750696641  0.0869768748723203  1.0000
  C   C23       1.0  0.7713976964109218  0.3436873144114827  0.9291979020041126  1.0000
  C   C24       1.0  0.228596357299807  0.6563084286190205  0.07079874549781809  1.0000
  C   C25       1.0  0.833932450941745  0.6127697892003782  0.8098272889363757  1.0000
  C   C26       1.0  0.1660689100876737  0.38723033405015883  0.1901719270539033  1.0000
  C   C27       1.0  0.7381736868752568  0.579304005639507  0.7167606145562857  1.0000
  C   C28       1.0  0.261829311839051  0.4206983081353641  0.28323914498457725  1.0000
  C   C29       1.0  0.8449965160522763  0.4879611444623961  0.6364549097370613  1.0000
  C   C30       1.0  0.15500672507955918  0.5120378838403994  0.3635435064127037  1.0000
  C   C31       1.0  0.7518608589607181  0.457701982509022  0.5523824416327939  1.0000
  C   C32       1.0  0.24814290232120567  0.5422959498613694  0.4476168854722573  1.0000
  C   C33       1.0  0.5490030400272584  0.5166780932003405  0.5447831226685906  1.0000
  C   C34       1.0  0.45100341720528536  0.48331983924806105  0.4552160897321541  1.0000
  C   C35       1.0  0.44390950027973725  0.6083654224587676  0.6261296293178872  1.0000
  C   C36       1.0  0.5560942669907049  0.39163251038445424  0.37386887106534056  1.0000
  C   C37       1.0  0.5367635902999196  0.6383023327338293  0.7105495630868859  1.0000
  C   C38       1.0  0.4632375935695663  0.36170655336467655  0.28945046042284156  1.0000
  N   N1        1.0  0.1333398976866036  0.26448199691756  0.9456982922991202  1.0000
  N   N2        1.0  0.8666517318175692  0.7355159351017664  0.05430155097533169  1.0000
  N   N3        1.0  0.9870491604882898  0.4828524991779801  0.8591454477578819  1.0000
  N   N4        1.0  0.012947866905619764  0.5171454334702049  0.14085333938611908  1.0000
  O   O1        1.0  0.3922852474882032  0.9257477719355978  0.9295020224880801  1.0000
  O   O2        1.0  0.6077150373099655  0.07425454034276412  0.0705003319225668  1.0000
  O   O3        1.0  0.6427996538613306  0.9712983153819369  0.8396676613084253  1.0000
  O   O4        1.0  0.3572071170348464  0.028701809443120403  0.160328845107756  1.0000
  O   O5        1.0  0.9843560898661392  0.019042187727464497  0.886022405372067  1.0000
  O   O6        1.0  0.015652122326109495  0.9809491676689817  0.11398481027806179  1.0000
  O   O7        1.0  0.09785140796147111  0.8109898530788158  0.8010227656362331  1.0000
  O   O8        1.0  0.9021603100410687  0.1890025969485549  0.19898584716761286  1.0000
