data_image0
_chemical_formula_structural       Tb2Ag2H16C24N8O20
_chemical_formula_sum              "Tb2 Ag2 H16 C24 N8 O20"
_cell_length_a       6.775578018634527
_cell_length_b       9.238379117464824
_cell_length_c       15.041314017061215
_cell_angle_alpha    95.13228791260092
_cell_angle_beta     108.14143310047608
_cell_angle_gamma    103.51561683277012

_space_group_name_H-M_alt    "P 1"
_space_group_IT_number       1

loop_
  _space_group_symop_operation_xyz
  'x, y, z'

loop_
  _atom_site_type_symbol
  _atom_site_label
  _atom_site_symmetry_multiplicity
  _atom_site_fract_x
  _atom_site_fract_y
  _atom_site_fract_z
  _atom_site_occupancy
  Tb  Tb1       1.0  0.08744297778731894  0.5115815093243512  0.2727179858209183  1.0000
  Tb  Tb2       1.0  0.9125404389626296  0.4884117623204746  0.7272890908640122  1.0000
  Ag  Ag1       1.0  0.40485726327773347  0.17771448847783236  0.19808509030315952  1.0000
  Ag  Ag2       1.0  0.5951394398740463  0.822298520351062  0.8019131934771124  1.0000
  H   H1        1.0  0.6678049334050584  0.7282773002344954  0.1605430219927086  1.0000
  H   H2        1.0  0.3322320751454768  0.27172039919750557  0.8394506711883025  1.0000
  H   H3        1.0  0.5897486774542529  0.6563611268399399  0.9838109131649375  1.0000
  H   H4        1.0  0.4102606597900333  0.34365420039748784  0.01618303808410099  1.0000
  H   H5        1.0  0.5684115016801172  0.046007366688058916  0.38299329037222657  1.0000
  H   H6        1.0  0.431581155673527  0.9539864454642384  0.6170009152679228  1.0000
  H   H7        1.0  0.7299200029900703  0.13602650359814564  0.5608999238424204  1.0000
  H   H8        1.0  0.27006915759963596  0.8639662106627242  0.4390944493581728  1.0000
  H   H9        1.0  0.04604869978221163  0.6136664950348775  0.08051208456253531  1.0000
  H   H10       1.0  0.9539335642648155  0.38632737256429556  0.9194842482107362  1.0000
  H   H11       1.0  0.8994955533509809  0.4454444938786608  0.0672757356701581  1.0000
  H   H12       1.0  0.10050921327205496  0.5545613461002932  0.9327255499761334  1.0000
  H   H13       1.0  0.4089803963857719  0.762540426277674  0.29186496166257564  1.0000
  H   H14       1.0  0.5910092134730576  0.2374568412951064  0.708129845409367  1.0000
  H   H15       1.0  0.23001177718237656  0.823040437315534  0.2216172987482423  1.0000
  H   H16       1.0  0.7699606278548146  0.1769819230164131  0.7783636195519108  1.0000
  C   C1        1.0  0.6946150934573508  0.8143332231646312  0.11699682679408605  1.0000
  C   C2        1.0  0.3053929430822251  0.18566502052159  0.8829955413780581  1.0000
  C   C3        1.0  0.6524383925299019  0.7739223240482647  0.019605594831595876  1.0000
  C   C4        1.0  0.3475710690168441  0.22607795554799276  0.9803911071244755  1.0000
  C   C5        1.0  0.7641812765718614  0.025327591682042794  0.009095594202584328  1.0000
  C   C6        1.0  0.23580314199146113  0.9746741065769772  0.9909036441510538  1.0000
  C   C7        1.0  0.8068216705890591  0.06368446790283143  0.1069722112525824  1.0000
  C   C8        1.0  0.19317527879164945  0.9363202287743705  0.8930314006438138  1.0000
  C   C9        1.0  0.9017917028250647  0.22415835931224132  0.15968437698634824  1.0000
  C   C10       1.0  0.09820902077970568  0.7758384803422018  0.8403150178972609  1.0000
  C   C11       1.0  0.8012394237200979  0.1410725217840678  0.9466056868691837  1.0000
  C   C12       1.0  0.19876394283702595  0.8589346686531629  0.05339221795049552  1.0000
  C   C13       1.0  0.6170664108877515  0.16568732647682083  0.4134987771991305  1.0000
  C   C14       1.0  0.38295253120170253  0.8343092106060156  0.5865007123540664  1.0000
  C   C15       1.0  0.7044344126415607  0.21480361192772085  0.5115446386037164  1.0000
  C   C16       1.0  0.2956114938102915  0.7851946720988395  0.48845680074437337  1.0000
  C   C17       1.0  0.7339682932930103  0.4608431016091288  0.48871527376790175  1.0000
  C   C18       1.0  0.2660250844999581  0.5391503380716999  0.5112856468170293  1.0000
  C   C19       1.0  0.6508109041390924  0.41181478690216283  0.39003452598454663  1.0000
  C   C20       1.0  0.3491892118830224  0.5881829934919413  0.6099688745117007  1.0000
  C   C21       1.0  0.631506998643225  0.5220904380564094  0.3209669606352962  1.0000
  C   C22       1.0  0.3684985746887365  0.4779095726466451  0.6790359289773065  1.0000
  C   C23       1.0  0.7968652120151631  0.6269331439059798  0.5328788953524466  1.0000
  C   C24       1.0  0.20313273804486445  0.3730724217376534  0.467129569413828  1.0000
  N   N1        1.0  0.7675653008547133  0.9587635200153888  0.16044030557149117  1.0000
  N   N2        1.0  0.23245250718316157  0.04124102852090771  0.8395597235531298  1.0000
  N   N3        1.0  0.6841832095592582  0.8791190811412551  0.9662708413594318  1.0000
  N   N4        1.0  0.3158425047704085  0.12089135024444181  0.033723937914046986  1.0000
  N   N5        1.0  0.5882592557802582  0.26321577927012646  0.352681605267513  1.0000
  N   N6        1.0  0.41171361563947073  0.7367790127423606  0.6473217075087591  1.0000
  N   N7        1.0  0.7590854218285017  0.36170212384375594  0.5487363093020221  1.0000
  N   N8        1.0  0.2409125254516554  0.6382932454477912  0.4512699680868124  1.0000
  O   O1        1.0  0.10375279919748696  0.2854830142242621  0.18190442921591912  1.0000
  O   O2        1.0  0.8962490703085279  0.7145221775500802  0.8180884703253568  1.0000
  O   O3        1.0  0.781493226063482  0.29486873604533065  0.18367586714610704  1.0000
  O   O4        1.0  0.21850030097321857  0.7051130423626406  0.8163287571031647  1.0000
  O   O5        1.0  0.8356858700908205  0.2795627306590874  0.979595662121305  1.0000
  O   O6        1.0  0.16429439702324095  0.7204422340636327  0.0204080308682606  1.0000
  O   O7        1.0  0.7969625521268424  0.09095110428460632  0.8645206652475609  1.0000
  O   O8        1.0  0.20307980694833838  0.90906373094888  0.13549374102701256  1.0000
  O   O9        1.0  0.45214090713528077  0.5517182296798566  0.28845961576463  1.0000
  O   O10       1.0  0.5478695471550594  0.4482843093093153  0.7115373910084912  1.0000
  O   O11       1.0  0.7925109610532102  0.570098937534027  0.2954145795450032  1.0000
  O   O12       1.0  0.20750039971110829  0.429911317652497  0.7045878430236597  1.0000
  O   O13       1.0  0.763503935209471  0.7199530872035995  0.4791670699665715  1.0000
  O   O14       1.0  0.23647159225421888  0.2800390783866291  0.5208416614739804  1.0000
  O   O15       1.0  0.87955947613532  0.6538542242252491  0.6243183617216417  1.0000
  O   O16       1.0  0.12043871850783465  0.34614039056236834  0.37568055258216054  1.0000
  O   O17       1.0  0.9606105591019866  0.5432772029096924  0.11125496723649056  1.0000
  O   O18       1.0  0.03938723615457461  0.4567196313026329  0.8887454191105705  1.0000
  O   O19       1.0  0.2635865778470219  0.7743875245433146  0.2806387790026506  1.0000
  O   O20       1.0  0.7363701837435956  0.225589483537668  0.719380490646344  1.0000
