data_image0
_chemical_formula_structural       Cu42H216C108I42N36
_chemical_formula_sum              "Cu42 H216 C108 I42 N36"
_cell_length_a       17.311735678910843
_cell_length_b       17.31177597152572
_cell_length_c       22.317507983000034
_cell_angle_alpha    90.00000306029435
_cell_angle_beta     89.99999351844836
_cell_angle_gamma    120.00000992573304

_space_group_name_H-M_alt    "P 1"
_space_group_IT_number       1

loop_
  _space_group_symop_operation_xyz
  'x, y, z'

loop_
  _atom_site_type_symbol
  _atom_site_label
  _atom_site_symmetry_multiplicity
  _atom_site_fract_x
  _atom_site_fract_y
  _atom_site_fract_z
  _atom_site_occupancy
  Cu  Cu1       1.0  0.5000002738941728  0.9999999259657527  0.0552897534276511  1.0000
  Cu  Cu2       1.0  0.5000001960226471  0.5000001392745191  0.7219555944719787  1.0000
  Cu  Cu3       1.0  0.9999966102338006  0.49999817857750617  0.3886190726629977  1.0000
  Cu  Cu4       1.0  3.5957481258030547e-06  0.5000011909147374  0.2780377734926205  1.0000
  Cu  Cu5       1.0  0.5000004515765752  8.347215115429485e-07  0.944708501036942  1.0000
  Cu  Cu6       1.0  0.5000002042853209  0.5000001395713055  0.6113742517037863  1.0000
  Cu  Cu7       1.0  0.6596666435455845  0.08271589091301489  0.0085694781091448  1.0000
  Cu  Cu8       1.0  0.5769505167408652  0.6596680671799078  0.6752375647358946  1.0000
  Cu  Cu9       1.0  0.9172832982276233  0.5769508740832306  0.3418992558719438  1.0000
  Cu  Cu10      1.0  0.34033385510861774  0.9172843914653157  0.008569509195844198  1.0000
  Cu  Cu11      1.0  0.42304954878338913  0.34033254512096534  0.6752375648779605  1.0000
  Cu  Cu12      1.0  0.08271623946821177  0.42304916236512463  0.341899737170877  1.0000
  Cu  Cu13      1.0  0.9172845299892032  0.34033406743876793  0.3247606887478867  1.0000
  Cu  Cu14      1.0  0.5769512333223688  0.917284770201839  0.9914296827636164  1.0000
  Cu  Cu15      1.0  0.6596662595165553  0.5769515555175531  0.6580989971708817  1.0000
  Cu  Cu16      1.0  0.08271558791051345  0.6596665467433809  0.32476117977981994  1.0000
  Cu  Cu17      1.0  0.42304878494991977  0.08271584040178233  0.9914296723090387  1.0000
  Cu  Cu18      1.0  0.34033323092620543  0.4230484792335147  0.6580990079278877  1.0000
  Cu  Cu19      1.0  0.2577866759408493  0.4797302476198483  0.055526359408659694  1.0000
  Cu  Cu20      1.0  0.7780554466788346  0.2577864903476554  0.7221952994730997  1.0000
  Cu  Cu21      1.0  0.5202671572294975  0.7780570965308513  0.388858373323707  1.0000
  Cu  Cu22      1.0  0.7422132380534022  0.5202694568646252  0.0555263391223662  1.0000
  Cu  Cu23      1.0  0.22194436768794656  0.7422132105582974  0.722195333681583  1.0000
  Cu  Cu24      1.0  0.4797332845941114  0.2219431838061752  0.388857915574718  1.0000
  Cu  Cu25      1.0  0.5202682315153664  0.7422134129716296  0.2778047548667928  1.0000
  Cu  Cu26      1.0  0.7780566332256028  0.5202687776213821  0.9444737063748505  1.0000
  Cu  Cu27      1.0  0.25778892738585296  0.7780563726366125  0.6111421632150282  1.0000
  Cu  Cu28      1.0  0.4797316492614386  0.2577862903197073  0.2778047466709879  1.0000
  Cu  Cu29      1.0  0.22194314792373857  0.47973092209143436  0.9444737297865798  1.0000
  Cu  Cu30      1.0  0.742210570074171  0.22194366236651328  0.6111421306577184  1.0000
  Cu  Cu31      1.0  0.10817359977264834  0.35901131035846134  0.0120958872172849  1.0000
  Cu  Cu32      1.0  0.7491615381617861  0.10817305552467352  0.6787643733456363  1.0000
  Cu  Cu33      1.0  0.64098815041644  0.7491630873672789  0.3454269950774389  1.0000
  Cu  Cu34      1.0  0.891827231857185  0.6409886384998771  0.0120958588508842  1.0000
  Cu  Cu35      1.0  0.2508382826953053  0.8918266456144082  0.678764859267524  1.0000
  Cu  Cu36      1.0  0.3590122978975429  0.2508371932028766  0.3454269971220612  1.0000
  Cu  Cu37      1.0  0.6409881298877662  0.8918277040852587  0.3212361250695395  1.0000
  Cu  Cu38      1.0  0.7491626771844581  0.6409890144564303  0.9879046344275082  1.0000
  Cu  Cu39      1.0  0.10817440272183627  0.7491629852435865  0.6545735415324998  1.0000
  Cu  Cu40      1.0  0.3590114108960094  0.10817233247401253  0.3212361212458887  1.0000
  Cu  Cu41      1.0  0.2508373416146198  0.3590115961661198  0.9879046503541531  1.0000
  Cu  Cu42      1.0  0.8918256658904652  0.25083762716820257  0.654573497117859  1.0000
  H   H1        1.0  0.44292570339127496  0.5438626116668035  0.10006492751642782  1.0000
  H   H2        1.0  0.8990622593702825  0.44292413837612105  0.7667338728656007  1.0000
  H   H3        1.0  0.4561340279970313  0.8990621362520843  0.4334000900198589  1.0000
  H   H4        1.0  0.55707420394706  0.4561370925786007  0.1000653688142421  1.0000
  H   H5        1.0  0.10093697069792988  0.5570749846489632  0.7667339100100321  1.0000
  H   H6        1.0  0.5438658295275332  0.10093756620405969  0.4333996217013407  1.0000
  H   H7        1.0  0.4561368701107115  0.5570751014905542  0.2332661789946187  1.0000
  H   H8        1.0  0.8990624849562466  0.4561357051564843  0.8999355729984443  1.0000
  H   H9        1.0  0.44292921078783826  0.8990620106934771  0.566601342377993  1.0000
  H   H10       1.0  0.543862106176668  0.44292435789913026  0.23326617282225467  1.0000
  H   H11       1.0  0.10093730284893344  0.5438639947954016  0.8999351615207445  1.0000
  H   H12       1.0  0.5570706268310417  0.10093769104766892  0.5666008729080758  1.0000
  H   H13       1.0  0.3689390846422568  0.4650963668791093  0.1530632298688346  1.0000
  H   H14       1.0  0.9038437160010631  0.3689378541802668  0.8197321718821796  1.0000
  H   H15       1.0  0.5349055652731706  0.9038455625524692  0.4863952508797453  1.0000
  H   H16       1.0  0.631060147770782  0.5349040040839413  0.1530632198765858  1.0000
  H   H17       1.0  0.09615641729235588  0.6310615127010665  0.8197322124868264  1.0000
  H   H18       1.0  0.4650948619744212  0.09615471726100105  0.4863952373117328  1.0000
  H   H19       1.0  0.5349051599943876  0.6310608526856072  0.1802678763354209  1.0000
  H   H20       1.0  0.9038430091068221  0.5349028766438694  0.8469368255846065  1.0000
  H   H21       1.0  0.3689410261494003  0.90384500927302  0.5136057334276103  1.0000
  H   H22       1.0  0.46509473535836315  0.3689388511292861  0.1802683220667092  1.0000
  H   H23       1.0  0.09615587547315131  0.46509657945176747  0.846937307441209  1.0000
  H   H24       1.0  0.631059152891801  0.09615435925152842  0.5136052573094431  1.0000
  H   H25       1.0  0.24947414632404027  0.4837566323399899  0.1939902959866231  1.0000
  H   H26       1.0  0.7657171407698723  0.24947291062647264  0.8606592359727826  1.0000
  H   H27       1.0  0.5162459263177795  0.7657183524215727  0.5273227574567015  1.0000
  H   H28       1.0  0.7505263246207575  0.5162436490430408  0.1939902748098703  1.0000
  H   H29       1.0  0.23428207526206513  0.7505262118944386  0.8606592694473888  1.0000
  H   H30       1.0  0.4837542506735417  0.23428101602934964  0.5273222998646006  1.0000
  H   H31       1.0  0.5162439871671083  0.7505260553485587  0.1393399229230639  1.0000
  H   H32       1.0  0.7657164029416634  0.5162420839011688  0.8060102187760023  1.0000
  H   H33       1.0  0.24947277307127555  0.7657195261989431  0.4726782271911246  1.0000
  H   H34       1.0  0.48375615844205555  0.24947455982889002  0.1393399140344371  1.0000
  H   H35       1.0  0.23428282125709632  0.48375703891308314  0.806009793198662  1.0000
  H   H36       1.0  0.7505273227236201  0.23428108718921684  0.47267774633742476  1.0000
  H   H37       1.0  0.23058053578711213  0.5681684985884558  0.165927129465139  1.0000
  H   H38       1.0  0.6624122070946044  0.23058205418822544  0.8325965190855626  1.0000
  H   H39       1.0  0.4318316277002906  0.66241398624512  0.49926048608846685  1.0000
  H   H40       1.0  0.7694190282061513  0.4318315388044809  0.1659271031688121  1.0000
  H   H41       1.0  0.33758750141117144  0.7694188907690391  0.832596992408149  1.0000
  H   H42       1.0  0.5681682199820273  0.3375857158575002  0.49926047346377794  1.0000
  H   H43       1.0  0.43183158346960226  0.7694185671298399  0.16740264799442878  1.0000
  H   H44       1.0  0.6624110886307335  0.43182979641187547  0.8340729425464134  1.0000
  H   H45       1.0  0.23058177201421853  0.6624139704905971  0.50074005073526  1.0000
  H   H46       1.0  0.5681688914484653  0.2305817143959104  0.1674026309682333  1.0000
  H   H47       1.0  0.3375881313743108  0.5681693262517484  0.8340725114334334  1.0000
  H   H48       1.0  0.7694180754469855  0.3375857316040721  0.5007400205623611  1.0000
  H   H49       1.0  0.9511923170169754  0.35371676271967806  0.0764905847976465  1.0000
  H   H50       1.0  0.5974706016594307  0.9511908422487847  0.7431582355830884  1.0000
  H   H51       1.0  0.646281349180839  0.5974737537260851  0.40982127809142815  1.0000
  H   H52       1.0  0.04880926135753333  0.6462812741469578  0.0764892859208146  1.0000
  H   H53       1.0  0.4025297872173326  0.04880943618643839  0.7431582255230182  1.0000
  H   H54       1.0  0.35371817836471564  0.40252628235768384  0.4098212868371647  1.0000
  H   H55       1.0  0.6462806958058637  0.048810296597842806  0.2568422692147863  1.0000
  H   H56       1.0  0.5974752694893508  0.6462830322934607  0.9235090105490329  1.0000
  H   H57       1.0  0.9511916456458561  0.5974737673530369  0.5901792152942916  1.0000
  H   H58       1.0  0.3537197657462841  0.9511899844478152  0.25684230052894463  1.0000
  H   H59       1.0  0.40252418129036016  0.3537170010329476  0.9235090130313707  1.0000
  H   H60       1.0  0.04880785494688664  0.4025262677626102  0.590179250627024  1.0000
  H   H61       1.0  0.9608021583168664  0.2647148431017074  0.1076549043232689  1.0000
  H   H62       1.0  0.6960819559341046  0.9607998120512773  0.7743238974926285  1.0000
  H   H63       1.0  0.7352845927552637  0.6960863759883011  0.4409847018568769  1.0000
  H   H64       1.0  0.0391988377576311  0.7352826159558461  0.1076549541814629  1.0000
  H   H65       1.0  0.3039180947826239  0.03920079971771885  0.7743238956358525  1.0000
  H   H66       1.0  0.264715841278516  0.3039139040689208  0.44098471430702096  1.0000
  H   H67       1.0  0.7352817535082607  0.03919946571563328  0.22567704720437123  1.0000
  H   H68       1.0  0.6960878179360819  0.7352852439603267  0.8923455824625393  1.0000
  H   H69       1.0  0.9608028052162536  0.6960871434868138  0.5590157912857521  1.0000
  H   H70       1.0  0.2647187127012387  0.9608008154973078  0.22567708667440908  1.0000
  H   H71       1.0  0.30391163750070394  0.2647147895333574  0.8923455898825238  1.0000
  H   H72       1.0  0.039197277676258586  0.30391346943790865  0.5590158234002018  1.0000
  H   H73       1.0  0.9851706644104183  0.16751864585723558  0.04492433111634849  1.0000
  H   H74       1.0  0.8176499425035503  0.9851699039345405  0.7115960110204398  1.0000
  H   H75       1.0  0.8324820114879116  0.8176512658600785  0.3782541299739748  1.0000
  H   H76       1.0  0.014829918173361992  0.8324803916820257  0.044925283254862294  1.0000
  H   H77       1.0  0.1823504510898886  0.01483037467010461  0.7115960187614688  1.0000
  H   H78       1.0  0.1675178542776762  0.18234843689207733  0.37825414589897116  1.0000
  H   H79       1.0  0.832479619703733  0.014829856602091218  0.2884049241388027  1.0000
  H   H80       1.0  0.8176530187413389  0.8324813002064245  0.9550761493070326  1.0000
  H   H81       1.0  0.9851702245015305  0.8176515640341792  0.6217463628690609  1.0000
  H   H82       1.0  0.16752025948898092  0.9851698466323525  0.2884049730865428  1.0000
  H   H83       1.0  0.18234676082359866  0.16751839944947727  0.9550757152502811  1.0000
  H   H84       1.0  0.014829849016486143  0.18234904855381726  0.6217463921078661  1.0000
  H   H85       1.0  0.9782136977687373  0.1743853968492815  0.9658371868696208  1.0000
  H   H86       1.0  0.8038297909463238  0.9782145646498108  0.632507880253776  1.0000
  H   H87       1.0  0.8256134456671018  0.8038298640540518  0.2991664468417312  1.0000
  H   H88       1.0  0.021786413690648477  0.8256139692477902  0.9658372419616867  1.0000
  H   H89       1.0  0.1961697033207912  0.02178547023862621  0.6325078870758816  1.0000
  H   H90       1.0  0.17438609841478578  0.19617017262368108  0.2991664627363519  1.0000
  H   H91       1.0  0.8256154068820294  0.021785298609238217  0.3674926077285647  1.0000
  H   H92       1.0  0.803828741138595  0.8256144876799425  0.0341637425384818  1.0000
  H   H93       1.0  0.9782162129677942  0.8038301044466892  0.7008335979567164  1.0000
  H   H94       1.0  0.17438412698914613  0.9782147377017408  0.36749265579168616  1.0000
  H   H95       1.0  0.19617084254550574  0.1743855504202685  0.0341633075587779  1.0000
  H   H96       1.0  0.02178418223395076  0.19617017421572308  0.7008340752363722  1.0000
  H   H97       1.0  0.9634282010039144  0.29411778225471624  0.9220124044879298  1.0000
  H   H98       1.0  0.6693105086699661  0.9634292252607325  0.5886817560895423  1.0000
  H   H99       1.0  0.7058807533002777  0.6693098942300466  0.2553439041998828  1.0000
  H   H100      1.0  0.03657249464736614  0.7058821617194013  0.9220124533657241  1.0000
  H   H101      1.0  0.3306893256491392  0.0365704763618879  0.5886821998689413  1.0000
  H   H102      1.0  0.29411970847579033  0.3306903868236547  0.2553439151875381  1.0000
  H   H103      1.0  0.7058824450677221  0.036573056119522176  0.4113182948990469  1.0000
  H   H104      1.0  0.6693100250514019  0.7058827765220171  0.0779876352721516  1.0000
  H   H105      1.0  0.9634274778442986  0.6693089920957932  0.7446565890088195  1.0000
  H   H106      1.0  0.2941170822541106  0.9634269799562102  0.4113183319136482  1.0000
  H   H107      1.0  0.330689552083598  0.2941172613429616  0.0779876415666436  1.0000
  H   H108      1.0  0.03657142202054327  0.33069046454885853  0.7446566224536397  1.0000
  H   H109      1.0  0.9434175071423211  0.36429995727708325  0.9702583848413013  1.0000
  H   H110      1.0  0.5791168681062401  0.9434178006537196  0.6369272895690585  1.0000
  H   H111      1.0  0.6356974694905729  0.5791166279722404  0.3035894353635697  1.0000
  H   H112      1.0  0.0565829371589713  0.6356990752952  0.97025842908738  1.0000
  H   H113      1.0  0.4208832031431341  0.0565828118527918  0.6369272782283701  1.0000
  H   H114      1.0  0.36430240743295167  0.4208830751806972  0.3035894439415046  1.0000
  H   H115      1.0  0.6357002688006473  0.05658448663056249  0.3630732164903065  1.0000
  H   H116      1.0  0.5791175026829407  0.6356998184241006  0.029741659723413198  1.0000
  H   H117      1.0  0.9434185347732296  0.5791166700427723  0.6964110580673832  1.0000
  H   H118      1.0  0.3642998433736578  0.9434161273459338  0.3630732465621378  1.0000
  H   H119      1.0  0.420882415164584  0.3642998861987791  0.0297416610403189  1.0000
  H   H120      1.0  0.056581861089455246  0.4208836086433791  0.6964110934773942  1.0000
  H   H121      1.0  0.7899275631719008  0.2620467656290089  0.9620092605336623  1.0000
  H   H122      1.0  0.5278842248583115  0.789929649781051  0.6286763674346574  1.0000
  H   H123      1.0  0.737953103316336  0.5278833362751031  0.295338956719128  1.0000
  H   H124      1.0  0.2100721259944151  0.7379541786336006  0.9620088475234282  1.0000
  H   H125      1.0  0.4721156034840063  0.21007005162688594  0.6286763579401935  1.0000
  H   H126      1.0  0.2620467748401436  0.47211636692211545  0.295338976320771  1.0000
  H   H127      1.0  0.737956451148655  0.2100723566730809  0.3713227921640724  1.0000
  H   H128      1.0  0.5278811592210956  0.7379543223372593  0.0379903448780468  1.0000
  H   H129      1.0  0.7899276758600066  0.5278816363859562  0.7046601926020273  1.0000
  H   H130      1.0  0.2620436597928303  0.7899282572591346  0.37132282483873513  1.0000
  H   H131      1.0  0.4721190015338266  0.2620462933842092  0.0379903375212578  1.0000
  H   H132      1.0  0.21007074170169904  0.4721159981876609  0.7046611128931417  1.0000
  H   H133      1.0  0.810890126286438  0.18633318817541797  0.9208765294129506  1.0000
  H   H134      1.0  0.6245604886689688  0.8108915638765735  0.5875436350012819  1.0000
  H   H135      1.0  0.8136668070860081  0.6245588279346137  0.2542048825207601  1.0000
  H   H136      1.0  0.1891101466695061  0.813668333949785  0.9208756732662309  1.0000
  H   H137      1.0  0.37543992346294175  0.18910871539395663  0.5875436330743611  1.0000
  H   H138      1.0  0.18633307721757575  0.375440875483406  0.2542049047477306  1.0000
  H   H139      1.0  0.8136708707855717  0.18911055671961918  0.41245596516025534  1.0000
  H   H140      1.0  0.6245577413668498  0.8136681821236635  0.0791235189486272  1.0000
  H   H141      1.0  0.8108904129379936  0.6245578736572169  0.7457942665621147  1.0000
  H   H142      1.0  0.1863295675115566  0.810889723490739  0.4124560052991341  1.0000
  H   H143      1.0  0.3754424132411244  0.18633243337701796  0.0791230688285722  1.0000
  H   H144      1.0  0.18910890962192167  0.37544000483633505  0.745795184704427  1.0000
  H   H145      1.0  0.8237149563556657  0.07330851270479134  0.9718499596234195  1.0000
  H   H146      1.0  0.7504089325367785  0.8237167976227298  0.6385219917381874  1.0000
  H   H147      1.0  0.9266914175840243  0.750407736511406  0.3051787613542913  1.0000
  H   H148      1.0  0.17628482070251994  0.9266911868610704  0.9718504534801795  1.0000
  H   H149      1.0  0.24959056083161352  0.1762832372334202  0.6385215521785524  1.0000
  H   H150      1.0  0.07330812559941083  0.24959230013405434  0.3051783401812642  1.0000
  H   H151      1.0  0.9266926988793998  0.17628338347537212  0.3614789422451281  1.0000
  H   H152      1.0  0.750407291913703  0.9266910629651831  0.0281500826921857  1.0000
  H   H153      1.0  0.8237159834067356  0.7504077730993971  0.694821731654514  1.0000
  H   H154      1.0  0.07330716939311077  0.8237163193668238  0.361478544688012  1.0000
  H   H155      1.0  0.249592626171669  0.07330864166624455  0.028150086975372798  1.0000
  H   H156      1.0  0.17628383505076778  0.24959192795348878  0.6948217495811163  1.0000
  H   H157      1.0  0.8281951220456278  0.07380192725891986  0.05155500465901499  1.0000
  H   H158      1.0  0.7543917892226588  0.8281952372190063  0.7182266791761974  1.0000
  H   H159      1.0  0.9261993107138904  0.7543945623689936  0.3848838970559854  1.0000
  H   H160      1.0  0.17180479254206188  0.9261977772468768  0.05155549888613109  1.0000
  H   H161      1.0  0.24560769223457868  0.17180479720931174  0.7182266878583404  1.0000
  H   H162      1.0  0.07380113170366093  0.24560571798936337  0.3848834756760269  1.0000
  H   H163      1.0  0.9261982976644204  0.17180430040517083  0.281773806576318  1.0000
  H   H164      1.0  0.7543956405075248  0.9261985444336746  0.9484450372873923  1.0000
  H   H165      1.0  0.8281965687357058  0.7543954303994129  0.6151165959429363  1.0000
  H   H166      1.0  0.0738015825192447  0.8281954028648641  0.2817738572390311  1.0000
  H   H167      1.0  0.2456056288363442  0.07380197704034694  0.9484450419385694  1.0000
  H   H168      1.0  0.17180383927568232  0.24560484872311153  0.6151166140961806  1.0000
  H   H169      1.0  0.3291295236530089  0.6714950721245145  0.0955747384339674  1.0000
  H   H170      1.0  0.657633935554628  0.3291299115849781  0.7622427882248742  1.0000
  H   H171      1.0  0.3285018842551251  0.6576354490152809  0.4289094458715468  1.0000
  H   H172      1.0  0.6708706284964591  0.3285055432878535  0.0955747164805203  1.0000
  H   H173      1.0  0.3423658728273934  0.6708697891060068  0.7622432570771523  1.0000
  H   H174      1.0  0.6714976404379128  0.34236458696602784  0.42890897635477626  1.0000
  H   H175      1.0  0.3285038366300056  0.6708707303207715  0.2377554874109293  1.0000
  H   H176      1.0  0.6576336680440774  0.3285040053526628  0.9044257775680434  1.0000
  H   H177      1.0  0.32913276001569586  0.6576353490495066  0.5710915390426692  1.0000
  H   H178      1.0  0.6714959607692563  0.3291302178294658  0.2377554654286271  1.0000
  H   H179      1.0  0.3423661190900873  0.6714956945751211  0.9044253502886407  1.0000
  H   H180      1.0  0.6708676545748984  0.3423649303093299  0.5710906215021794  1.0000
  H   H181      1.0  0.4148331446248292  0.6586681839242418  0.0631728192847518  1.0000
  H   H182      1.0  0.7561659399723623  0.41483462301572155  0.7298417667002468  1.0000
  H   H183      1.0  0.3413287813340559  0.7561662269507182  0.3965093245046916  1.0000
  H   H184      1.0  0.5851673458694222  0.3413320981609901  0.06317280533191649  1.0000
  H   H185      1.0  0.24383411739179903  0.5851659889920455  0.7298417925400925  1.0000
  H   H186      1.0  0.6586707482008832  0.2438338092045029  0.39650885205345077  1.0000
  H   H187      1.0  0.3413312288102969  0.5851670640626877  0.2701574002379274  1.0000
  H   H188      1.0  0.7561643958461417  0.3413313465282356  0.9368258963702019  1.0000
  H   H189      1.0  0.4148373378642843  0.7561662670358799  0.6034921082453693  1.0000
  H   H190      1.0  0.6586683196067258  0.41483297277076775  0.2701573828994128  1.0000
  H   H191      1.0  0.24383538644609365  0.6586683532256288  0.9368259252333643  1.0000
  H   H192      1.0  0.5851630718842742  0.24383401214904404  0.6034920902824582  1.0000
  H   H193      1.0  0.8026602430157295  0.17768905011291028  0.1074268373689904  1.0000
  H   H194      1.0  0.6249680495067623  0.8026581115766761  0.7740953772027693  1.0000
  H   H195      1.0  0.8223141558491349  0.6249746907163498  0.4407557283835004  1.0000
  H   H196      1.0  0.1973405743677787  0.8223108982337095  0.1074268770175664  1.0000
  H   H197      1.0  0.3750314236014205  0.1973419225517503  0.7740953756500915  1.0000
  H   H198      1.0  0.17768570057613428  0.37502501170030905  0.440756199426083  1.0000
  H   H199      1.0  0.8223113050811435  0.19734075722716699  0.22590332640682223  1.0000
  H   H200      1.0  0.6249725551784377  0.8223118718802526  0.8925727632545986  1.0000
  H   H201      1.0  0.8026612125848586  0.624975034602528  0.5592434206982873  1.0000
  H   H202      1.0  0.1776879164465796  0.8026596133448932  0.2259038150393309  1.0000
  H   H203      1.0  0.3750280555097873  0.17768931689580816  0.8925727608938628  1.0000
  H   H204      1.0  0.19733944791629898  0.37502615596277167  0.5592438900271901  1.0000
  H   H205      1.0  0.7951349118344025  0.2633287282466058  0.0684843195022395  1.0000
  H   H206      1.0  0.5318050240012794  0.7951344315947892  0.7351510688387819  1.0000
  H   H207      1.0  0.7366743980038492  0.5318099332809467  0.40181455448105646  1.0000
  H   H208      1.0  0.20486648901146498  0.736671797950855  0.0684834588145549  1.0000
  H   H209      1.0  0.4681941214241546  0.20486593624374896  0.7351510594721518  1.0000
  H   H210      1.0  0.2633260418835376  0.4681903469865317  0.4018145738096734  1.0000
  H   H211      1.0  0.7366731689773262  0.2048664232359982  0.2648476425662381  1.0000
  H   H212      1.0  0.5318079720061346  0.7366718987128351  0.9315157335899259  1.0000
  H   H213      1.0  0.7951353402492031  0.5318099729635576  0.5981854909877596  1.0000
  H   H214      1.0  0.2633266243732633  0.7951345247688123  0.26484767534316234  1.0000
  H   H215      1.0  0.46819238872232216  0.2633283787113285  0.931516174706978  1.0000
  H   H216      1.0  0.2048641591470356  0.468190062109116  0.598185963492682  1.0000
  C   C1        1.0  0.40424492463738904  0.536170195699512  0.1408857949179136  1.0000
  C   C2        1.0  0.8680734658691877  0.40424351544868403  0.8075542912157018  1.0000
  C   C3        1.0  0.46382807663044173  0.8680753286067072  0.474219610684294  1.0000
  C   C4        1.0  0.5957546430980684  0.4638298418278382  0.1408857850806484  1.0000
  C   C5        1.0  0.13192600223883497  0.5957565185001458  0.8075547753278157  1.0000
  C   C6        1.0  0.5361714412914437  0.13192470713138948  0.4742186962325903  1.0000
  C   C7        1.0  0.4638292528623963  0.5957557691989946  0.1924457616602027  1.0000
  C   C8        1.0  0.8680737500741954  0.4638291967014538  0.8591138124770339  1.0000
  C   C9        1.0  0.4042468515561167  0.8680749239998846  0.5257818217899838  1.0000
  C   C10       1.0  0.5361703071679002  0.40424426805159897  0.19244575456748686  1.0000
  C   C11       1.0  0.1319260438313846  0.536170503469549  0.8591138460594792  1.0000
  C   C12       1.0  0.5957535698055239  0.13192535560216365  0.5257817983004145  1.0000
  C   C13       1.0  0.2829070427957419  0.5533877373955819  0.1792337200812639  1.0000
  C   C14       1.0  0.7295163480947692  0.2829066360041211  0.8459026623588599  1.0000
  C   C15       1.0  0.44661232763608866  0.7295197281393085  0.5125666319469602  1.0000
  C   C16       1.0  0.7170928527116232  0.44661196642486095  0.1792332508768695  1.0000
  C   C17       1.0  0.27048253663975413  0.717092820097065  0.8459031393803683  1.0000
  C   C18       1.0  0.553386940415045  0.2704793962500814  0.5125666178508013  1.0000
  C   C19       1.0  0.4466118056927398  0.7170929114944115  0.1540969492298174  1.0000
  C   C20       1.0  0.7295205720932855  0.44661277685570866  0.8207658986444528  1.0000
  C   C21       1.0  0.2829074790290703  0.7295203853987147  0.4874339047113736  1.0000
  C   C22       1.0  0.5533883377111621  0.2829077036038258  0.1540964875660578  1.0000
  C   C23       1.0  0.27047864990037584  0.553386345879339  0.8207654727750794  1.0000
  C   C24       1.0  0.717092948063339  0.27047989440918485  0.4874334282620296  1.0000
  C   C25       1.0  0.931153852264295  0.2831348301586517  0.0708322463758222  1.0000
  C   C26       1.0  0.6480206380153956  0.9311531893021578  0.7375021355167775  1.0000
  C   C27       1.0  0.7168703150450355  0.6480245007160266  0.4041633862884311  1.0000
  C   C28       1.0  0.06884721472800943  0.7168660295272671  0.0708322928911826  1.0000
  C   C29       1.0  0.351979418203996  0.06884742266448997  0.7375021306887177  1.0000
  C   C30       1.0  0.2831295468486559  0.3519752018970478  0.4041633991098977  1.0000
  C   C31       1.0  0.7168682173645209  0.06884687352071943  0.2624979159210099  1.0000
  C   C32       1.0  0.6480220198755192  0.7168678136099089  0.9291673476408207  1.0000
  C   C33       1.0  0.9311535181242334  0.6480239487975511  0.5958366588939867  1.0000
  C   C34       1.0  0.2831309986945243  0.9311534968549041  0.2624979525660081  1.0000
  C   C35       1.0  0.3519785853439926  0.28313337496972213  0.9291673516271999  1.0000
  C   C36       1.0  0.06884573748297379  0.3519751751448723  0.5958366904001551  1.0000
  C   C37       1.0  0.9501276247673188  0.180231083246106  0.0085833578909345  1.0000
  C   C38       1.0  0.7698964669911136  0.9501275791236098  0.6752559335244185  1.0000
  C   C39       1.0  0.8197693331780724  0.7698975936213229  0.3419158430036191  1.0000
  C   C40       1.0  0.04987296324727445  0.8197679544882278  0.0085843064509277  1.0000
  C   C41       1.0  0.2301035985303983  0.049873033177164065  0.6752559385429748  1.0000
  C   C42       1.0  0.18023078215806979  0.23010302046873926  0.3419149636269978  1.0000
  C   C43       1.0  0.8197692416546049  0.049872925161572795  0.32474410811354193  1.0000
  C   C44       1.0  0.7698973035653297  0.8197693407897833  0.9914162299849139  1.0000
  C   C45       1.0  0.9501285292407075  0.769897512523471  0.6580850980358264  1.0000
  C   C46       1.0  0.18023120975024645  0.950127355519605  0.3247441545115208  1.0000
  C   C47       1.0  0.23010304821154645  0.18023093631284587  0.9914166884443318  1.0000
  C   C48       1.0  0.04987187234947034  0.23010276636841098  0.6580846781047072  1.0000
  C   C49       1.0  0.9299168411868379  0.2957755530505324  0.9633458738909724  1.0000
  C   C50       1.0  0.634143382771441  0.9299169917430776  0.6300134325266313  1.0000
  C   C51       1.0  0.7042270266136439  0.6341459343045911  0.2966742349057796  1.0000
  C   C52       1.0  0.07008375892507229  0.7042256353456365  0.9633450236211375  1.0000
  C   C53       1.0  0.36585644537105816  0.07008270965768305  0.6300134265393709  1.0000
  C   C54       1.0  0.2957734289859886  0.36585434652725723  0.29667424719566066  1.0000
  C   C55       1.0  0.7042280205390697  0.07008437180655851  0.3699870681459884  1.0000
  C   C56       1.0  0.6341421624040748  0.7042258712457681  0.0366546169421085  1.0000
  C   C57       1.0  0.9299172645298556  0.6341433259513568  0.7033253622321496  1.0000
  C   C58       1.0  0.2957720906020286  0.9299162421328263  0.3699871036378751  1.0000
  C   C59       1.0  0.36585833205310087  0.2957744109818137  0.0366541721595155  1.0000
  C   C60       1.0  0.07008230851674563  0.36585546391302876  0.7033258422801579  1.0000
  C   C61       1.0  0.8291060098511169  0.22831103396981708  0.9611381931358096  1.0000
  C   C62       1.0  0.6007921021239397  0.8291063970383449  0.6278075404593508  1.0000
  C   C63       1.0  0.7716852913513605  0.600791902541502  0.29446923598816  1.0000
  C   C64       1.0  0.17089428103552953  0.7716858428646418  0.9611386810867514  1.0000
  C   C65       1.0  0.3992083039909032  0.17089388201605263  0.62780753571068  1.0000
  C   C66       1.0  0.22831458693509182  0.39920780066038475  0.2944692555321282  1.0000
  C   C67       1.0  0.7716870361487479  0.17089477494103275  0.3721920625688355  1.0000
  C   C68       1.0  0.600795276846675  0.7716892282554966  0.0388618554675659  1.0000
  C   C69       1.0  0.8291056521862216  0.600793903833434  0.70553080931073  1.0000
  C   C70       1.0  0.22831316402536572  0.8291045943425956  0.37219209979615897  1.0000
  C   C71       1.0  0.39920430613531016  0.22831080981949733  0.038861853080973695  1.0000
  C   C72       1.0  0.1708943194484575  0.3992079529487569  0.7055308338614806  1.0000
  C   C73       1.0  0.8479768293854802  0.11642979327623944  0.0115303746527573  1.0000
  C   C74       1.0  0.7315478874450393  0.8479775389766433  0.6781993620862607  1.0000
  C   C75       1.0  0.8835709711510089  0.7315482657945225  0.34485837226668536  1.0000
  C   C76       1.0  0.15202309118361482  0.8835699114444038  0.0115295246152058  1.0000
  C   C77       1.0  0.26845217763660395  0.15202307330832812  0.6781993679627689  1.0000
  C   C78       1.0  0.11642889960518941  0.2684514371368891  0.34485929234556767  1.0000
  C   C79       1.0  0.8835709048132115  0.15202316882676584  0.3218006784420027  1.0000
  C   C80       1.0  0.7315486690830965  0.8835709656131597  0.9884705635847055  1.0000
  C   C81       1.0  0.847977654176958  0.7315483160477431  0.6551412246311656  1.0000
  C   C82       1.0  0.11642863588613042  0.8479768677294716  0.321801622358862  1.0000
  C   C83       1.0  0.26845134963147627  0.11642964500635596  0.9884696718397946  1.0000
  C   C84       1.0  0.1520227478531879  0.2684519628599418  0.6551403492916279  1.0000
  C   C85       1.0  0.3812094355480229  0.6549923049680687  0.1055274599439429  1.0000
  C   C86       1.0  0.7262167699592013  0.381209648103038  0.7721981988980885  1.0000
  C   C87       1.0  0.3450059613065262  0.726219107946669  0.43886306683992155  1.0000
  C   C88       1.0  0.6187910486166857  0.3450079768898107  0.1055278912891566  1.0000
  C   C89       1.0  0.2737832810752251  0.6187909636773696  0.7721977754308966  1.0000
  C   C90       1.0  0.6549938954016524  0.2737805944801508  0.43886259594113136  1.0000
  C   C91       1.0  0.34500682590438464  0.6187897603016239  0.2278027615003211  1.0000
  C   C92       1.0  0.7262182713453456  0.3450062267449141  0.8944730507973162  1.0000
  C   C93       1.0  0.38121313013840535  0.7262186298479563  0.5611379179052278  1.0000
  C   C94       1.0  0.6549930623447577  0.38120994325811347  0.2278027430992609  1.0000
  C   C95       1.0  0.2737812731360877  0.6549925620934334  0.8944726288194219  1.0000
  C   C96       1.0  0.6187876194422799  0.27378131606325706  0.5611370020848483  1.0000
  C   C97       1.0  0.82819677240591  0.22322095785225562  0.0689046150580239  1.0000
  C   C98       1.0  0.6049712037075212  0.8281955987833741  0.7355713641509425  1.0000
  C   C99       1.0  0.7767792293349345  0.6049760480738441  0.40223395590205513  1.0000
  C   C100      1.0  0.17180414009698772  0.7767777460572275  0.0689037589029624  1.0000
  C   C101      1.0  0.39502943044313815  0.17180559083544014  0.7355709117254392  1.0000
  C   C102      1.0  0.22322121048978258  0.3950242321913819  0.40223397571806885  1.0000
  C   C103      1.0  0.7767768035960072  0.17180441792189782  0.2644286865518168  1.0000
  C   C104      1.0  0.6049756510838692  0.7767787855877375  0.9310954334027244  1.0000
  C   C105      1.0  0.8281961630234489  0.6049763104457497  0.5977656413077667  1.0000
  C   C106      1.0  0.22322365682241938  0.8281958630830387  0.2644287241855423  1.0000
  C   C107      1.0  0.39502379856211417  0.22322124769794977  0.9310954311713076  1.0000
  C   C108      1.0  0.17180358057561312  0.39502463577203173  0.5977661136858785  1.0000
  I   I1        1.0  0.17613422340283347  0.3143056633413651  0.10429838199949158  1.0000
  I   I2        1.0  0.861827400980239  0.17613486436136586  0.7709677646533989  1.0000
  I   I3        1.0  0.6856937162180544  0.8618302094725508  0.4376285979527736  1.0000
  I   I4        1.0  0.8238656833029198  0.6856940408813159  0.1042979133192361  1.0000
  I   I5        1.0  0.13817240609795062  0.8238648362827874  0.7709678095250894  1.0000
  I   I6        1.0  0.31430671831726903  0.13817007060268346  0.4376285992611387  1.0000
  I   I7        1.0  0.6856922948283  0.8238656211773545  0.2290327269007477  1.0000
  I   I8        1.0  0.8618291755567496  0.6856943793628999  0.895702579849008  1.0000
  I   I9        1.0  0.17613649890295585  0.8618295221625728  0.5623719383794636  1.0000
  I   I10       1.0  0.3143075932370324  0.1761340823757821  0.22903272977062983  1.0000
  I   I11       1.0  0.13817061288098387  0.31430532061170163  0.8957026037608243  1.0000
  I   I12       1.0  0.8238633393479374  0.1381701796012748  0.5623718952564687  1.0000
  I   I13       1.0  0.13491644635626424  0.5246068327300647  0.0308748678412343  1.0000
  I   I14       1.0  0.6103089731753212  0.13491758197213238  0.6975420140973937  1.0000
  I   I15       1.0  0.4753919156602749  0.610310602608081  0.3642064259041717  1.0000
  I   I16       1.0  0.8650834713219167  0.47539287188674  0.030874834995195496  1.0000
  I   I17       1.0  0.3896914225183608  0.8650826967079511  0.6975420387330615  1.0000
  I   I18       1.0  0.524608529847299  0.38968967786127  0.3642064192209559  1.0000
  I   I19       1.0  0.47539164817711554  0.8650828598683872  0.3024584975911608  1.0000
  I   I20       1.0  0.6103096864475719  0.4753934130836017  0.9691252106126457  1.0000
  I   I21       1.0  0.1349177403211357  0.6103100723512469  0.6357941110479642  1.0000
  I   I22       1.0  0.5246088065581417  0.13491742093241038  0.302458032349513  1.0000
  I   I23       1.0  0.3896903351579086  0.5246071976397462  0.9691252212433881  1.0000
  I   I24       1.0  0.8650817534549232  0.38968996251954735  0.6357936265980797  1.0000
  I   I25       1.0  0.6258291115391186  0.985469582334531  0.10670769537588141  1.0000
  I   I26       1.0  0.6403572220038001  0.6258276213491812  0.7733762065789236  1.0000
  I   I27       1.0  0.014528494147597803  0.6403568916739532  0.4400392860738833  1.0000
  I   I28       1.0  0.3741720394544784  0.014530032514890916  0.1067076863785132  1.0000
  I   I29       1.0  0.359643162357159  0.37417265692383955  0.7733762136417681  1.0000
  I   I30       1.0  0.9854722735300498  0.3596430548872861  0.440039686047939  1.0000
  I   I31       1.0  0.014532547218600157  0.3741713070760682  0.22662297965602107  1.0000
  I   I32       1.0  0.6403601902888311  0.014531539743636284  0.8932919122863295  1.0000
  I   I33       1.0  0.6258291730780527  0.6403602402886152  0.5599599065681033  1.0000
  I   I34       1.0  0.9854689193573876  0.625827973628617  0.2266229425008532  1.0000
  I   I35       1.0  0.359640176151842  0.9854687378857037  0.8932919444942584  1.0000
  I   I36       1.0  0.3741703320306797  0.3596397949892419  0.5599599117664127  1.0000
  I   I37       1.0  0.5937377171393051  0.18747584295549297  0.9999999779699706  1.0000
  I   I38       1.0  0.4062607977999021  0.593736794826043  0.6666662733387057  1.0000
  I   I39       1.0  0.8125233281156882  0.4062611384945358  0.3333324402328159  1.0000
  I   I40       1.0  0.40626278279552946  0.8125244394688379  0.9999999989987671  1.0000
  I   I41       1.0  0.5937390248651794  0.40626290637797524  0.666666261309281  1.0000
  I   I42       1.0  0.18747654436305783  0.593738564498743  0.333332023260752  1.0000
  N   N1        1.0  0.97155828008529  0.27449044680518875  0.014219292803957702  1.0000
  N   N2        1.0  0.6970657317850666  0.9715571769554289  0.6808878383408583  1.0000
  N   N3        1.0  0.7255082757354572  0.6970674943778691  0.3475490910518673  1.0000
  N   N4        1.0  0.028442307087139844  0.7255085908988903  0.014219343197986197  1.0000
  N   N5        1.0  0.302934088754732  0.028442524172248813  0.6808878361273756  1.0000
  N   N6        1.0  0.2744915946186808  0.30293220853909736  0.3475495506879156  1.0000
  N   N7        1.0  0.7255086187244969  0.028443190167251806  0.3191122105819559  1.0000
  N   N8        1.0  0.6970679468023205  0.7255099520740701  0.9857807453914731  1.0000
  N   N9        1.0  0.9715594623258638  0.6970681923182482  0.6524514020883814  1.0000
  N   N10       1.0  0.274491833521985  0.9715570905441596  0.3191122496422594  1.0000
  N   N11       1.0  0.302931494671455  0.2744900809180848  0.9857807532990179  1.0000
  N   N12       1.0  0.028440606603602668  0.3029324201049306  0.6524509870217088  1.0000
  N   N13       1.0  0.8003829630148119  0.16773189249967418  0.0136417246248186  1.0000
  N   N14       1.0  0.6326521071517345  0.8003831263548307  0.6803102641823031  1.0000
  N   N15       1.0  0.8322689677079467  0.6326529985875311  0.3469710635474428  1.0000
  N   N16       1.0  0.19961720137877828  0.8322687233524916  0.0136417644844471  1.0000
  N   N17       1.0  0.3673477134743735  0.199616574775945  0.6803102633932028  1.0000
  N   N18       1.0  0.1677309027326004  0.3673467043325402  0.3469710870635083  1.0000
  N   N19       1.0  0.8322703949587547  0.19961729600678513  0.3196888867368131  1.0000
  N   N20       1.0  0.6326520194557831  0.8322678127853964  0.9863578757632182  1.0000
  N   N21       1.0  0.8003841586352962  0.6326530131117565  0.6530285335941386  1.0000
  N   N22       1.0  0.1677300572015523  0.800382984701521  0.3196889280653181  1.0000
  N   N23       1.0  0.36734808893694293  0.1677315532015272  0.9863583217412638  1.0000
  N   N24       1.0  0.19961599957043305  0.36734635466440574  0.6530285543299499  1.0000
  N   N25       1.0  0.33568737347024313  0.5604836018074338  0.1250058892221872  1.0000
  N   N26       1.0  0.7752037714980985  0.33568756322791427  0.7916752808273131  1.0000
  N   N27       1.0  0.4395160239756207  0.7752047256767084  0.4583401487281479  1.0000
  N   N28       1.0  0.6643116189955905  0.4395158581633539  0.1250063204855891  1.0000
  N   N29       1.0  0.22479603248554272  0.6643121373050889  0.7916753115827787  1.0000
  N   N30       1.0  0.5604844074645499  0.2247955542873542  0.45834013213399766  1.0000
  N   N31       1.0  0.43951666426849567  0.6643120705116702  0.20832432907881326  1.0000
  N   N32       1.0  0.7752027406502079  0.43951491835458956  0.8749937252107145  1.0000
  N   N33       1.0  0.33568934068495776  0.77520458843847  0.5416608358962591  1.0000
  N   N34       1.0  0.5604841380367915  0.33568787729335264  0.20832476512481427  1.0000
  N   N35       1.0  0.22479647323957844  0.560484204089377  0.874993751695314  1.0000
  N   N36       1.0  0.6643114118063947  0.22479535757729244  0.5416599140914045  1.0000
