data_image0
_chemical_formula_structural       Zn4P4H40C36N4O20
_chemical_formula_sum              "Zn4 P4 H40 C36 N4 O20"
_cell_length_a       8.561699863
_cell_length_b       9.868232176
_cell_length_c       12.485
_cell_angle_alpha    90.0
_cell_angle_beta     90.0
_cell_angle_gamma    90.0

_space_group_name_H-M_alt    "P 1"
_space_group_IT_number       1

loop_
  _space_group_symop_operation_xyz
  'x, y, z'

loop_
  _atom_site_type_symbol
  _atom_site_label
  _atom_site_symmetry_multiplicity
  _atom_site_fract_x
  _atom_site_fract_y
  _atom_site_fract_z
  _atom_site_occupancy
  Zn  Zn1       1.0  0.2216662614163383  0.9234997553223323  0.87890668802563  1.0000
  Zn  Zn2       1.0  0.721666269417085  0.0765000241721125  0.12109331197436998  1.0000
  Zn  Zn3       1.0  0.2216662614163383  0.423499358898745  0.1210925110132166  1.0000
  Zn  Zn4       1.0  0.7216651014247333  0.5765014339484296  0.87890668802563  1.0000
  P   P1        1.0  0.0753530268899141  0.1456684413542746  0.0247553063676378  1.0000
  P   P2        1.0  0.5753530348906608  0.8543323514929  0.9752446936323622  1.0000
  P   P3        1.0  0.0753530268899141  0.6456688377778619  0.9752438926712017  1.0000
  P   P4        1.0  0.5753530348906608  0.3543319550693127  0.0247561073287912  1.0000
  H   H1        1.0  0.12412838770402598  0.8793641905897545  0.0867176611934326  1.0000
  H   H2        1.0  0.6241272277124209  0.1206355889046904  0.9132815378454139  1.0000
  H   H3        1.0  0.12412721971167427  0.3793648075188969  0.9132815378454139  1.0000
  H   H4        1.0  0.6241283957047798  0.6206359853282777  0.086718462154586  1.0000
  H   H5        1.0  0.052090123122319185  0.9359457535325008  0.2042170604725655  1.0000
  H   H6        1.0  0.5520889631307071  0.0640540259619442  0.7957837404885878  1.0000
  H   H7        1.0  0.0520889551299604  0.4359453571089134  0.7957829395274345  1.0000
  H   H8        1.0  0.5520901311230657  0.5640544223855315  0.2042170604725655  1.0000
  H   H9        1.0  0.3204865907362659  0.0760196949788536  0.1053095714857832  1.0000
  H   H10       1.0  0.8204854307446537  0.9239800845155984  0.8946896275530634  1.0000
  H   H11       1.0  0.3204865907362659  0.5760200914024409  0.8946888265919098  1.0000
  H   H12       1.0  0.8204877667293642  0.42397968809201103  0.1053103724469366  1.0000
  H   H13       1.0  0.18632982065795287  0.135602808703112  0.20490748898678388  1.0000
  H   H14       1.0  0.6863286606663408  0.8643979841440625  0.7950917100520628  1.0000
  H   H15       1.0  0.1863286526655941  0.6356021917739696  0.7950909090909093  1.0000
  H   H16       1.0  0.6863298286586996  0.3643975877204753  0.2049082899479373  1.0000
  H   H17       1.0  0.3892241089180572  0.8751830972323873  0.1747593111734105  1.0000
  H   H18       1.0  0.8892217809340861  0.12481668226205761  0.8252414897877429  1.0000
  H   H19       1.0  0.3892229409256984  0.3751827008088  0.8252406888265895  1.0000
  H   H20       1.0  0.889224116918804  0.6248170786856448  0.1747593111734105  1.0000
  H   H21       1.0  0.25126785970352467  0.7433428672098188  0.1961113336003208  1.0000
  H   H22       1.0  0.7512666997119197  0.2566569122846332  0.8038878654385258  1.0000
  H   H23       1.0  0.251266691711173  0.2433424707862315  0.8038894673608326  1.0000
  H   H24       1.0  0.7512690356966301  0.7566583220609431  0.1961113336003208  1.0000
  H   H25       1.0  0.4443685320530406  0.0433380561353331  0.32353864637565277  1.0000
  H   H26       1.0  0.9443673720614285  0.9566596966536522  0.6764621545855007  1.0000
  H   H27       1.0  0.4443638600836124  0.5433384525589204  0.6764621545855007  1.0000
  H   H28       1.0  0.9443685400537873  0.45666335364098387  0.32353864637565277  1.0000
  H   H29       1.0  0.4541633159559878  0.0751086908760215  0.5213279935923083  1.0000
  H   H30       1.0  0.9541644919490934  0.9248910886184234  0.47867280736884504  1.0000
  H   H31       1.0  0.4541621479636291  0.5751090872996087  0.4786736083299985  1.0000
  H   H32       1.0  0.9541633239567346  0.4248917055475658  0.5213279935923083  1.0000
  H   H33       1.0  0.1440029456449565  0.7378930562365014  0.5649771726071293  1.0000
  H   H34       1.0  0.6440052896304138  0.2621067232579435  0.4350220264317173  1.0000
  H   H35       1.0  0.1440041136373083  0.23789265981291413  0.4350212254705639  1.0000
  H   H36       1.0  0.6440029536457033  0.7621071196815308  0.5649787745294361  1.0000
  H   H37       1.0  0.1304822661242611  0.7057657213354176  0.3678390068081683  1.0000
  H   H38       1.0  0.6304834421173666  0.2942330448063046  0.6321601922306783  1.0000
  H   H39       1.0  0.1304822661242611  0.2057643115591006  0.6321593912695249  1.0000
  H   H40       1.0  0.6304822741250078  0.7942354679353443  0.3678406087304751  1.0000
  C   C1        1.0  0.19836014193155185  0.0743395561551665  0.1320120144172989  1.0000
  C   C2        1.0  0.6983589819399398  0.9256612366920082  0.8679879855827011  1.0000
  C   C3        1.0  0.1983589739391931  0.5743389392260312  0.8679879855827011  1.0000
  C   C4        1.0  0.6983613179246502  0.4256608402684208  0.1320120144172989  1.0000
  C   C5        1.0  0.2783384185538367  0.8495635135530648  0.2137332799359228  1.0000
  C   C6        1.0  0.7783384265545832  0.15043626594138  0.7862667200640772  1.0000
  C   C7        1.0  0.2783384185538367  0.3495631171294775  0.7862667200640772  1.0000
  C   C8        1.0  0.7783395945469349  0.6504376757176971  0.2137340808970762  1.0000
  C   C9        1.0  0.2846163774708828  0.8732739406920871  0.33228594313175813  1.0000
  C   C10       1.0  0.7846163854716295  0.126721785391446  0.6677132559070883  1.0000
  C   C11       1.0  0.2846140414861651  0.3732735442684998  0.6677132559070883  1.0000
  C   C12       1.0  0.7846163854716295  0.6267262352259451  0.33228594313175813  1.0000
  C   C13       1.0  0.3765105121158143  0.9770817941890328  0.3758894673608352  1.0000
  C   C14       1.0  0.8765128561012716  0.0229159585999597  0.6241113336003181  1.0000
  C   C15       1.0  0.3765081761310967  0.47708139776544556  0.6241121345614715  1.0000
  C   C16       1.0  0.8765116881089128  0.5229183817290064  0.3758894673608352  1.0000
  C   C17       1.0  0.3837777605589493  0.9948134402305158  0.4863836603924696  1.0000
  C   C18       1.0  0.8837777685596961  0.0051853259112065  0.5136139367240702  1.0000
  C   C19       1.0  0.3837777605589493  0.4948140571596511  0.513615538646377  1.0000
  C   C20       1.0  0.8837777685596961  0.5051867356875235  0.48638446135362307  1.0000
  C   C21       1.0  0.2999883248768853  0.9092773497792876  0.5548297957549053  1.0000
  C   C22       1.0  0.7999906688623426  0.0907234430678869  0.4451702042450947  1.0000
  C   C23       1.0  0.2999906608615959  0.4092769533557004  0.4451694032839413  1.0000
  C   C24       1.0  0.799988332877632  0.5907228261387445  0.5548297957549053  1.0000
  C   C25       1.0  0.2087938176535928  0.8046821212123874  0.5116067280736871  1.0000
  C   C26       1.0  0.708797329631409  0.1953186716347872  0.4883924709651595  1.0000
  C   C27       1.0  0.20879498564594454  0.3046837514942524  0.48839086904285267  1.0000
  C   C28       1.0  0.7087949936466982  0.6953180547056448  0.5116067280736871  1.0000
  C   C29       1.0  0.20138641012765385  0.787278801454903  0.4011870244293121  1.0000
  C   C30       1.0  0.7013864181284005  0.2127189513340824  0.5988153784541481  1.0000
  C   C31       1.0  0.20138407414294324  0.2872784050313157  0.5988129755706879  1.0000
  C   C32       1.0  0.7013864181284005  0.7127213744631291  0.4011862234681587  1.0000
  C   C33       1.0  0.3059485898729193  0.9339869427085077  0.6725350420504626  1.0000
  C   C34       1.0  0.8059521018507352  0.0660128367859372  0.3274649579495374  1.0000
  C   C35       1.0  0.305949757865271  0.4339865462849275  0.3274657589106909  1.0000
  C   C36       1.0  0.805948597873666  0.5660122198567947  0.6725358430116161  1.0000
  N   N1        1.0  0.15357230702306873  0.9314221469529399  0.1574961954345184  1.0000
  N   N2        1.0  0.6535711470314565  0.0685786458942346  0.8425038045654815  1.0000
  N   N3        1.0  0.15357113903070999  0.4314217505293527  0.8425038045654815  1.0000
  N   N4        1.0  0.6535734830161744  0.5685790423178219  0.1574969963956718  1.0000
  O   O1        1.0  0.1430778956984824  0.10352208802753178  0.9154969963956745  1.0000
  O   O2        1.0  0.6430779036992291  0.8964787048196426  0.0845030036043255  1.0000
  O   O3        1.0  0.1430778956984824  0.6035224844511191  0.0845022026431721  1.0000
  O   O4        1.0  0.6430779036992291  0.3964772950433257  0.9154977973568279  1.0000
  O   O5        1.0  0.9123690534583773  0.0869568109764316  0.0386832198638345  1.0000
  O   O6        1.0  0.4123690454576234  0.9130439818707431  0.9613159791750121  1.0000
  O   O7        1.0  0.9123690534583773  0.5869572074000189  0.9613167801361655  1.0000
  O   O8        1.0  0.4123690454576234  0.4130435854471557  0.0386832198638345  1.0000
  O   O9        1.0  0.08178165682096507  0.3010954694830019  0.0362811373648384  1.0000
  O   O10       1.0  0.5817781608446493  0.6989053233641727  0.9637164597517014  1.0000
  O   O11       1.0  0.0817793208362545  0.8010948525538595  0.9637172607128547  1.0000
  O   O12       1.0  0.5817828328140706  0.1989049269405854  0.0362811373648384  1.0000
  O   O13       1.0  0.3969048266554508  0.0216229205185243  0.7109379255106134  1.0000
  O   O14       1.0  0.896907170640908  0.9783768589759205  0.2890612735282332  1.0000
  O   O15       1.0  0.3969071626401615  0.5216223035893819  0.2890612735282332  1.0000
  O   O16       1.0  0.8969060026485562  0.47837646255233324  0.7109387264717667  1.0000
  O   O17       1.0  0.2094630772739592  0.8633055899028504  0.7305614737685246  1.0000
  O   O18       1.0  0.7094665892517753  0.1366941895915943  0.2694377252703219  1.0000
  O   O19       1.0  0.20946774924338735  0.363306206831993  0.2694369243091685  1.0000
  O   O20       1.0  0.709461917282347  0.6366935726624519  0.7305614737685246  1.0000
