data_image0
_chemical_formula_structural       Cu4H28C24Br4N8O12
_chemical_formula_sum              "Cu4 H28 C24 Br4 N8 O12"
_cell_length_a       6.4862186960515205
_cell_length_b       10.360706022911947
_cell_length_c       13.370820324854256
_cell_angle_alpha    108.48491989635681
_cell_angle_beta     89.99990578867649
_cell_angle_gamma    90.0020459754193

_space_group_name_H-M_alt    "P 1"
_space_group_IT_number       1

loop_
  _space_group_symop_operation_xyz
  'x, y, z'

loop_
  _atom_site_type_symbol
  _atom_site_label
  _atom_site_symmetry_multiplicity
  _atom_site_fract_x
  _atom_site_fract_y
  _atom_site_fract_z
  _atom_site_occupancy
  Cu  Cu1       1.0  0.7989607289228854  0.24602422939111082  0.2342481282468398  1.0000
  Cu  Cu2       1.0  0.2989801378257936  0.753946333491321  0.26574964605250534  1.0000
  Cu  Cu3       1.0  0.20102071034909128  0.7539498632812213  0.7657516013909245  1.0000
  Cu  Cu4       1.0  0.7010830131221013  0.2460267436176977  0.7342505828024316  1.0000
  H   H1        1.0  0.4623196596988848  0.33387943590889085  0.5822305359732526  1.0000
  H   H2        1.0  0.9623273459082495  0.6661257455243756  0.917765008459462  1.0000
  H   H3        1.0  0.5376710310045638  0.666130260995125  0.4177681884314311  1.0000
  H   H4        1.0  0.037677219738029094  0.3338625893026191  0.08223446877126862  1.0000
  H   H5        1.0  0.08559290201898047  0.1524931925438153  0.3845304174964782  1.0000
  H   H6        1.0  0.5856201403902048  0.8475201254994358  0.11547273180237021  1.0000
  H   H7        1.0  0.9143931632844512  0.8475093827871094  0.6154680590391521  1.0000
  H   H8        1.0  0.41439213462748364  0.15249262357495041  0.8845259919993965  1.0000
  H   H9        1.0  0.1788172148833596  0.2391937629122296  0.6449600328952982  1.0000
  H   H10       1.0  0.6788522997391481  0.760803693522469  0.855051010431133  1.0000
  H   H11       1.0  0.8211657664892442  0.7607935701567855  0.35504966963787876  1.0000
  H   H12       1.0  0.32116151616553157  0.23918057527921385  0.1449504628503959  1.0000
  H   H13       1.0  0.21018423155451416  0.09206457882785199  0.5325417332977338  1.0000
  H   H14       1.0  0.710232165710913  0.907950940918603  0.9674849302889115  1.0000
  H   H15       1.0  0.7897894998345405  0.9079370133561114  0.46747893945805435  1.0000
  H   H16       1.0  0.2898032348109041  0.09204759198951962  0.0325305060181051  1.0000
  H   H17       1.0  0.03684728999033379  0.09210185547348002  0.6376387788365748  1.0000
  H   H18       1.0  0.5368987121308065  0.9079227387352659  0.8623655412922915  1.0000
  H   H19       1.0  0.9631249000895675  0.9079129354429798  0.362364932295428  1.0000
  H   H20       1.0  0.4631135628897026  0.09209000802648151  0.13763168614774202  1.0000
  H   H21       1.0  0.025865681107838195  0.4906296404416963  0.25303305765230283  1.0000
  H   H22       1.0  0.525841676906765  0.5093598447858128  0.2469485902640542  1.0000
  H   H23       1.0  0.9741265509065824  0.5093647726277765  0.7469499582505749  1.0000
  H   H24       1.0  0.47415518034199516  0.4906366164383655  0.7530431539885356  1.0000
  H   H25       1.0  0.136359044106257  0.412148544661271  0.3251941389529663  1.0000
  H   H26       1.0  0.6363137281992407  0.5878466110706528  0.17478433643525196  1.0000
  H   H27       1.0  0.8636532305889444  0.5878519666926821  0.6747851347801942  1.0000
  H   H28       1.0  0.3636630867882786  0.41215799374903384  0.8252108975204636  1.0000
  C   C1        1.0  0.6033684569261341  0.29615532442939246  0.5387567476562509  1.0000
  C   C2        1.0  0.1033733683310842  0.7038392998003078  0.9612394423874592  1.0000
  C   C3        1.0  0.396623774971644  0.7038360586961687  0.4612404843416229  1.0000
  C   C4        1.0  0.8966234887128479  0.29615003643674953  0.03874980946538641  1.0000
  C   C5        1.0  0.9291872452498282  0.20121794158036727  0.5359661575873673  1.0000
  C   C6        1.0  0.4291807736580893  0.7987732203835164  0.9640244805369778  1.0000
  C   C7        1.0  0.070828112482026  0.7987693733720462  0.46403157413529783  1.0000
  C   C8        1.0  0.5708052910126966  0.20120695304537153  0.0359602841783513  1.0000
  C   C9        1.0  0.477624018911392  0.35947480726901665  0.38002087578151844  1.0000
  C   C10       1.0  0.977594349447152  0.6405498553516367  0.11998329449053095  1.0000
  C   C11       1.0  0.522386714722465  0.6405501598500365  0.6199845790101222  1.0000
  C   C12       1.0  0.022379382538424898  0.3594710428801378  0.8800226598710597  1.0000
  C   C13       1.0  0.6295488131091247  0.29734683153278496  0.43602854725237716  1.0000
  C   C14       1.0  0.1295505653327282  0.7026441222939327  0.06396834918743369  1.0000
  C   C15       1.0  0.3704418768141551  0.7026364169914743  0.5639711804337324  1.0000
  C   C16       1.0  0.8704647924118374  0.2973431822515877  0.9360226489074108  1.0000
  C   C17       1.0  0.9493547105572873  0.19737231574600142  0.43035628666888215  1.0000
  C   C18       1.0  0.44936849028364617  0.802590631828302  0.06964401038116819  1.0000
  C   C19       1.0  0.050635978529733394  0.8025824467056495  0.5696424495886703  1.0000
  C   C20       1.0  0.5506360746807386  0.1973742995950261  0.9303519803872932  1.0000
  C   C21       1.0  0.09782304577741031  0.1522834468823149  0.5896879916261923  1.0000
  C   C22       1.0  0.5978429892752429  0.847725310808343  0.9103228810456869  1.0000
  C   C23       1.0  0.902169186219858  0.8477120220358715  0.4103199634194682  1.0000
  C   C24       1.0  0.4021662017149481  0.15226810789886264  0.08967484934410662  1.0000
  Br  Br1       1.0  0.9348669278659898  0.017872214859202994  0.16474653948320392  1.0000
  Br  Br2       1.0  0.4348455348117994  0.9821321134537087  0.3352638989969279  1.0000
  Br  Br3       1.0  0.0651499721797961  0.9821354585390764  0.8352591684494045  1.0000
  Br  Br4       1.0  0.5651574899838109  0.017886755527349904  0.6647452979961913  1.0000
  N   N1        1.0  0.7521254689001111  0.24967932461448325  0.5880259074047843  1.0000
  N   N2        1.0  0.2521271396068698  0.7503371295566409  0.911961318492587  1.0000
  N   N3        1.0  0.24788834778210136  0.7503303529067367  0.4119600979846895  1.0000
  N   N4        1.0  0.7478481340587777  0.24968068440242772  0.08802368746715672  1.0000
  N   N5        1.0  0.8021764818747528  0.24568876771862594  0.38248683015181945  1.0000
  N   N6        1.0  0.30214869238139386  0.7543612774134871  0.1175476043302481  1.0000
  N   N7        1.0  0.1978604617171342  0.7543565916725826  0.617548298158475  1.0000
  N   N8        1.0  0.6978265818589832  0.24567898585679163  0.8824817888653984  1.0000
  O   O1        1.0  0.04038921975079288  0.4015373038627459  0.2648890420865158  1.0000
  O   O2        1.0  0.540336586411449  0.5984565909912263  0.23508993635091  1.0000
  O   O3        1.0  0.9596384724354577  0.5984703465372901  0.7351017022565145  1.0000
  O   O4        1.0  0.45962943602614803  0.40153274487961005  0.7648993154225323  1.0000
  O   O5        1.0  0.542138121399148  0.36711698790142583  0.29078383125517604  1.0000
  O   O6        1.0  0.042110538734526394  0.632885121534514  0.209217350530821  1.0000
  O   O7        1.0  0.4578695278312636  0.6328754130973592  0.7092136499565244  1.0000
  O   O8        1.0  0.9578709013371876  0.36711644530193144  0.790786862265719  1.0000
  O   O9        1.0  0.3065763430659913  0.40078723560875323  0.42127470734265426  1.0000
  O   O10       1.0  0.8065413183762047  0.5992333650911092  0.07872933012546922  1.0000
  O   O11       1.0  0.6934559748274154  0.5992387448314745  0.5787280039552272  1.0000
  O   O12       1.0  0.19345091410659876  0.4007783753056913  0.9212751298975094  1.0000
