data_image0
_chemical_formula_structural       Hg4H24C28I8N8
_chemical_formula_sum              "Hg4 H24 C28 I8 N8"
_cell_length_a       4.420007503845787
_cell_length_b       13.147787927071837
_cell_length_c       18.44663427673266
_cell_angle_alpha    89.99996650028542
_cell_angle_beta     96.71982556832926
_cell_angle_gamma    90.00038938948452

_space_group_name_H-M_alt    "P 1"
_space_group_IT_number       1

loop_
  _space_group_symop_operation_xyz
  'x, y, z'

loop_
  _atom_site_type_symbol
  _atom_site_label
  _atom_site_symmetry_multiplicity
  _atom_site_fract_x
  _atom_site_fract_y
  _atom_site_fract_z
  _atom_site_occupancy
  Hg  Hg1       1.0  0.6855291011434659  0.31304482745459683  0.6294072856658204  1.0000
  Hg  Hg2       1.0  0.8144646055223036  0.8130460942353321  0.8705933615281866  1.0000
  Hg  Hg3       1.0  0.3144730107174354  0.6869537900327672  0.3705954368320334  1.0000
  Hg  Hg4       1.0  0.1855419343812841  0.18695480501218495  0.1294040580686655  1.0000
  H   H1        1.0  0.2696258758679235  0.3398550576063784  0.3409458347078456  1.0000
  H   H2        1.0  0.23037388760380406  0.8398555493120341  0.15905428285516626  1.0000
  H   H3        1.0  0.7303648585338537  0.6601435598675351  0.6590571261260152  1.0000
  H   H4        1.0  0.7696326651009643  0.1601445893510487  0.8409436791965064  1.0000
  H   H5        1.0  0.2537818558646877  0.4094917923345703  0.470262869603701  1.0000
  H   H6        1.0  0.2462169908677297  0.9094909119249337  0.029736655767131002  1.0000
  H   H7        1.0  0.7462066004760218  0.5905060645524715  0.5297400304063231  1.0000
  H   H8        1.0  0.7537986612351022  0.0905084661647422  0.970261007124698  1.0000
  H   H9        1.0  0.054637556826833106  0.14368179541518336  0.5396229218826321  1.0000
  H   H10       1.0  0.44535545496167844  0.6436794889595915  0.9603774834962098  1.0000
  H   H11       1.0  0.9453463433842375  0.8563137797139077  0.46037985647966917  1.0000
  H   H12       1.0  0.5546624239449259  0.3563183679651728  0.0396180703997757  1.0000
  H   H13       1.0  0.22156079916776153  0.031908858598946196  0.44216688925141767  1.0000
  H   H14       1.0  0.2784397473746624  0.5319065083783272  0.0578344466655736  1.0000
  H   H15       1.0  0.7784276315405451  0.9680874771201002  0.557834925848745  1.0000
  H   H16       1.0  0.7215804352254127  0.4680936303012971  0.9421622529641168  1.0000
  H   H17       1.0  0.004587233268260601  0.05050190117093219  0.31380633042349615  1.0000
  H   H18       1.0  0.49541140211214696  0.5504991888104983  0.18619494762981498  1.0000
  H   H19       1.0  0.9954102968981433  0.9494997586484499  0.6861951855173132  1.0000
  H   H20       1.0  0.5045883036532574  0.44950399218173237  0.8138022894959037  1.0000
  H   H21       1.0  0.6126137954357774  0.18292871019980342  0.27591274382098874  1.0000
  H   H22       1.0  0.8873847931454009  0.6829287537462391  0.22408822771208042  1.0000
  H   H23       1.0  0.3873814822944511  0.8170729496164881  0.7240897962057886  1.0000
  H   H24       1.0  0.11261038213777402  0.31707518782446426  0.7759099726758976  1.0000
  C   C1        1.0  0.40193524511170164  0.3488148454287129  0.4556430616218777  1.0000
  C   C2        1.0  0.09806469515326202  0.8488143650837613  0.04435705736750611  1.0000
  C   C3        1.0  0.5980532240452093  0.6511837720423302  0.544360380843088  1.0000
  C   C4        1.0  0.9019509441483823  0.15118577359034902  0.9556400630695094  1.0000
  C   C5        1.0  0.9582659401754372  0.15225846796607806  0.4827444787201642  1.0000
  C   C6        1.0  0.5417297907497272  0.6522578787876437  0.0172575120159451  1.0000
  C   C7        1.0  0.041727046632495005  0.8477371071740407  0.5172574580274869  1.0000
  C   C8        1.0  0.4582836089244396  0.34774225988315527  0.982741174961916  1.0000
  C   C9        1.0  0.0495045131334919  0.09023786635685839  0.4281228833626472  1.0000
  C   C10       1.0  0.4504903502540572  0.59023590798364  0.0718782793693791  1.0000
  C   C11       1.0  0.9504839688396135  0.9097615116981785  0.5718811015572457  1.0000
  C   C12       1.0  0.549518403667115  0.40976575185184316  0.9281164887769506  1.0000
  C   C13       1.0  0.9257506440217755  0.10109246373227168  0.35450528544226506  1.0000
  C   C14       1.0  0.57424634250048  0.6010926005693733  0.14549621551687864  1.0000
  C   C15       1.0  0.07424235564738522  0.8989084354971553  0.6454971937606828  1.0000
  C   C16       1.0  0.4257556413335025  0.39891210159393603  0.8545010824327335  1.0000
  C   C17       1.0  0.7071641875494734  0.1744596913726184  0.3327135719093945  1.0000
  C   C18       1.0  0.7928319430492226  0.674459562034059  0.1672867949966985  1.0000
  C   C19       1.0  0.29283106454835217  0.825540447275685  0.6672878832075142  1.0000
  C   C20       1.0  0.20716547185391931  0.3255436189557344  0.8327098388503701  1.0000
  C   C21       1.0  0.6149952349947087  0.2364623849502578  0.3874477373811871  1.0000
  C   C22       1.0  0.885004397154674  0.7364625193770208  0.1125527002199007  1.0000
  C   C23       1.0  0.3850000298968085  0.7635362325293895  0.6125542601904783  1.0000
  C   C24       1.0  0.11500215555760462  0.26353837987027623  0.8874452618318288  1.0000
  C   C25       1.0  0.7378850746178571  0.22632467015404253  0.4615125630795021  1.0000
  C   C26       1.0  0.7621075361230396  0.7263238194949223  0.03848823289107631  1.0000
  C   C27       1.0  0.2621011036917978  0.7736754684830061  0.5384902761069412  1.0000
  C   C28       1.0  0.23790126904042108  0.27367860092390117  0.9615087050747989  1.0000
  I   I1        1.0  0.5549285724203088  0.1391659658926443  0.6963884675570569  1.0000
  I   I2        1.0  0.9450617415290452  0.6391668366788607  0.8036137793189937  1.0000
  I   I3        1.0  0.4450598455093201  0.8608334121634941  0.303612805088477  1.0000
  I   I4        1.0  0.05493802823480821  0.3608317808069613  0.19638617008072154  1.0000
  I   I5        1.0  0.15627025627961194  0.4571361208465418  0.6404371929731596  1.0000
  I   I6        1.0  0.34372666285465675  0.9571367052890875  0.8595632014859264  1.0000
  I   I7        1.0  0.843727235445691  0.5428640178050657  0.3595626956029108  1.0000
  I   I8        1.0  0.6562799410924073  0.042864193957328205  0.1404369303852917  1.0000
  N   N1        1.0  0.40394833027931304  0.31451405068860794  0.3863578689107854  1.0000
  N   N2        1.0  0.09604637702286571  0.8145135056834077  0.1136421229701554  1.0000
  N   N3        1.0  0.5960424041299747  0.6854853273695127  0.6136450919231393  1.0000
  N   N4        1.0  0.903960150072024  0.18548739356432264  0.8863547541718263  1.0000
  N   N5        1.0  0.6001512628418908  0.2984408046859598  0.5021387057638691  1.0000
  N   N6        1.0  0.899844420874537  0.7984406406951834  0.9978614574738814  1.0000
  N   N7        1.0  0.3998417239735447  0.7015555310383804  0.49786323098384605  1.0000
  N   N8        1.0  0.10016667512866921  0.20155949797341322  0.0021360837704592008  1.0000
