data_image0
_chemical_formula_structural       Ag4H32C48N16O12
_chemical_formula_sum              "Ag4 H32 C48 N16 O12"
_cell_length_a       9.750113373298035
_cell_length_b       9.798916067750111
_cell_length_c       13.7265
_cell_angle_alpha    76.32105205362147
_cell_angle_beta     76.25124260926181
_cell_angle_gamma    76.4551134633383

_space_group_name_H-M_alt    "P 1"
_space_group_IT_number       1

loop_
  _space_group_symop_operation_xyz
  'x, y, z'

loop_
  _atom_site_type_symbol
  _atom_site_label
  _atom_site_symmetry_multiplicity
  _atom_site_fract_x
  _atom_site_fract_y
  _atom_site_fract_z
  _atom_site_occupancy
  Ag  Ag1       1.0  0.7102803715756494  0.22437278013148196  0.8576029266257449  1.0000
  Ag  Ag2       1.0  0.22510343731018884  0.7108622845275008  0.3579969407627671  1.0000
  Ag  Ag3       1.0  0.2663122054676492  0.2405779384297446  0.9377280626556299  1.0000
  Ag  Ag4       1.0  0.24100454718776376  0.26632416174773976  0.4374463980811427  1.0000
  H   H1        1.0  0.6823006186325742  0.875841106043879  0.965772197225654  1.0000
  H   H2        1.0  0.8759745590491762  0.682430531082332  0.46558640434538745  1.0000
  H   H3        1.0  0.8335458623903804  0.0482037149987633  0.6565794525952596  1.0000
  H   H4        1.0  0.04900080659768945  0.8336298344153052  0.15645621268618015  1.0000
  H   H5        1.0  0.6549553801179115  0.6243563431470136  0.928157461513045  1.0000
  H   H6        1.0  0.6228637066371191  0.6559998237813076  0.4284844624897913  1.0000
  H   H7        1.0  0.7395228339924458  0.5892519403735081  0.8030834295069766  1.0000
  H   H8        1.0  0.5875228712026725  0.7399806609681505  0.3035231481109831  1.0000
  H   H9        1.0  0.8515156395326998  0.49780808875918586  0.20609459415744164  1.0000
  H   H10       1.0  0.49739827474780185  0.8526317514879908  0.7059236346799905  1.0000
  H   H11       1.0  0.9499854105518966  0.42071701066404193  0.3675727591240018  1.0000
  H   H12       1.0  0.4203600314587633  0.9507995887293816  0.8674780919886658  1.0000
  H   H13       1.0  0.36935935797995256  0.3607968549869867  0.2061558987430487  1.0000
  H   H14       1.0  0.36140008455050326  0.3678973068047142  0.7062557138531742  1.0000
  H   H15       1.0  0.2906223511073733  0.4288195898131804  0.03903811513673358  1.0000
  H   H16       1.0  0.4292365097506022  0.2894254961750491  0.5391508395301584  1.0000
  H   H17       1.0  0.012728663158171099  0.1959741813792419  0.8292755950293298  1.0000
  H   H18       1.0  0.1948786055985536  0.0127773908519941  0.3292417785539641  1.0000
  H   H19       1.0  0.07466210372224681  0.1353203444328699  0.6544578940130776  1.0000
  H   H20       1.0  0.1340377204143266  0.0748750612000748  0.1544403144712021  1.0000
  H   H21       1.0  0.10682530845557639  0.5533924662062263  0.5155235799151255  1.0000
  H   H22       1.0  0.5544287282746438  0.10663083998783662  0.015484920839810517  1.0000
  H   H23       1.0  0.022107380582553994  0.6374556553722783  0.6813019793003575  1.0000
  H   H24       1.0  0.6387838926238915  0.0219804919050972  0.1811589103610345  1.0000
  H   H25       1.0  0.6046043966928281  0.4202635400252888  0.12971008995945976  1.0000
  H   H26       1.0  0.4203127897012137  0.6043865229420717  0.6297327283345027  1.0000
  H   H27       1.0  0.9273345373045104  0.0809605516117102  0.2451585714168303  1.0000
  H   H28       1.0  0.08122220947352324  0.9274426423146593  0.7451624444840377  1.0000
  H   H29       1.0  0.6362898208300862  0.3395457663263031  0.4475529962584445  1.0000
  H   H30       1.0  0.3393043542354021  0.6362963106260153  0.9476232527551715  1.0000
  H   H31       1.0  0.030314219152842298  0.9829735444505303  0.48350779952647827  1.0000
  H   H32       1.0  0.9831543244515899  0.030359003659889104  0.9833903120834647  1.0000
  C   C1        1.0  0.7220335603220603  0.8914558969067771  0.8838383443580893  1.0000
  C   C2        1.0  0.8915804139814156  0.722081404811874  0.38367957071685044  1.0000
  C   C3        1.0  0.8014855467097988  0.9737362191982728  0.7267061075987086  1.0000
  C   C4        1.0  0.9741881211510871  0.8015232575862399  0.2265899410788279  1.0000
  C   C5        1.0  0.7482156908831142  0.636070644812861  0.8660335868598281  1.0000
  C   C6        1.0  0.6348885948556955  0.7485741434738673  0.36630739944204277  1.0000
  C   C7        1.0  0.008537860650641018  0.4890081915523368  0.01591060595331582  1.0000
  C   C8        1.0  0.4889994997656402  0.008581717937254001  0.5159061264741209  1.0000
  C   C9        1.0  0.0630063289045495  0.46534215783902516  0.10999815786668415  1.0000
  C   C10       1.0  0.4653909165406916  0.0629789434762316  0.609954481225877  1.0000
  C   C11       1.0  0.9669006771951772  0.4691549475257517  0.2034544260455888  1.0000
  C   C12       1.0  0.4689030329986537  0.9674346885294939  0.7033769342330061  1.0000
  C   C13       1.0  0.021367854305481195  0.4270324449137348  0.2928802222730909  1.0000
  C   C14       1.0  0.4268525853304653  0.021745200535932003  0.7928286703326463  1.0000
  C   C15       1.0  0.25536895802375176  0.3917676162067067  0.20310909183952927  1.0000
  C   C16       1.0  0.3921920987026439  0.2544686852603917  0.7031617293858332  1.0000
  C   C17       1.0  0.21076108357188866  0.4296302755305846  0.10987996645886257  1.0000
  C   C18       1.0  0.42997992624084697  0.2099740178446794  0.6099122837928306  1.0000
  C   C19       1.0  0.9879573164888386  0.4636127662756452  0.8692307697944343  1.0000
  C   C20       1.0  0.4635573929785651  0.9881381900037454  0.3692161399536644  1.0000
  C   C21       1.0  0.013855998629296094  0.4224731398830103  0.7692494355312788  1.0000
  C   C22       1.0  0.4225336433513718  0.0140009059716633  0.2691768758802482  1.0000
  C   C23       1.0  0.027187279755750596  0.2795774828691862  0.7615901062124022  1.0000
  C   C24       1.0  0.2789519424066782  0.0272970073420495  0.2615394940410312  1.0000
  C   C25       1.0  0.06426749698555059  0.24450623478861644  0.6648221535775889  1.0000
  C   C26       1.0  0.2437639839447172  0.064428124409055  0.16481616312885441  1.0000
  C   C27       1.0  0.0778499612300365  0.4784232884584867  0.5864787677630899  1.0000
  C   C28       1.0  0.4789928690781125  0.07781406430221692  0.08645423978159529  1.0000
  C   C29       1.0  0.034630444279145016  0.5247457420101398  0.6792970165690803  1.0000
  C   C30       1.0  0.525476064416118  0.0346327505289423  0.17921923342361618  1.0000
  C   C31       1.0  0.8263720751461322  0.2089943501439677  0.0718593838705175  1.0000
  C   C32       1.0  0.2091421512170157  0.8262021136931921  0.5719665744391093  1.0000
  C   C33       1.0  0.8696959684524544  0.13547435332905172  0.4408290551356088  1.0000
  C   C34       1.0  0.13564719478753062  0.8697128353832966  0.9407759022217163  1.0000
  C   C35       1.0  0.47321392707063126  0.5046796662450816  0.3155806119438154  1.0000
  C   C36       1.0  0.5047789878528235  0.47315169228291865  0.8154330186194088  1.0000
  C   C37       1.0  0.602322226318357  0.3901548008216906  0.29194504619287187  1.0000
  C   C38       1.0  0.39021169821377544  0.6022368154328606  0.7919724437923534  1.0000
  C   C39       1.0  0.6540872177551407  0.3582824458555649  0.19386349657021643  1.0000
  C   C40       1.0  0.3583406702473795  0.6539228426953017  0.6939127428158613  1.0000
  C   C41       1.0  0.7706491970982015  0.2458698552235603  0.17699501528691997  1.0000
  C   C42       1.0  0.24594410256683114  0.770473352905974  0.6770660768257384  1.0000
  C   C43       1.0  0.8372108790323907  0.168006593635063  0.258329564310209  1.0000
  C   C44       1.0  0.16809955183209982  0.8371805950772853  0.7583648804905038  1.0000
  C   C45       1.0  0.790983128732492  0.2038318436031972  0.35513976993555474  1.0000
  C   C46       1.0  0.20385764665754633  0.7909223118990385  0.8551602511940501  1.0000
  C   C47       1.0  0.6723392841800973  0.3132466082907683  0.37167465999335997  1.0000
  C   C48       1.0  0.3131782196507801  0.6722734304778797  0.8717082500764588  1.0000
  N   N1        1.0  0.7502551401150014  0.0119142993296393  0.8206684884655217  1.0000
  N   N2        1.0  0.012553167029871302  0.7504511268960812  0.32045251395923197  1.0000
  N   N3        1.0  0.8059649597889234  0.8366287298659643  0.7291330630025143  1.0000
  N   N4        1.0  0.8364034786400012  0.8057574327250238  0.22913108576047844  1.0000
  N   N5        1.0  0.7534036217735149  0.7863223656318256  0.8293895820603296  1.0000
  N   N6        1.0  0.7859539788317491  0.7531730202348542  0.3293457260969603  1.0000
  N   N7        1.0  0.875434840038011  0.5605677834595966  0.9066768656741714  1.0000
  N   N8        1.0  0.5598935887800636  0.8754935165212461  0.40692793587270154  1.0000
  N   N9        1.0  0.8862803469440338  0.5770766815253412  0.9995463341395163  1.0000
  N   N10       1.0  0.5765126730914076  0.8862720002415402  0.49977918993604925  1.0000
  N   N11       1.0  0.07418817277584111  0.4163470082348795  0.937609946962901  1.0000
  N   N12       1.0  0.4166637058768572  0.0743745322874787  0.43742448717951277  1.0000
  N   N13       1.0  0.1629850087719547  0.3863740963216672  0.293353197791852  1.0000
  N   N14       1.0  0.3865301174185447  0.1626676185674185  0.7933738828912595  1.0000
  N   N15       1.0  0.09388607705804468  0.34108157726323185  0.5786891988718991  1.0000
  N   N16       1.0  0.34094196680891997  0.093999971488465  0.0786986397845766  1.0000
  O   O1        1.0  0.9348837640996663  0.10637308898797933  0.06494577538855144  1.0000
  O   O2        1.0  0.1066519103459527  0.9347110066094758  0.5650116496134315  1.0000
  O   O3        1.0  0.7624662702035964  0.2814373541918301  0.0006021149773828865  1.0000
  O   O4        1.0  0.2817629745593281  0.7622584756033746  0.5007119002234646  1.0000
  O   O5        1.0  0.38980178486228567  0.4780243626371288  0.4021361635720451  1.0000
  O   O6        1.0  0.47758411518843497  0.390223249219993  0.9019200505998127  1.0000
  O   O7        1.0  0.45489262482507087  0.6206772417382211  0.2508560846958403  1.0000
  O   O8        1.0  0.6213385729818981  0.4542642123761453  0.7506472709870664  1.0000
  O   O9        1.0  0.8424137911410767  0.1856513073101453  0.5195102100337294  1.0000
  O   O10       1.0  0.1860120949314066  0.8423623527300776  0.019437588299013014  1.0000
  O   O11       1.0  0.970464851375951  0.0223836957513512  0.422952884459427  1.0000
  O   O12       1.0  0.022569681967141302  0.97064213769373  0.9228296340643636  1.0000
