data_image0
_chemical_formula_structural       Zn4H32C48O20
_chemical_formula_sum              "Zn4 H32 C48 O20"
_cell_length_a       7.018827884
_cell_length_b       9.641943520060307
_cell_length_c       15.693
_cell_angle_alpha    99.07324364775465
_cell_angle_beta     90.0
_cell_angle_gamma    90.0

_space_group_name_H-M_alt    "P 1"
_space_group_IT_number       1

loop_
  _space_group_symop_operation_xyz
  'x, y, z'

loop_
  _atom_site_type_symbol
  _atom_site_label
  _atom_site_symmetry_multiplicity
  _atom_site_fract_x
  _atom_site_fract_y
  _atom_site_fract_z
  _atom_site_occupancy
  Zn  Zn1       1.0  0.4012122887953139  0.23939064831297688  0.5004125838089023  1.0000
  Zn  Zn2       1.0  0.9012131519023894  0.2606093911249161  0.49958757931895537  1.0000
  Zn  Zn3       1.0  0.5987851632009011  0.7606104808396381  0.4995878442088254  1.0000
  Zn  Zn4       1.0  0.09878572483314227  0.7393896374740478  0.5004126451747553  1.0000
  H   H1        1.0  0.1722509826399943  0.4307122266355279  0.4500535330504362  1.0000
  H   H2        1.0  0.6722532704863795  0.0692878128023651  0.549945992850638  1.0000
  H   H3        1.0  0.8277450446169112  0.569286801963429  0.5499447797629101  1.0000
  H   H4        1.0  0.32774560624914517  0.9307122660734279  0.4500543334050845  1.0000
  H   H5        1.0  0.1713733432247224  0.45705947121209073  0.5500172823090139  1.0000
  H   H6        1.0  0.6713713568531787  0.0429416185026383  0.4499823453540657  1.0000
  H   H7        1.0  0.828626958250112  0.5429395573868732  0.4499816677311229  1.0000
  H   H8        1.0  0.3286260951430364  0.9570595106499837  0.5500180826636621  1.0000
  H   H9        1.0  0.911800389718749  0.2575005717058545  0.257422475420988  1.0000
  H   H10       1.0  0.4118023760902929  0.2424994677320456  0.7425764132532888  1.0000
  H   H11       1.0  0.088201336495402  0.7425026580004328  0.7425775188939594  1.0000
  H   H12       1.0  0.5881979253845486  0.7575027116974056  0.2574247537532344  1.0000
  H   H13       1.0  0.9195965632258236  0.2244168515367733  0.09705263141820808  1.0000
  H   H14       1.0  0.4195999743366841  0.2755821376242906  0.9029467927208612  1.0000
  H   H15       1.0  0.08040658772763007  0.7755842776158488  0.9029471593727292  1.0000
  H   H16       1.0  0.5804017518774671  0.7244189915283243  0.09705554697723777  1.0000
  H   H17       1.0  0.6476565710298274  0.3075872234881771  0.0163606647071859  1.0000
  H   H18       1.0  0.14765855740137815  0.1924138662265449  0.9836389629558935  1.0000
  H   H19       1.0  0.3523465799236263  0.6924128553876088  0.9836383870949559  1.0000
  H   H20       1.0  0.8523445935520824  0.807586212649241  0.016362637753410063  1.0000
  H   H21       1.0  0.3450590383503992  0.43428526841379517  0.01597355012103919  1.0000
  H   H22       1.0  0.8450584767181653  0.065716871577763  0.9840261793040453  1.0000
  H   H23       1.0  0.6549441126030615  0.565716911015663  0.9840244307515389  1.0000
  H   H24       1.0  0.1549418247566763  0.9342811067443648  0.015974580654450687  1.0000
  H   H25       1.0  0.0768262178403347  0.565369269384675  0.09466875683079927  1.0000
  H   H26       1.0  0.5768213819901646  0.9346371505899925  0.9053304314444545  1.0000
  H   H27       1.0  0.9231783578524355  0.43463396032160523  0.90532805135021  1.0000
  H   H28       1.0  0.4231774947453601  0.0653597774553063  0.09467022675203647  1.0000
  H   H29       1.0  0.08544446592957658  0.6203806692264564  0.25554909255478003  1.0000
  H   H30       1.0  0.5854424795580329  0.8796236501945458  0.7444498921964635  1.0000
  H   H31       1.0  0.914555835545265  0.3796204599261586  0.7444481493290025  1.0000
  H   H32       1.0  0.41455782191680857  0.120375378404411  0.25555033229725405  1.0000
  C   C1        1.0  0.7987174059046891  0.3009169153359963  0.22204458512413075  1.0000
  C   C2        1.0  0.2987193922762401  0.19908207382506762  0.7779548390149384  1.0000
  C   C3        1.0  0.2012828955701451  0.6990842138166258  0.7779552056668064  1.0000
  C   C4        1.0  0.7012837586772207  0.8009190553275545  0.22204622622957965  1.0000
  C   C5        1.0  0.8003530066331519  0.2804386176897466  0.13114435228384017  1.0000
  C   C6        1.0  0.3003564177440055  0.21955932119448818  0.8688549700932169  1.0000
  C   C7        1.0  0.19964729484168936  0.7195625114628754  0.8688560757338875  1.0000
  C   C8        1.0  0.699643883730829  0.7804376068508105  0.13114632533006435  1.0000
  C   C9        1.0  0.6503806725915169  0.3275424832727083  0.08678072921229327  1.0000
  C   C10       1.0  0.15038408370237016  0.17245755616519182  0.9132187966887739  1.0000
  C   C11       1.0  0.3496224783619439  0.6724586458799138  0.913219061578644  1.0000
  C   C12       1.0  0.8496204919904  0.8275393718801071  0.0867812242809265  1.0000
  C   C13       1.0  0.4971271639177885  0.4031960239463359  0.13169384887468988  1.0000
  C   C14       1.0  0.9971280270248639  0.0968050657683932  0.8683057787883894  1.0000
  C   C15       1.0  0.5028759870356722  0.5968051052062862  0.8683053046894569  1.0000
  C   C16       1.0  0.002873699189287  0.9031939628305637  0.13169572015890196  1.0000
  C   C17       1.0  0.4978195872226933  0.4291515152650121  0.22442343877639803  1.0000
  C   C18       1.0  0.997820450329769  0.0708474738960518  0.7755759853626641  1.0000
  C   C19       1.0  0.5021807142521482  0.5708485636107739  0.7755749757989532  1.0000
  C   C20       1.0  0.0021798511450726  0.9291536552565703  0.22442507988185403  1.0000
  C   C21       1.0  0.6487578945168478  0.3697783157450658  0.26816413547326323  1.0000
  C   C22       1.0  0.1487598808883988  0.1302206734159981  0.7318352886657989  1.0000
  C   C23       1.0  0.3512409822186768  0.630220712853891  0.7318354517936569  1.0000
  C   C24       1.0  0.8512404205864426  0.8697804557366241  0.2681657765787192  1.0000
  C   C25       1.0  0.6423038254402654  0.3580099638563539  0.3621325393547039  1.0000
  C   C26       1.0  0.14230296233319  0.14198902530471  0.6378675220111488  1.0000
  C   C27       1.0  0.3576922018166399  0.6419890647426101  0.637866410685433  1.0000
  C   C28       1.0  0.8577044628381997  0.858011053571076  0.36213407869815467  1.0000
  C   C29       1.0  0.3433635985708959  0.4539264954259181  0.08631475855015218  1.0000
  C   C30       1.0  0.843363036938662  0.0460756445656401  0.9136849708749323  1.0000
  C   C31       1.0  0.656638127643248  0.546074633726704  0.9136837577872041  1.0000
  C   C32       1.0  0.15663583979686274  0.9539223337564877  0.08631642631035416  1.0000
  C   C33       1.0  0.19493283246323045  0.5273334939585439  0.12981222291667646  1.0000
  C   C34       1.0  0.6949322708309892  0.9726708254624654  0.87018676183456  1.0000
  C   C35       1.0  0.8050688937509205  0.47266658491724917  0.8701855544318844  1.0000
  C   C36       1.0  0.30506803064384497  0.0273292534133205  0.12981356442115544  1.0000
  C   C37       1.0  0.1977709131697551  0.5571424509693017  0.22070654957057906  1.0000
  C   C38       1.0  0.6977703515375138  0.9428597678980494  0.7792935061102282  1.0000
  C   C39       1.0  0.8022279635657765  0.44285657762966224  0.7792917632427674  1.0000
  C   C40       1.0  0.3022285251980107  0.0571403109777435  0.22070745737227773  1.0000
  C   C41       1.0  0.3475124394430864  0.5126894841071916  0.26737570407394157  1.0000
  C   C42       1.0  0.8475118778108524  0.9873106342064945  0.7326235108560579  1.0000
  C   C43       1.0  0.6524878620317479  0.48730849421493616  0.7326225069773996  1.0000
  C   C44       1.0  0.15248842366398918  0.0126894446692987  0.2673768153996646  1.0000
  C   C45       1.0  0.35507922992117347  0.5735729817097805  0.361272579274491  1.0000
  C   C46       1.0  0.8550886414641141  0.9264250360502473  0.6387277065850723  1.0000
  C   C47       1.0  0.6449125231177959  0.4264260468891834  0.638727007992429  1.0000
  C   C48       1.0  0.1449130847500371  0.0735750428255457  0.36127261967064317  1.0000
  O   O1        1.0  0.48547849531509957  0.3199048701593838  0.3911984295291972  1.0000
  O   O2        1.0  0.985479358422175  0.1800951692785091  0.6088010963718773  1.0000
  O   O3        1.0  0.5145232308990444  0.6800973092700673  0.6088014630237452  1.0000
  O   O4        1.0  0.014522367791975896  0.819905959874113  0.3911986944190672  1.0000
  O   O5        1.0  0.798043504210824  0.3776953024953684  0.40495173618305796  1.0000
  O   O6        1.0  0.2980426411037484  0.1223026363888664  0.5950469489672088  1.0000
  O   O7        1.0  0.20195679726401747  0.6223037261035884  0.5950472138570787  1.0000
  O   O8        1.0  0.7019562356317761  0.8776953419332686  0.40495444821807774  1.0000
  O   O9        1.0  0.5121795347332636  0.6272001166886128  0.3896298294415103  1.0000
  O   O10       1.0  0.0121800963655048  0.8728000016250733  0.610373208849225  1.0000
  O   O11       1.0  0.4878150677843322  0.3727999621871803  0.6103704968142125  1.0000
  O   O12       1.0  0.9878173556307174  0.1272000772507198  0.38962902908686187  1.0000
  O   O13       1.0  0.20046224572729435  0.5750066095837738  0.40476266009719086  1.0000
  O   O14       1.0  0.70046310883437  0.9249924584530832  0.5952351786172301  1.0000
  O   O15       1.0  0.7995337815296109  0.42499241901519014  0.5952350154893722  1.0000
  O   O16       1.0  0.2995357679011547  0.075008670699539  0.4047646121737073  1.0000
  O   O17       1.0  0.1601392737613949  0.3775829228744811  0.5001259620305374  1.0000
  O   O18       1.0  0.6601401368684705  0.1224160662865827  0.49987409933531507  1.0000
  O   O19       1.0  0.83985817823482  0.6224161057244828  0.4998729880095992  1.0000
  O   O20       1.0  0.3398587398670542  0.8775829623123741  0.5001267623851858  1.0000
