data_image0
_chemical_formula_structural       Zn8H11C82N12O26F13
_chemical_formula_sum              "Zn8 H11 C82 N12 O26 F13"
_cell_length_a       18.318994457219727
_cell_length_b       18.356051049517852
_cell_length_c       18.300681859042875
_cell_angle_alpha    90.17549192228782
_cell_angle_beta     119.58328198691262
_cell_angle_gamma    120.02210518188583

_space_group_name_H-M_alt    "P 1"
_space_group_IT_number       1

loop_
  _space_group_symop_operation_xyz
  'x, y, z'

loop_
  _atom_site_type_symbol
  _atom_site_label
  _atom_site_symmetry_multiplicity
  _atom_site_fract_x
  _atom_site_fract_y
  _atom_site_fract_z
  _atom_site_occupancy
  Zn  Zn1       1.0  0.0899566295722209  0.13383963980406577  0.5447762488476753  1.0000
  Zn  Zn2       1.0  0.0921373444950008  0.9614200506969584  0.5493205927810365  1.0000
  Zn  Zn3       1.0  0.9146913937048923  0.955151161919474  0.3732438231114158  1.0000
  Zn  Zn4       1.0  0.9109956582848755  0.9551913918998454  0.5440080419545978  1.0000
  Zn  Zn5       1.0  0.9147880328797912  0.3700962712787118  0.9559471261165127  1.0000
  Zn  Zn6       1.0  0.08605398778679788  0.5435387163923907  0.13226349149285  1.0000
  Zn  Zn7       1.0  0.9142041308118112  0.5436428885035909  0.9583575011098375  1.0000
  Zn  Zn8       1.0  0.09431995897136151  0.5457512392293822  0.9619467060104369  1.0000
  H   H1        1.0  0.32914462483306306  0.3714394112324727  0.2817829981831963  1.0000
  H   H2        1.0  0.6865651086477557  0.9781310423764326  0.40708820714734634  1.0000
  H   H3        1.0  0.5855736646597762  0.028014143177507802  0.4100517226985898  1.0000
  H   H4        1.0  0.39410383155777856  0.9242892987006784  0.321510263591307  1.0000
  H   H5        1.0  0.30426169518976554  0.7726586939898964  0.22593610032290454  1.0000
  H   H6        1.0  0.41047087043801883  0.6112469082769395  0.14689845101149507  1.0000
  H   H7        1.0  0.6683955409238251  0.44511316947684076  0.5520767808085195  1.0000
  H   H8        1.0  0.8316625259388744  0.22105476489861792  0.6737733612444144  1.0000
  H   H9        1.0  0.5916301607746491  0.13764910447365256  0.5843963070140389  1.0000
  H   H10       1.0  0.6898489410420725  0.2564264963286362  0.7257030134821676  1.0000
  H   H11       1.0  0.6012237314740859  0.37805765864475666  0.8754656011916211  1.0000
  C   C1        1.0  0.9890696961198558  0.855027229839216  0.6317352984406029  1.0000
  C   C2        1.0  0.9079460243315511  0.23477757339887972  0.707800470612831  1.0000
  C   C3        1.0  0.9327829502069634  0.1651141864017305  0.736965725094258  1.0000
  C   C4        1.0  0.03018014075880162  0.23916832067831  0.8315214968266103  1.0000
  C   C5        1.0  0.09938633257247179  0.26958375279483693  0.7942406527089431  1.0000
  C   C6        1.0  0.0018950440647458365  0.196019695186834  0.7007986085254954  1.0000
  C   C7        1.0  0.1726817854053238  0.2264640683411443  0.3399749153733395  1.0000
  C   C8        1.0  0.2561910838531531  0.2763526596976932  0.3345394226634184  1.0000
  C   C9        1.0  0.26268336726248975  0.3341171609012931  0.284852807954806  1.0000
  C   C10       1.0  0.18067216234204153  0.3398829735757616  0.23858637061125879  1.0000
  C   C11       1.0  0.0930240487577123  0.29425351736077227  0.24179506606012066  1.0000
  C   C12       1.0  0.9967133747193844  0.13600989094184973  0.36137707588997614  1.0000
  C   C13       1.0  0.09010849115137629  0.23706398404235074  0.2956757111169707  1.0000
  C   C14       1.0  0.004646284033938727  0.19208068877463091  0.3018127564331579  1.0000
  C   C15       1.0  0.9248011434908536  0.20014283724260198  0.2521724122639527  1.0000
  C   C16       1.0  0.9239434804315538  0.25301337780724964  0.19610192469097865  1.0000
  C   C17       1.0  0.00948110898271174  0.30167288369641193  0.19300376140318318  1.0000
  C   C18       1.0  0.6031101189793091  0.9327151728528023  0.36728825192111697  1.0000
  C   C19       1.0  0.546435021518278  0.9603429595501043  0.3691767612070224  1.0000
  C   C20       1.0  0.4380217105205589  0.9021484446896153  0.318272408296238  1.0000
  C   C21       1.0  0.3877924700054862  0.8171815014472089  0.2648573243519364  1.0000
  C   C22       1.0  0.44339484982373994  0.7867577436869055  0.2599860210281051  1.0000
  C   C23       1.0  0.27782097767804714  0.1409365288827829  0.6416343602396282  1.0000
  C   C24       1.0  0.5538204229103841  0.8453911077637528  0.31315939218100647  1.0000
  C   C25       1.0  0.6098479925284863  0.8157238498743523  0.3070531677479522  1.0000
  C   C26       1.0  0.5585307301388269  0.7326013983213003  0.24708119320315075  1.0000
  C   C27       1.0  0.4496619719679773  0.6757900791560376  0.19359902523338235  1.0000
  C   C28       1.0  0.3940856845338774  0.7014966489956083  0.20113695793098435  1.0000
  C   C29       1.0  0.8071836203886706  0.6596832467571616  0.5556358336646738  1.0000
  C   C30       1.0  0.7239277145200944  0.5703788939751321  0.5243155272983911  1.0000
  C   C31       1.0  0.7312857110748753  0.5152445595205465  0.5773227664516583  1.0000
  C   C32       1.0  0.8196427374072072  0.5512968999561211  0.6609749301394385  1.0000
  C   C33       1.0  0.9035946855695871  0.642855024098516  0.7001288474532429  1.0000
  C   C34       1.0  0.7247616462995907  0.8728684233631158  0.36468892486135457  1.0000
  C   C35       1.0  0.8981546413113579  0.698479914334115  0.6448891027082412  1.0000
  C   C36       1.0  0.9831849759989668  0.7896310472277078  0.6820622824435035  1.0000
  C   C37       1.0  0.0685885122716527  0.82427580764368  0.7697093891412335  1.0000
  C   C38       1.0  0.06987752599044934  0.7680000899748479  0.822118076295581  1.0000
  C   C39       1.0  0.9902808165559595  0.6793586689520765  0.7898247817673723  1.0000
  C   C40       1.0  0.9084766284140073  0.6637487318336  0.3436680045430763  1.0000
  C   C41       1.0  0.8607602361188358  0.5734298020255936  0.3298784745644809  1.0000
  C   C42       1.0  0.8538542479095524  0.5210755511773401  0.2675310551544782  1.0000
  C   C43       1.0  0.8959738194230341  0.5586276678535073  0.22057153059839854  1.0000
  C   C44       1.0  0.95026725778866  0.6535708463781944  0.2376200177594612  1.0000
  C   C45       1.0  0.006213163987553266  0.8611517426614413  0.37258164547986167  1.0000
  C   C46       1.0  0.9544197002528919  0.7070614099120078  0.2992080759654529  1.0000
  C   C47       1.0  0.0025742877508177745  0.8001843726640061  0.3133376457095237  1.0000
  C   C48       1.0  0.04603677042207021  0.8383611589592096  0.2683870041835377  1.0000
  C   C49       1.0  0.04525035109107728  0.787133617552577  0.21040014458626638  1.0000
  C   C50       1.0  0.9992649852354778  0.6969723272917181  0.1951115706634711  1.0000
  C   C51       1.0  0.39270832109327375  0.11085520482519944  0.5816250497193707  1.0000
  C   C52       1.0  0.4431548512546258  0.09587435578530551  0.5532015939780308  1.0000
  C   C53       1.0  0.5523176082896201  0.14985001099390868  0.6067077725736071  1.0000
  C   C54       1.0  0.6063409506783942  0.2159710377614559  0.6847681775739145  1.0000
  C   C55       1.0  0.5555360963381234  0.23256287253491345  0.7141565553189366  1.0000
  C   C56       1.0  0.00375239113163423  0.13853428231714565  0.6444193993220679  1.0000
  C   C57       1.0  0.44466987493449756  0.1784209462408413  0.661526850362442  1.0000
  C   C58       1.0  0.3926518418898228  0.19613486423992302  0.6890002263045928  1.0000
  C   C59       1.0  0.45162892937176496  0.26802118896917904  0.7646679202959703  1.0000
  C   C60       1.0  0.5592080691929554  0.3227110888071678  0.8162426139778631  1.0000
  C   C61       1.0  0.6106342567122809  0.3043226980534186  0.7926961828573695  1.0000
  C   C62       1.0  0.27963939131550564  0.6383695620860195  0.1432709363790535  1.0000
  C   C63       1.0  0.7255589282605117  0.36216749705437223  0.8541238849507807  1.0000
  C   C64       1.0  0.008279876254313473  0.3618914324037164  0.13708428439016976  1.0000
  C   C65       1.0  0.9971887902189565  0.6286252633840377  0.854881785996028  1.0000
  C   C66       1.0  0.007623094350499686  0.648539896990478  0.13640617506889197  1.0000
  C   C67       1.0  0.9752234891867745  0.2648496707969414  0.6696064500572092  1.0000
  C   C68       1.0  0.0026739187943789354  0.3651008312987614  0.8580287577580847  1.0000
  C   C69       1.0  0.07189000842206647  0.3379331082633358  0.763869287233085  1.0000
  C   C70       1.0  0.0036332639527643373  0.3082829140424935  0.8002146009208672  1.0000
  C   C71       1.0  0.8362816745039582  0.2550372456140906  0.14538249714286877  1.0000
  C   C72       1.0  0.6110890898648056  0.700446971795387  0.23733939313165578  1.0000
  C   C73       1.0  0.15304348995093175  0.9159743273500711  0.8080302925515852  1.0000
  C   C74       1.0  0.9451513646134799  0.2754668743863604  0.5845602199080773  1.0000
  C   C75       1.0  0.7982314680778517  0.7088066623325275  0.4957180200505674  1.0000
  C   C76       1.0  0.629264521923972  0.532836690636394  0.43920468713132277  1.0000
  C   C77       1.0  0.8786594785630516  0.4999490301115018  0.1538727225963897  1.0000
  C   C78       1.0  0.38510837534961706  0.02824633322104121  0.47085242621400886  1.0000
  C   C79       1.0  0.8592187354920144  0.07528801093144473  0.722953485479124  1.0000
  C   C80       1.0  0.05902062978408651  0.2286594508931969  0.9164852941756507  1.0000
  C   C81       1.0  0.19802393900466345  0.2858244245237175  0.8387862939217996  1.0000
  C   C82       1.0  0.1685406506988443  0.1624252200787808  0.3839469613130149  1.0000
  N   N1        1.0  0.7631681233380122  0.25483347145674884  0.10334948801998677  1.0000
  N   N2        1.0  0.6483132471315471  0.6693864011612618  0.22581736625279789  1.0000
  N   N3        1.0  0.2210767323454591  0.991413769317127  0.8387300180562319  1.0000
  N   N4        1.0  0.9187340146499283  0.28333780289040084  0.5143306963389591  1.0000
  N   N5        1.0  0.7915679645061716  0.7484318620751581  0.44574273684238347  1.0000
  N   N6        1.0  0.5485836555832578  0.4991497051788515  0.37205412102031227  1.0000
  N   N7        1.0  0.8646954808565328  0.45402138077729154  0.09725884855650697  1.0000
  N   N8        1.0  0.3389202223578921  0.9735331481198133  0.4031853915536558  1.0000
  N   N9        1.0  0.7971470357499159  0.0028238938709393008  0.7120235048203368  1.0000
  N   N10       1.0  0.0830237116797292  0.2222891926899422  0.9869732665662025  1.0000
  N   N11       1.0  0.27908962163682116  0.2993063092874594  0.8760810020822659  1.0000
  N   N12       1.0  0.1598266125061159  0.10677767986513233  0.41676223934344137  1.0000
  O   O1        1.0  0.0026389766899371017  0.0027999465116295007  0.5045322156615268  1.0000
  O   O2        1.0  0.23612595774635287  0.18188603649769425  0.6110958828456319  1.0000
  O   O3        1.0  0.767871224633808  0.9016568067189895  0.44832958596265365  1.0000
  O   O4        1.0  0.045258764004238096  0.8710978423481492  0.6045492361927527  1.0000
  O   O5        1.0  0.9353194329245796  0.05251864543751591  0.32221397826656767  1.0000
  O   O6        1.0  0.002386526589987083  0.500876580136996  0.0010818022751734385  1.0000
  O   O7        1.0  0.2386405131572788  0.6130506275386909  0.05967629838780653  1.0000
  O   O8        1.0  0.7699223165844203  0.32253510155004517  0.8744017544081614  1.0000
  O   O9        1.0  0.05920449532208488  0.44377023140283006  0.17939696066482466  1.0000
  O   O10       1.0  0.9401974167001513  0.6137669276083032  0.880930406794853  1.0000
  O   O11       1.0  0.07375609516394363  0.6314690609923301  0.17735428174054133  1.0000
  O   O12       1.0  0.9410940197445896  0.8885378981109185  0.625646283032239  1.0000
  O   O13       1.0  0.07154582983177704  0.4480887912438973  0.8875020105105021  1.0000
  O   O14       1.0  0.9487085625020555  0.6302923369478464  0.05320624125876339  1.0000
  O   O15       1.0  0.9334255287940963  0.3228133332784609  0.8719758572386451  1.0000
  O   O16       1.0  0.9531142145849574  0.3228166339908398  0.053653091454926034  1.0000
  O   O17       1.0  0.06165010698912724  0.6097439141442182  0.8783668110249536  1.0000
  O   O18       1.0  0.23342891015702366  0.6151829523424015  0.18154695139381263  1.0000
  O   O19       1.0  0.7680197047955133  0.4456604645815362  0.8814307045905776  1.0000
  O   O20       1.0  0.05133917279447787  0.17911594787499746  0.44387283970613106  1.0000
  O   O21       1.0  0.23451852632263132  0.06030413813619621  0.6394075946962233  1.0000
  O   O22       1.0  0.7684504345539838  0.8868867943086801  0.3249040244063721  1.0000
  O   O23       1.0  0.07635627756216945  0.8912178854495921  0.4550813611042699  1.0000
  O   O24       1.0  0.9419353681937326  0.055433080236376504  0.6235584058325897  1.0000
  O   O25       1.0  0.9395464558699164  0.8773564398015523  0.33143121517070995  1.0000
  O   O26       1.0  0.06658596559434937  0.1811825569406623  0.6237872073720396  1.0000
  F   F1        1.0  0.1407272659314245  0.4224953730103991  0.7763457781412981  1.0000
  F   F2        1.0  0.1837225310442464  0.3917591380003176  0.18645633044302204  1.0000
  F   F3        1.0  0.8268206054918394  0.4958041644190061  0.7084416752107003  1.0000
  F   F4        1.0  0.1515491599116531  0.8043910336488765  0.9075564440990078  1.0000
  F   F5        1.0  0.09095949422106742  0.9259306544736249  0.2795590511912848  1.0000
  F   F6        1.0  0.9109354103466532  0.7108191875953552  0.4022476559338981  1.0000
  F   F7        1.0  0.8197882495802631  0.5351995718391934  0.37467252633241793  1.0000
  F   F8        1.0  0.8040861837905668  0.4330337124452157  0.25325106510692313  1.0000
  F   F9        1.0  0.09219724462380445  0.8285743970512698  0.17062043030134785  1.0000
  F   F10       1.0  0.40507235765605293  0.28640498419731136  0.7927806576946352  1.0000
  F   F11       1.0  0.28934376186673927  0.059183676300470715  0.5283744079681867  1.0000
  F   F12       1.0  0.8435204313965129  0.1571482389713452  0.25746701464262844  1.0000
  F   F13       1.0  0.33434537685454313  0.26735531632189696  0.3778713631842834  1.0000
