data_image0
_chemical_formula_structural       Ni2H34C38N6O8
_chemical_formula_sum              "Ni2 H34 C38 N6 O8"
_cell_length_a       9.328185921296871
_cell_length_b       9.513818054380792
_cell_length_c       12.884133310703623
_cell_angle_alpha    87.99738050142527
_cell_angle_beta     90.90282914363576
_cell_angle_gamma    88.33114314800707

_space_group_name_H-M_alt    "P 1"
_space_group_IT_number       1

loop_
  _space_group_symop_operation_xyz
  'x, y, z'

loop_
  _atom_site_type_symbol
  _atom_site_label
  _atom_site_symmetry_multiplicity
  _atom_site_fract_x
  _atom_site_fract_y
  _atom_site_fract_z
  _atom_site_occupancy
  Ni  Ni1       1.0  0.29223379977405267  0.750318497841931  0.7587567492764153  1.0000
  Ni  Ni2       1.0  0.7077166955832723  0.24951668227613777  0.2410886136920781  1.0000
  H   H1        1.0  0.0805956905238006  0.9659531142096115  0.8462792387615824  1.0000
  H   H2        1.0  0.919413480802007  0.03406115777135449  0.15363423699393056  1.0000
  H   H3        1.0  0.8181955942005671  0.014635075492144302  0.8614868971633813  1.0000
  H   H4        1.0  0.18177544089007816  0.9854227626870725  0.13851512096710655  1.0000
  H   H5        1.0  0.6462512677228175  0.8379272494940434  0.7858986801861009  1.0000
  H   H6        1.0  0.3536783263212158  0.1621069028249522  0.21411191239597124  1.0000
  H   H7        1.0  0.749056017568499  0.6269992673617395  0.7038352668199724  1.0000
  H   H8        1.0  0.2508977041782074  0.37301586004673476  0.2962036374257836  1.0000
  H   H9        1.0  0.019272722313608902  0.5949989629901252  0.6963830763339731  1.0000
  H   H10       1.0  0.9806546948164083  0.40501995716281414  0.3036082741440539  1.0000
  H   H11       1.0  0.4540150052540141  0.009937171044413202  0.7417168476592693  1.0000
  H   H12       1.0  0.5460361839768665  0.9901837370195706  0.2582321110463611  1.0000
  H   H13       1.0  0.4830159144687869  0.20578053730736906  0.6084254760873408  1.0000
  H   H14       1.0  0.5169464243611729  0.7941580428391573  0.3914381521199247  1.0000
  H   H15       1.0  0.3338545409812069  0.2088796724706228  0.4454830267240484  1.0000
  H   H16       1.0  0.6661302054261853  0.7909873976565436  0.5544879262095749  1.0000
  H   H17       1.0  0.1538560628712773  0.0172677385934463  0.424744099140618  1.0000
  H   H18       1.0  0.846150050862967  0.9827018363908663  0.5752327642348903  1.0000
  H   H19       1.0  0.1418381481324573  0.8279961984011378  0.5640533669289668  1.0000
  H   H20       1.0  0.8581164725050598  0.17192725197782008  0.43587172240023636  1.0000
  H   H21       1.0  0.5007811270746244  0.5231417499427594  0.786785775218171  1.0000
  H   H22       1.0  0.49931227811367757  0.4769648593988123  0.21328082202074236  1.0000
  H   H23       1.0  0.5352161434338781  0.3042449396704257  0.8984043949583198  1.0000
  H   H24       1.0  0.4650360289482265  0.6960173622249641  0.10183597811057875  1.0000
  H   H25       1.0  0.34952611169944686  0.24732836193112456  0.03183593781966471  1.0000
  H   H26       1.0  0.6506632034136998  0.7527908752392561  0.9682877440846699  1.0000
  H   H27       1.0  0.13972613620340724  0.41659204323872956  0.04891474402665352  1.0000
  H   H28       1.0  0.8603128505918818  0.5832914909805281  0.9510338203640817  1.0000
  H   H29       1.0  0.12336463581306127  0.6322328890334887  0.9316945358947069  1.0000
  H   H30       1.0  0.8764924070813717  0.36756457702196593  0.06828890618853481  1.0000
  H   H31       1.0  0.3388030425121755  0.47920808133353887  0.4787067430156144  1.0000
  H   H32       1.0  0.6611398492807153  0.5206597799231717  0.521261626613047  1.0000
  H   H33       1.0  0.42241584875105087  0.973778446884239  0.10295201650734505  1.0000
  H   H34       1.0  0.5776347973445438  0.026248400371414994  0.8971377784581309  1.0000
  C   C1        1.0  0.003211412363704405  0.8942679130877874  0.814873900797153  1.0000
  C   C2        1.0  0.9967394919081585  0.10576823268613106  0.18512670109313237  1.0000
  C   C3        1.0  0.8559365120123131  0.9207489805756874  0.8224042344882962  1.0000
  C   C4        1.0  0.1440174491491106  0.0793584582335498  0.17756139172513494  1.0000
  C   C5        1.0  0.7625876992510072  0.8233988277635402  0.7820992850653641  1.0000
  C   C6        1.0  0.23735980814024765  0.1767210406826933  0.21787780240357085  1.0000
  C   C7        1.0  0.8200643877288626  0.7035977825250157  0.7363893365604641  1.0000
  C   C8        1.0  0.1798534900431861  0.29649202530451646  0.2635910350326185  1.0000
  C   C9        1.0  0.9685195479545925  0.6860132020953243  0.7319629961202738  1.0000
  C   C10       1.0  0.0313939923984066  0.3140191070384972  0.26804830037917077  1.0000
  C   C11       1.0  0.39126019647272864  0.016210261916150194  0.6696932963481503  1.0000
  C   C12       1.0  0.60867962700555  0.9837569321527154  0.3302979567728529  1.0000
  C   C13       1.0  0.40536582689188794  0.1245366559233076  0.5956628424843446  1.0000
  C   C14       1.0  0.5946475265759402  0.8753348070868653  0.4042818317216403  1.0000
  C   C15       1.0  0.32064987108056187  0.12677391289044948  0.5054744951100931  1.0000
  C   C16       1.0  0.6794433059836961  0.8730572667018137  0.4944703423801117  1.0000
  C   C17       1.0  0.2228250843902799  0.020029710393977492  0.49371630279116385  1.0000
  C   C18       1.0  0.7771998720906906  0.9798900688964733  0.5062628072372422  1.0000
  C   C19       1.0  0.21482885139683106  0.9145816215556836  0.5708579323174734  1.0000
  C   C20       1.0  0.7851015601918974  0.08536779865574567  0.4291358029777613  1.0000
  C   C21       1.0  0.4227449096500066  0.49363664238622096  0.8450024077871705  1.0000
  C   C22       1.0  0.5773986778297413  0.5065309783931792  0.15511034711232705  1.0000
  C   C23       1.0  0.4403783185123089  0.37195644433491276  0.90736951199024  1.0000
  C   C24       1.0  0.5598049903004066  0.6282288072611806  0.09276655832238133  1.0000
  C   C25       1.0  0.33774899018367677  0.34144124644052437  0.9815935888926719  1.0000
  C   C26       1.0  0.6623621126330903  0.6585850670322915  0.018436013683967203  1.0000
  C   C27       1.0  0.22118507378035449  0.43490026682955807  0.9907414218156492  1.0000
  C   C28       1.0  0.7788627269723919  0.5650832225490207  0.009238627827237203  1.0000
  C   C29       1.0  0.2101564603170658  0.5545534324146785  0.9255178041314526  1.0000
  C   C30       1.0  0.7898817375035563  0.4454526141160143  0.07449064857009803  1.0000
  C   C31       1.0  0.33956683442290364  0.8843818099379632  0.9596237253058465  1.0000
  C   C32       1.0  0.6603666789410028  0.11561220565347699  0.040310505399688216  1.0000
  C   C33       1.0  0.4434731619472457  0.9675065506982676  0.020188593138883004  1.0000
  C   C34       1.0  0.5563655016605367  0.03260781885892069  0.9798298425105404  1.0000
  C   C35       1.0  0.4140263586199566  0.6091859687521577  0.6071644318192571  1.0000
  C   C36       1.0  0.5860658037821834  0.39078153941576227  0.3928346964988095  1.0000
  C   C37       1.0  0.4344237901816186  0.5181465225596397  0.5168140158042648  1.0000
  C   C38       1.0  0.5655460024656307  0.48176158283199294  0.48320605279720774  1.0000
  N   N1        1.0  0.058896308544880996  0.7795472723403591  0.770621699883222  1.0000
  N   N2        1.0  0.9410285650897379  0.2204670851603509  0.22942558394145615  1.0000
  N   N3        1.0  0.2984153163822043  0.9118459851098705  0.657469795739438  1.0000
  N   N4        1.0  0.701515240359704  0.08810207840539869  0.34253560104981073  1.0000
  N   N5        1.0  0.30898451026644114  0.5833350523062463  0.8530959474226594  1.0000
  N   N6        1.0  0.691068357587774  0.4167052804546501  0.14691839981973945  1.0000
  O   O1        1.0  0.2832444219443601  0.6243090781743418  0.6387730697141478  1.0000
  O   O2        1.0  0.7168373467292141  0.37563023768925763  0.36122555188542554  1.0000
  O   O3        1.0  0.5197166283860781  0.6645926425998423  0.6497551616222524  1.0000
  O   O4        1.0  0.4803393133177991  0.33545819310383257  0.3502575278758259  1.0000
  O   O5        1.0  0.3732666079879365  0.8683100578749715  0.8631616824006303  1.0000
  O   O6        1.0  0.626495224811208  0.13160899308100935  0.13677785593258565  1.0000
  O   O7        1.0  0.23187441039702605  0.8384472662867992  0.004834320428777501  1.0000
  O   O8        1.0  0.7681799402162425  0.16150373587149855  0.9952183457663611  1.0000
