data_image0
_chemical_formula_structural       Bi4H48C54S6Br12
_chemical_formula_sum              "Bi4 H48 C54 S6 Br12"
_cell_length_a       9.103864804175648
_cell_length_b       14.179330845460932
_cell_length_c       14.7725
_cell_angle_alpha    107.60574544250292
_cell_angle_beta     107.77643873741606
_cell_angle_gamma    98.5170363017881

_space_group_name_H-M_alt    "P 1"
_space_group_IT_number       1

loop_
  _space_group_symop_operation_xyz
  'x, y, z'

loop_
  _atom_site_type_symbol
  _atom_site_label
  _atom_site_symmetry_multiplicity
  _atom_site_fract_x
  _atom_site_fract_y
  _atom_site_fract_z
  _atom_site_occupancy
  Bi  Bi1       1.0  0.3052971424649868  0.5090131430806579  0.3755688272353198  1.0000
  Bi  Bi2       1.0  0.6946955152989176  0.49097644073525265  0.6244113332096362  1.0000
  Bi  Bi3       1.0  0.06717903904657865  0.7058545985672211  0.2888576702281754  1.0000
  Bi  Bi4       1.0  0.9328110201694528  0.2941426584820448  0.7111465678016557  1.0000
  H   H1        1.0  0.07812221865646052  0.1983415726092304  0.40511730161934884  1.0000
  H   H2        1.0  0.9218795151071718  0.8016671942900828  0.5948897667853573  1.0000
  H   H3        1.0  0.09284928834338052  0.329179409345386  0.4726810101645356  1.0000
  H   H4        1.0  0.9071637776987702  0.670831659523941  0.5273187047134016  1.0000
  H   H5        1.0  0.269120334721471  0.2930008813574858  0.4631264020002419  1.0000
  H   H6        1.0  0.7308794976443451  0.7070032816018141  0.5368722027041245  1.0000
  H   H7        1.0  0.9962923734490161  0.22575573344877142  0.09382234337471125  1.0000
  H   H8        1.0  0.003716141908540637  0.7742415236004945  0.9061813055748614  1.0000
  H   H9        1.0  0.06560910484594731  0.09410837059272133  0.9754560744664715  1.0000
  H   H10       1.0  0.9343923753688443  0.9058858171632025  0.024547390543908486  1.0000
  H   H11       1.0  0.4006151414152157  0.0538507517485201  0.2308675033666034  1.0000
  H   H12       1.0  0.5993804317962059  0.9461319261573564  0.7691321856311504  1.0000
  H   H13       1.0  0.3345097154854741  0.1867657327563066  0.3494841125152988  1.0000
  H   H14       1.0  0.6654798873717738  0.8132192471195836  0.6505137676029236  1.0000
  H   H15       1.0  0.2076455289230665  0.03928158356030311  0.899058272143435  1.0000
  H   H16       1.0  0.7923430598844876  0.9607149061656344  0.10094343565913996  1.0000
  H   H17       1.0  0.2990195292005495  0.0702814463508403  0.7902689559389416  1.0000
  H   H18       1.0  0.7009677032882138  0.9297173453451039  0.20972910338031886  1.0000
  H   H19       1.0  0.3014625410804684  0.0735909119007303  0.6270774657757627  1.0000
  H   H20       1.0  0.6985275181355634  0.9264063451485358  0.3729193259856701  1.0000
  H   H21       1.0  0.07839094978364608  0.9950541601161833  0.4330302754890526  1.0000
  H   H22       1.0  0.9216014164500737  0.0049430969330828  0.5669750735393606  1.0000
  H   H23       1.0  0.16983931202941707  0.998077414061598  0.34173845665664265  1.0000
  H   H24       1.0  0.8301521288748505  0.0019259815743595  0.6582671465610659  1.0000
  H   H25       1.0  0.2714280938281349  0.0833205718062757  0.4725070878809134  1.0000
  H   H26       1.0  0.728564094965094  0.916687427769702  0.5274986388026975  1.0000
  H   H27       1.0  0.26585765341025086  0.7484303012106894  0.5211895685486497  1.0000
  H   H28       1.0  0.7341524464454849  0.2515707924552615  0.4788107538376778  1.0000
  H   H29       1.0  0.2604940197559387  0.7447578917226779  0.6832475820907292  1.0000
  H   H30       1.0  0.7395123026736243  0.2552424346199373  0.3167538376042032  1.0000
  H   H31       1.0  0.3916393428172853  0.7749605055667033  0.8332555552202197  1.0000
  H   H32       1.0  0.6083641528850094  0.2250413554225901  0.16673833189715742  1.0000
  H   H33       1.0  0.3602814661098749  0.9062648748913846  0.12682977773563675  1.0000
  H   H34       1.0  0.6397232718215096  0.093731614834546  0.8731654914536621  1.0000
  H   H35       1.0  0.6199821306362594  0.7725695260504821  0.9305134099515584  1.0000
  H   H36       1.0  0.38003215226552817  0.22742773099879096  0.06948726255978245  1.0000
  H   H37       1.0  0.7786526674851332  0.6609055648442776  0.9868353706681958  1.0000
  H   H38       1.0  0.22136184359604266  0.3390978307916868  0.013172542399892994  1.0000
  H   H39       1.0  0.5029371240839068  0.6217321738744062  0.17166115460981501  1.0000
  H   H40       1.0  0.4970712138331663  0.3782758257015716  0.8283394873275044  1.0000
  H   H41       1.0  0.34272031085468074  0.7314256487527404  0.11264846939764094  1.0000
  H   H42       1.0  0.6572933889867443  0.2685869547632578  0.8873612873376473  1.0000
  H   H43       1.0  0.6863742580905665  0.5534097040013961  0.2565834563356191  1.0000
  H   H44       1.0  0.3136322037981429  0.4466021321912664  0.743422008076216  1.0000
  H   H45       1.0  0.7505287043057864  0.4432151669843948  0.20363683175740022  1.0000
  H   H46       1.0  0.24947648998438862  0.5567935999149186  0.7963708877449349  1.0000
  H   H47       1.0  0.5602494097359384  0.4556918444342557  0.13351253367719107  1.0000
  H   H48       1.0  0.43976051267930677  0.5443199917584067  0.8664908740983039  1.0000
  C   C1        1.0  0.1400837210833643  0.2780764424645099  0.42356455747463434  1.0000
  C   C2        1.0  0.859918418300147  0.7219277204947829  0.5764344812948111  1.0000
  C   C3        1.0  0.1582295493831225  0.2141185077289407  0.22965731153333735  1.0000
  C   C4        1.0  0.8417802969237655  0.7858680067936206  0.7703427921261224  1.0000
  C   C5        1.0  0.086292197709561  0.1888137187411587  0.12388564413142691  1.0000
  C   C6        1.0  0.9137083318063262  0.8111781670447584  0.8761129120952873  1.0000
  C   C7        1.0  0.1261807070803158  0.11399969344220302  0.05726243401306162  1.0000
  C   C8        1.0  0.8738224463528964  0.8859929596670498  0.9427348078725046  1.0000
  C   C9        1.0  0.23738569605747273  0.06188385975728752  0.09310375002184662  1.0000
  C   C10       1.0  0.7626116898315091  0.9381087933519652  0.9068957913684629  1.0000
  C   C11       1.0  0.3102040806214887  0.0898973001225585  0.19962921886870083  1.0000
  C   C12       1.0  0.6897913785002316  0.9100823084899758  0.8003654959836908  1.0000
  C   C13       1.0  0.2727752342535439  0.165606024431753  0.2675429108359779  1.0000
  C   C14       1.0  0.7272226459755586  0.8343766534741236  0.7324545044928925  1.0000
  C   C15       1.0  0.2766024658487325  0.9813781562915338  0.020870162999429568  1.0000
  C   C16       1.0  0.7233917764133511  0.0186152641410544  0.9791249480865433  1.0000
  C   C17       1.0  0.2539948179941831  0.9801128401098114  0.9220376481183765  1.0000
  C   C18       1.0  0.7460059397010923  0.019885184262790304  0.07795731772923631  1.0000
  C   C19       1.0  0.2928875329143352  0.9055773531819753  0.8529116002106322  1.0000
  C   C20       1.0  0.7071065065378052  0.09441836922062662  0.14708211022503553  1.0000
  C   C21       1.0  0.2806514949735828  0.9073099692755591  0.7513804706722383  1.0000
  C   C22       1.0  0.7193438120770994  0.09268882242037793  0.24861910787482341  1.0000
  C   C23       1.0  0.2891520439789161  0.9984840954298877  0.7314380481213479  1.0000
  C   C24       1.0  0.7108380152371155  0.0015131616193784  0.26855468203913097  1.0000
  C   C25       1.0  0.29152404860426634  0.0008241052632911  0.638195238164805  1.0000
  C   C26       1.0  0.7084644514830387  0.9991777557259951  0.3618012429974443  1.0000
  C   C27       1.0  0.2831270341546173  0.9110445319538203  0.5611998822874967  1.0000
  C   C28       1.0  0.716876892537009  0.088961165652151  0.43880061523645963  1.0000
  C   C29       1.0  0.19210231017844853  0.0070087313546736  0.4215479009022758  1.0000
  C   C30       1.0  0.807891437743514  0.9929946642812837  0.5784554286465565  1.0000
  C   C31       1.0  0.2730001888741143  0.8194322641744094  0.5795799908885543  1.0000
  C   C32       1.0  0.726999643491709  0.1805718987848905  0.4204206446162857  1.0000
  C   C33       1.0  0.2711483983523522  0.8179006867949568  0.6726776038319429  1.0000
  C   C34       1.0  0.7288480622071773  0.1820981049009873  0.3273228686811506  1.0000
  C   C35       1.0  0.3561085617912311  0.8315912697629955  0.8847695052526989  1.0000
  C   C36       1.0  0.6439001817457212  0.1684121258729689  0.11522784558380292  1.0000
  C   C37       1.0  0.38282020173488013  0.8317807986270866  0.9833219744220046  1.0000
  C   C38       1.0  0.6171910516296961  0.16822029503886432  0.016676534196385335  1.0000
  C   C39       1.0  0.3398999529074445  0.9059656187901909  0.05017906109461738  1.0000
  C   C40       1.0  0.6601004878881938  0.0940316382590822  0.9498156223587487  1.0000
  C   C41       1.0  0.4700263499842734  0.7612139079951064  0.017649291313652882  1.0000
  C   C42       1.0  0.5299820766530418  0.23878872031752252  0.9823511617960676  1.0000
  C   C43       1.0  0.5931623971396078  0.7391380156068905  0.9828103397050896  1.0000
  C   C44       1.0  0.4068448759888597  0.2608646127057312  0.017189219438591943  1.0000
  C   C45       1.0  0.6841599562471289  0.6769219048449457  0.015128009491306278  1.0000
  C   C46       1.0  0.3158535154149007  0.3230845600843608  0.9848724758867604  1.0000
  C   C47       1.0  0.6533369833311441  0.6345457062689448  0.0839476413893649  1.0000
  C   C48       1.0  0.34666861657891  0.36545845669035515  0.916050017677236  1.0000
  C   C49       1.0  0.5300990300191515  0.6545007169553472  0.11897483528451873  1.0000
  C   C50       1.0  0.4699088769085904  0.3455034460039457  0.8810246117141531  1.0000
  C   C51       1.0  0.4395865037744144  0.7173913049299898  0.08579345192389096  1.0000
  C   C52       1.0  0.560422151042296  0.2826174619693234  0.9142128878755926  1.0000
  C   C53       1.0  0.6832974542498107  0.49738589256419635  0.18568385413787067  1.0000
  C   C54       1.0  0.316711834366167  0.5026244089817951  0.8143244043170769  1.0000
  S   S1        1.0  0.0907765585281339  0.30431046001267253  0.30773276566625196  1.0000
  S   S2        1.0  0.909225352675989  0.695687564359929  0.6922637710808816  1.0000
  S   S3        1.0  0.290754209605069  0.9098467402256958  0.442293960350547  1.0000
  S   S4        1.0  0.7092502367961373  0.09015742273359713  0.5577088971514427  1.0000
  S   S5        1.0  0.7788220946685342  0.5580067381097678  0.1201318842589957  1.0000
  S   S6        1.0  0.22118866435592824  0.4420043307595592  0.8798761966892386  1.0000
  Br  Br1       1.0  0.5838413600146879  0.4287119886031121  0.3923517573777033  1.0000
  Br  Br2       1.0  0.4161581554514982  0.5712914070328524  0.6076188106592753  1.0000
  Br  Br3       1.0  0.1564967011523777  0.48190360960565937  0.17158245239214412  1.0000
  Br  Br4       1.0  0.8433753452804426  0.5181151324970301  0.8283949881607952  1.0000
  Br  Br5       1.0  0.0283994895546158  0.5591646290243943  0.40404444521178123  1.0000
  Br  Br6       1.0  0.9716045892080559  0.440821885498167  0.595951865551001  1.0000
  Br  Br7       1.0  0.4518613644498615  0.7078511738885354  0.39316268357256945  1.0000
  Br  Br8       1.0  0.5481028612127902  0.2921338059873478  0.606835160364149  1.0000
  Br  Br9       1.0  0.8532884872662692  0.7798844194163763  0.3582151368454021  1.0000
  Br  Br10      1.0  0.14671512252571975  0.22012051086625922  0.6418087709565157  1.0000
  Br  Br11      1.0  0.08265854137408007  0.8075702127170103  0.16243682499391815  1.0000
  Br  Br12      1.0  0.9173876341555031  0.192431648272283  0.8375806617978441  1.0000
