data_image0
_chemical_formula_structural       Ni4H152C114N24O16
_chemical_formula_sum              "Ni4 H152 C114 N24 O16"
_cell_length_a       11.42017854800006
_cell_length_b       17.171949063000046
_cell_length_c       17.171956529000138
_cell_angle_alpha    90.00000857837495
_cell_angle_beta     90.00001179913548
_cell_angle_gamma    89.99999945881413

_space_group_name_H-M_alt    "P 1"
_space_group_IT_number       1

loop_
  _space_group_symop_operation_xyz
  'x, y, z'

loop_
  _atom_site_type_symbol
  _atom_site_label
  _atom_site_symmetry_multiplicity
  _atom_site_fract_x
  _atom_site_fract_y
  _atom_site_fract_z
  _atom_site_occupancy
  Ni  Ni1       1.0  9.970109009999999e-08  0.8195983357906367  0.6804018537009426  1.0000
  Ni  Ni2       1.0  2.3150157299999994e-08  0.680401519300517  0.1804017422106057  1.0000
  Ni  Ni3       1.0  4.828262949999998e-08  0.18040179360645678  0.3195984233205138  1.0000
  Ni  Ni4       1.0  1.2483346979999998e-07  0.3195980277514606  0.8195979524659762  1.0000
  H   H1        1.0  0.8315799053340597  0.8710659852282914  0.6021458346347117  1.0000
  H   H2        1.0  0.16842032473348212  0.6021454011219375  0.1289341123328214  1.0000
  H   H3        1.0  0.831579878917033  0.12893413893873876  0.3978545560924474  1.0000
  H   H4        1.0  0.16842044126962458  0.397854144870834  0.8710661877174601  1.0000
  H   H5        1.0  0.8315798295132241  0.6289338529207809  0.1021457154355971  1.0000
  H   H6        1.0  0.1684203658287871  0.10214568313067218  0.3710660645060386  1.0000
  H   H7        1.0  0.8315799547378757  0.37106568890117586  0.8978546752915192  1.0000
  H   H8        1.0  0.16842040017431967  0.8978544452071802  0.6289342355442853  1.0000
  H   H9        1.0  0.30241042077940244  0.504966017961564  0.5877915534767479  1.0000
  H   H10       1.0  0.6975907421770772  0.5877912030496901  0.49503395611996837  1.0000
  H   H11       1.0  0.3024095179780489  0.49503410953357724  0.41220876489458647  1.0000
  H   H12       1.0  0.6975898693195859  0.4122083396149208  0.5049658339413127  1.0000
  H   H13       1.0  0.3024094641221494  0.99503440371236  0.08779090676691231  1.0000
  H   H14       1.0  0.6975906697254145  0.08779143026689698  0.0049657085799879  1.0000
  H   H15       1.0  0.3024095989921634  0.004965723782746099  0.9122088292595405  1.0000
  H   H16       1.0  0.6975899417713265  0.912208694742837  0.9950346638261607  1.0000
  H   H17       1.0  0.1759412988291018  0.6166743651101709  0.6191677099602728  1.0000
  H   H18       1.0  0.8240580993687913  0.6191679470435643  0.3833256712814119  1.0000
  H   H19       1.0  0.17594126352393857  0.3833257631803377  0.38083200877359497  1.0000
  H   H20       1.0  0.8240581372460767  0.38083217717072415  0.616674136072433  1.0000
  H   H21       1.0  0.1759412193996184  0.8833260620550405  0.1191676288637495  1.0000
  H   H22       1.0  0.8240580615637753  0.11916760863425677  0.1166740154105455  1.0000
  H   H23       1.0  0.1759413429534291  0.11667406623546125  0.8808320898701254  1.0000
  H   H24       1.0  0.8240581750510998  0.8808319332349583  0.8833257919432639  1.0000
  H   H25       1.0  0.38674883779592045  0.7653179346418852  0.4759184793206472  1.0000
  H   H26       1.0  0.6132513907410058  0.4759186181176814  0.234681547509318  1.0000
  H   H27       1.0  0.3867488490284785  0.2346816099777057  0.5240812682378575  1.0000
  H   H28       1.0  0.613251472688617  0.5240815074224373  0.7653182310199682  1.0000
  H   H29       1.0  0.386748915551422  0.7346813798996263  0.9759185780922408  1.0000
  H   H30       1.0  0.613251391945667  0.9759183565205943  0.2653181637918748  1.0000
  H   H31       1.0  0.3867487712729769  0.2653181647199644  0.0240811694662639  1.0000
  H   H32       1.0  0.613251471483963  0.024081186674450795  0.7346816147373686  1.0000
  H   H33       1.0  0.516379906639557  0.6531320644374573  0.4434370325418726  1.0000
  H   H34       1.0  0.48361945964075653  0.4434365832133195  0.3468679371491276  1.0000
  H   H35       1.0  0.5163799263550146  0.3468674793668853  0.5565633150865068  1.0000
  H   H36       1.0  0.4836195063327722  0.5565635431421468  0.6531324059998127  1.0000
  H   H37       1.0  0.5163799828035636  0.8468678267725309  0.9434365657717834  1.0000
  H   H38       1.0  0.4836203016936409  0.9434368871712239  0.1531323339066972  1.0000
  H   H39       1.0  0.5163798501909157  0.15313229937684264  0.0565631995118139  1.0000
  H   H40       1.0  0.4836195399228557  0.056563239184193  0.8468674268974824  1.0000
  H   H41       1.0  0.0522751235026959  0.6514182459461678  0.7322328633816468  1.0000
  H   H42       1.0  0.9477251614356773  0.7322325701421446  0.3485818313231519  1.0000
  H   H43       1.0  0.05227417797995319  0.34858188312215777  0.2677674207875427  1.0000
  H   H44       1.0  0.9477252116928271  0.2677669709493316  0.6514185752850351  1.0000
  H   H45       1.0  0.052275044566066194  0.8485816165733765  0.2322327770811725  1.0000
  H   H46       1.0  0.9477251344066531  0.23223281927781864  0.1514184715579461  1.0000
  H   H47       1.0  0.052275132559636  0.15141793014986854  0.7677675070880383  1.0000
  H   H48       1.0  0.9477252387218513  0.767767304158738  0.8485819350502837  1.0000
  H   H49       1.0  0.9320380859764866  0.6288488820023658  0.7940849302689514  1.0000
  H   H50       1.0  0.0679622117750256  0.7940851922651219  0.3711511318013052  1.0000
  H   H51       1.0  0.9320379965929747  0.3711512415328073  0.2059148918494884  1.0000
  H   H52       1.0  0.06796225590962018  0.20591493670453784  0.6288491545129204  1.0000
  H   H53       1.0  0.9320380067197007  0.8711509842410121  0.2940848473488913  1.0000
  H   H54       1.0  0.0679613021030008  0.29408485567793  0.1288490600499159  1.0000
  H   H55       1.0  0.932038075849853  0.12884855694912287  0.7059155571143234  1.0000
  H   H56       1.0  0.06796228993859901  0.7059146909466563  0.8711512262642104  1.0000
  H   H57       1.0  0.7820272950014626  0.756188533149867  0.7902752297119164  1.0000
  H   H58       1.0  0.21797210589259206  0.7902748984252882  0.2438109638306045  1.0000
  H   H59       1.0  0.7820272086059106  0.243811008983691  0.2097245718948173  1.0000
  H   H60       1.0  0.2179721894679574  0.20972464725578988  0.7561887606502964  1.0000
  H   H61       1.0  0.7820280931940926  0.7438113334668016  0.2902751277191058  1.0000
  H   H62       1.0  0.21797211135843497  0.2902751632412048  0.25618866561673304  1.0000
  H   H63       1.0  0.7820272860563262  0.25618879101183006  0.7097246738877345  1.0000
  H   H64       1.0  0.21797218400211446  0.7097249647849536  0.7438110588642103  1.0000
  H   H65       1.0  0.7494174669699305  0.6615626965419138  0.7528927591187295  1.0000
  H   H66       1.0  0.2505819437375933  0.752892427873405  0.3384373383771475  1.0000
  H   H67       1.0  0.7494173908264301  0.3384374281418586  0.2471076203739742  1.0000
  H   H68       1.0  0.2505819974341392  0.24710711760262427  0.6615629729074683  1.0000
  H   H69       1.0  0.7494182638202601  0.8384371646850894  0.2528926712988877  1.0000
  H   H70       1.0  0.2505819198548949  0.2528926785273243  0.16156287227479282  1.0000
  H   H71       1.0  0.7494183452622138  0.16156237765360254  0.7471077081938944  1.0000
  H   H72       1.0  0.2505820213168377  0.7471074492937786  0.8384374390098657  1.0000
  H   H73       1.0  0.6039319922943917  0.7502346310524997  0.7022136151727237  1.0000
  H   H74       1.0  0.3960673965336951  0.7022138404512077  0.2497660275803142  1.0000
  H   H75       1.0  0.6039319331269227  0.24976549454623145  0.29778616208227504  1.0000
  H   H76       1.0  0.3960674770129913  0.297786286454901  0.7502343035972386  1.0000
  H   H77       1.0  0.6039327904025669  0.749765223504731  0.2022135140716799  1.0000
  H   H78       1.0  0.3960682757957059  0.20221352203083132  0.2502341953739489  1.0000
  H   H79       1.0  0.6039320106618078  0.25023431974892674  0.7977862631833332  1.0000
  H   H80       1.0  0.3960683490370016  0.797786022530147  0.7497655534588574  1.0000
  H   H81       1.0  0.708620368159785  0.8197328547908711  0.6739314688196885  1.0000
  H   H82       1.0  0.2913798808555015  0.6739316645682578  0.18026723999262373  1.0000
  H   H83       1.0  0.7086203187499718  0.1802672701494429  0.3260683227498262  1.0000
  H   H84       1.0  0.2913799824888486  0.3260684629962611  0.8197330768705271  1.0000
  H   H85       1.0  0.7086202916107708  0.6802669948751613  0.1739313573092005  1.0000
  H   H86       1.0  0.29137990602961134  0.1739313565492111  0.3197323820662774  1.0000
  H   H87       1.0  0.7086203952989935  0.3197325477200791  0.8260684342602643  1.0000
  H   H88       1.0  0.29137995731465344  0.8260681886701845  0.680267352452006  1.0000
  H   H89       1.0  0.6620790541972426  0.6597935211440313  0.6015058102628928  1.0000
  H   H90       1.0  0.33792033439439  0.6015054191590467  0.340206496585779  1.0000
  H   H91       1.0  0.662079024981729  0.3402066040890403  0.3984945572876414  1.0000
  H   H92       1.0  0.3379203853947317  0.3984941257676837  0.6597938266410068  1.0000
  H   H93       1.0  0.6620798510224758  0.8402063179752941  0.10150572270803337  1.0000
  H   H94       1.0  0.3379203099629748  0.10150566954818879  0.15979370333373308  1.0000
  H   H95       1.0  0.6620791037995559  0.15979380725777753  0.8984946448425575  1.0000
  H   H96       1.0  0.3379204098261397  0.8984944577236217  0.8402066198931022  1.0000
  H   H97       1.0  0.6534828584628372  0.7516654417213786  0.5548209790620433  1.0000
  H   H98       1.0  0.3465165083214146  0.5548211368112205  0.2483346095774621  1.0000
  H   H99       1.0  0.6534828450299058  0.2483346835657159  0.4451788049682648  1.0000
  H   H100      1.0  0.34651658715384304  0.4451789904065179  0.7516657148247674  1.0000
  H   H101      1.0  0.6534827809482592  0.7483343904650395  0.0548208777466357  1.0000
  H   H102      1.0  0.3465173880272872  0.05482081860503028  0.2516650021803102  1.0000
  H   H103      1.0  0.653482922544491  0.25166515247698124  0.9451789062836369  1.0000
  H   H104      1.0  0.3465174587339845  0.945178726267585  0.7483347398771726  1.0000
  H   H105      1.0  0.8175485834018373  0.7904152597181734  0.4845494432870296  1.0000
  H   H106      1.0  0.182450766699354  0.4845501363262557  0.20958478617452408  1.0000
  H   H107      1.0  0.8175485923134999  0.20958486453705652  0.5154503631767398  1.0000
  H   H108      1.0  0.1824508565533165  0.5154505742684278  0.7904155157942938  1.0000
  H   H109      1.0  0.8175495371564026  0.7095846357507014  0.9845495382996744  1.0000
  H   H110      1.0  0.18245077568784046  0.9845492961401302  0.29041486751410867  1.0000
  H   H111      1.0  0.8175485142019808  0.2904154885045287  0.015450268164158803  1.0000
  H   H112      1.0  0.18245084756474478  0.0154502497643563  0.7095848521097992  1.0000
  H   H113      1.0  0.9602284931118419  0.7541281745682795  0.5077914145887304  1.0000
  H   H114      1.0  0.039770866313332896  0.5077915315149183  0.24587126647919177  1.0000
  H   H115      1.0  0.9602284943002032  0.24587136644451843  0.49220841138426863  1.0000
  H   H116      1.0  0.03977094524254449  0.49220859763200053  0.7541284336354792  1.0000
  H   H117      1.0  0.9602292912753396  0.745871648650386  0.0077918952493333995  1.0000
  H   H118      1.0  0.039770871140156296  0.007791213677400299  0.2541282962917322  1.0000
  H   H119      1.0  0.9602285717798437  0.2541284747075281  0.99220851306859  1.0000
  H   H120      1.0  0.0397718160587743  0.9922083331244448  0.7458714038229601  1.0000
  H   H121      1.0  0.9828122194775659  0.6616506191741464  0.6093639933826225  1.0000
  H   H122      1.0  0.017187169975777298  0.6093647491883942  0.338349377603457  1.0000
  H   H123      1.0  0.9828121878511594  0.33834950404173  0.3906364180232202  1.0000
  H   H124      1.0  0.0171872216635833  0.39063654479076587  0.661650901768155  1.0000
  H   H125      1.0  0.9828121406860859  0.8383492191040602  0.1093639055495501  1.0000
  H   H126      1.0  0.0171880217633174  0.10936383516526857  0.1616501972930564  1.0000
  H   H127      1.0  0.9828122666426397  0.16165090411181637  0.8906365058562925  1.0000
  H   H128      1.0  0.017187245519011195  0.8906362941236876  0.8383494997337094  1.0000
  H   H129      1.0  0.8527328225954776  0.6117005554020948  0.6421954172275902  1.0000
  H   H130      1.0  0.147266579816737  0.6421962032704656  0.38829943387607807  1.0000
  H   H131      1.0  0.8527327800776588  0.38829956863185083  0.3578043940470721  1.0000
  H   H132      1.0  0.14726749212118054  0.3578045075455023  0.6117008632819037  1.0000
  H   H133      1.0  0.852732743095437  0.888299288607868  0.1421953368760001  1.0000
  H   H134      1.0  0.14726654046916823  0.14219528177172686  0.1117007460690189  1.0000
  H   H135      1.0  0.8527328595776993  0.11170083542607757  0.8578044743986695  1.0000
  H   H136      1.0  0.14726753146865693  0.8578048466991176  0.8882989687440954  1.0000
  H   H137      1.0  0.9163535194264156  0.9348717801695016  0.4972684541579966  1.0000
  H   H138      1.0  0.0836466847736617  0.4972685423096122  0.0651283233683841  1.0000
  H   H139      1.0  0.9163526507993679  0.0651283434643162  0.5027313658157623  1.0000
  H   H140      1.0  0.0836468196116158  0.5027315865614028  0.9348719650904584  1.0000
  H   H141      1.0  0.9163535995870973  0.5651281165815193  0.9972685275340111  1.0000
  H   H142      1.0  0.0836467385658111  0.9972683060883512  0.43487190106014134  1.0000
  H   H143      1.0  0.9163534462818247  0.4348714247072607  0.0027318747845868  1.0000
  H   H144      1.0  0.0836467658194735  0.0027312404375904997  0.5651283873986586  1.0000
  H   H145      1.0  0.043214808236932405  0.8742618903239145  0.5063797570387508  1.0000
  H   H146      1.0  0.9567854071405292  0.506379332829681  0.1257382506660463  1.0000
  H   H147      1.0  0.043214811567338494  0.12573823880138948  0.49362052589165023  1.0000
  H   H148      1.0  0.9567846476662609  0.4936207905498478  0.8742615748361544  1.0000
  H   H149      1.0  0.04321473246142919  0.6257379384508255  0.0063796373609506  1.0000
  H   H150      1.0  0.9567854492269632  0.006379032971601401  0.3742614372809498  1.0000
  H   H151      1.0  0.04321488734284169  0.37426160832939803  0.9936206455694007  1.0000
  H   H152      1.0  0.9567854812228802  0.9936205080628469  0.6257383882212649  1.0000
  C   C1        1.0  0.49999926192040783  0.5000003542987128  0.4999995903495105  1.0000
  C   C2        1.0  0.5000000564789958  5.299340699999999e-08  1.0907319140000001e-07  1.0000
  C   C3        1.0  0.4206108375931734  0.5709579385638361  0.5142775206270187  1.0000
  C   C4        1.0  0.5793894281394358  0.5142777029929277  0.42904146240541496  1.0000
  C   C5        1.0  0.4206108341714979  0.42904160584279066  0.4857222315615957  1.0000
  C   C6        1.0  0.5793903259929678  0.4857230051052355  0.5709583114938752  1.0000
  C   C7        1.0  0.42061075751518456  0.9290418890193449  0.014277446377811  1.0000
  C   C8        1.0  0.5793893761555252  0.0142773577416691  0.0709581751215111  1.0000
  C   C9        1.0  0.42061091424947966  0.07095823773234858  0.9857223058108459  1.0000
  C   C10       1.0  0.5793895023338251  0.9857221856663396  0.9290415987776227  1.0000
  C   C11       1.0  0.3227367187123278  0.5618058072920675  0.5630698566611301  1.0000
  C   C12       1.0  0.6772635557250339  0.5630700679948362  0.4381941863472534  1.0000
  C   C13       1.0  0.32273670002782495  0.43819432007523307  0.4369304644895777  1.0000
  C   C14       1.0  0.6772627001458673  0.43693005714269617  0.5618056009346475  1.0000
  C   C15       1.0  0.3227366385045158  0.9381940282090683  0.0630697837827228  1.0000
  C   C16       1.0  0.6772635009023915  0.06306972137375766  0.0618054718705281  1.0000
  C   C17       1.0  0.3227367802355587  0.0618055168131164  0.9369299550231177  1.0000
  C   C18       1.0  0.67726363061157  0.9369298214186935  0.938194315411387  1.0000
  C   C19       1.0  0.2507229607297817  0.6243834461166529  0.580571647760074  1.0000
  C   C20       1.0  0.749277306149409  0.5805712796858628  0.375616582500271  1.0000
  C   C21       1.0  0.2507229375047473  0.3756160993584955  0.4194286635438189  1.0000
  C   C22       1.0  0.7492773458702614  0.41942884499879085  0.6243837969732766  1.0000
  C   C23       1.0  0.2507220057665123  0.8756163924567274  0.08057098316395887  1.0000
  C   C24       1.0  0.749277270735469  0.08057152477543639  0.124383670530456  1.0000
  C   C25       1.0  0.2507238924678248  0.12438431770848264  0.9194281634503696  1.0000
  C   C26       1.0  0.7492773812842015  0.9194285999092173  0.8756167089430916  1.0000
  C   C27       1.0  0.2738434345245082  0.698208493819173  0.5494197008625716  1.0000
  C   C28       1.0  0.7261559401294235  0.5494198890280586  0.30179097823297957  1.0000
  C   C29       1.0  0.2738434220084827  0.3017910515105128  0.45058003125786417  1.0000
  C   C30       1.0  0.7261568779485612  0.45058023580196493  0.6982088157343256  1.0000
  C   C31       1.0  0.27384335625161776  0.801791339946547  0.04941960755389369  1.0000
  C   C32       1.0  0.7261559276126092  0.049419562821455494  0.1982086846255768  1.0000
  C   C33       1.0  0.27384437592423444  0.19820937007320077  0.9505789598770419  1.0000
  C   C34       1.0  0.7261560148223223  0.9505799796634944  0.8017911093416217  1.0000
  C   C35       1.0  0.3696869370376561  0.7075720162984067  0.4998004350556045  1.0000
  C   C36       1.0  0.6303133043981078  0.4998000116495617  0.2924280278866433  1.0000
  C   C37       1.0  0.36968694004409736  0.29242752842853287  0.5001998925147788  1.0000
  C   C38       1.0  0.6303133687742601  0.5001995314381701  0.7075717529755536  1.0000
  C   C39       1.0  0.3696870139739161  0.7924278842696849  0.9997999601315469  1.0000
  C   C40       1.0  0.6303132876926227  0.9998003237550962  0.2075722716692994  1.0000
  C   C41       1.0  0.36968773875070576  0.20757224280224307  0.0001992027492932  1.0000
  C   C42       1.0  0.6303133854798233  0.00019980167775909995  0.792428091537758  1.0000
  C   C43       1.0  0.4421770448477034  0.6445616950820464  0.4823248494738976  1.0000
  C   C44       1.0  0.55782320422027  0.48232442317580393  0.35543831390709346  1.0000
  C   C45       1.0  0.44217705238042976  0.35543784918898064  0.5176754880083932  1.0000
  C   C46       1.0  0.5578232488058035  0.5176751203678902  0.6445620393880205  1.0000
  C   C47       1.0  0.4421771208901433  0.8554382024146888  0.9823243839874677  1.0000
  C   C48       1.0  0.5578231679719748  0.9823247258510502  0.14456197311947247  1.0000
  C   C49       1.0  0.44217697633789743  0.14456192420137626  0.017675371150041003  1.0000
  C   C50       1.0  0.557822409410953  0.0176754000376818  0.8554377978308025  1.0000
  C   C51       1.0  0.19976228396790666  0.7668174809581101  0.5715313338974397  1.0000
  C   C52       1.0  0.8002379584750726  0.5715315262362067  0.23318261187690578  1.0000
  C   C53       1.0  0.1997622655671378  0.23318264718258053  0.4284683880935845  1.0000
  C   C54       1.0  0.80023804224399  0.42846859812794236  0.7668177745647283  1.0000
  C   C55       1.0  0.19976220666826083  0.7331823565828158  0.07153123031257279  1.0000
  C   C56       1.0  0.8002379672373363  0.07153179264278718  0.2668170644231225  1.0000
  C   C57       1.0  0.19976321850974443  0.2668177715578183  0.9284679093336905  1.0000
  C   C58       1.0  0.8002380334816337  0.9284683317213122  0.733182739673687  1.0000
  C   C59       1.0  0.9776608352121697  0.6768818662220537  0.7636009324912649  1.0000
  C   C60       1.0  0.022338574595686105  0.763601171066469  0.3231181606386073  1.0000
  C   C61       1.0  0.9776607559648197  0.3231182570262233  0.2363994782101955  1.0000
  C   C62       1.0  0.022338633195410292  0.23639954053521006  0.6768821194373373  1.0000
  C   C63       1.0  0.977660756636666  0.8231179951720192  0.2636002600320495  1.0000
  C   C64       1.0  0.022338555464273196  0.2636008416680156  0.1768820204084847  1.0000
  C   C65       1.0  0.9776608345402378  0.1768815457311348  0.7363995683245506  1.0000
  C   C66       1.0  0.022339527969883498  0.7363992875885828  0.8231182596674813  1.0000
  C   C67       1.0  0.7792909024554644  0.7209484991817159  0.7370244515034514  1.0000
  C   C68       1.0  0.22070937191622866  0.737024684864231  0.2790509747001764  1.0000
  C   C69       1.0  0.7792908320758939  0.2790510429690515  0.2629753497291247  1.0000
  C   C70       1.0  0.22070944380651975  0.26297544314475374  0.7209493324998704  1.0000
  C   C71       1.0  0.7792908245051534  0.779050777137435  0.2370243547887512  1.0000
  C   C72       1.0  0.22070936645237543  0.2370249444060732  0.2209492294905004  1.0000
  C   C73       1.0  0.7792909100262049  0.22094876501333258  0.7629754464438179  1.0000
  C   C74       1.0  0.22070944927038028  0.7629751836029113  0.7790510777095463  1.0000
  C   C75       1.0  0.6932843569777133  0.7570049729012992  0.6790164980753772  1.0000
  C   C76       1.0  0.3067159029626012  0.6790167064267435  0.24299509646749584  1.0000
  C   C77       1.0  0.6932843051009384  0.2429951521354639  0.3209832913971696  1.0000
  C   C78       1.0  0.3067159852128611  0.3209834210413191  0.7570052224926229  1.0000
  C   C79       1.0  0.6932842795388721  0.742994877622223  0.1790163959602182  1.0000
  C   C80       1.0  0.3067159086814897  0.17901638901967934  0.257004528450004  1.0000
  C   C81       1.0  0.6932843825397794  0.2570046650694664  0.8209833935122859  1.0000
  C   C82       1.0  0.3067159794938873  0.82098315610326  0.7429952081652473  1.0000
  C   C83       1.0  0.7019462059028712  0.718253396073571  0.5989161299348851  1.0000
  C   C84       1.0  0.2980531728252345  0.5989163086973193  0.2817472261795047  1.0000
  C   C85       1.0  0.7019461783198296  0.2817467289087644  0.40108424306686885  1.0000
  C   C86       1.0  0.2980532419202504  0.4010838188252705  0.7182536739409356  1.0000
  C   C87       1.0  0.7019461279143259  0.7817464424074385  0.09891603362390099  1.0000
  C   C88       1.0  0.2980540421681894  0.09891598549054947  0.21825296790100873  1.0000
  C   C89       1.0  0.7019462563082897  0.21825310022977357  0.9010837570329855  1.0000
  C   C90       1.0  0.29805412386322416  0.9010841420319479  0.7817467675299028  1.0000
  C   C91       1.0  0.8767184189697871  0.7738318223859006  0.5328264143321775  1.0000
  C   C92       1.0  0.1232809409650244  0.532826544639846  0.22616880163817396  1.0000
  C   C93       1.0  0.8767184126729717  0.22616830149719644  0.46717340022215126  1.0000
  C   C94       1.0  0.123281026360317  0.4671735839819392  0.7738320745848597  1.0000
  C   C95       1.0  0.8767192174126917  0.7261685874498197  0.0328263096968158  1.0000
  C   C96       1.0  0.1232818275457674  0.0328262297510946  0.2738313586460777  1.0000
  C   C97       1.0  0.876718489873113  0.2738321187783512  0.9671735048576194  1.0000
  C   C98       1.0  0.12328101542244947  0.9671733165255313  0.726168352887335  1.0000
  C   C99       1.0  0.8931770216962747  0.66928167094148  0.6306912023097694  1.0000
  C   C100      1.0  0.1068223696756334  0.6306913897467936  0.3307183387570163  1.0000
  C   C101      1.0  0.8931769835634285  0.33071845283814116  0.3693091968398433  1.0000
  C   C102      1.0  0.1068232996758169  0.3693087389784607  0.669281952870797  1.0000
  C   C103      1.0  0.8931769430130456  0.8307181710923571  0.13069111333372524  1.0000
  C   C104      1.0  0.1068232238299629  0.13069105921083224  0.16928125159005697  1.0000
  C   C105      1.0  0.8931770622466573  0.16928137034218332  0.8693092858158451  1.0000
  C   C106      1.0  0.10682332116444829  0.8693090695143725  0.8307184576929956  1.0000
  C   C107      1.0  0.972821119591863  0.9034030198252977  0.5387803240850103  1.0000
  C   C108      1.0  0.027179095854464194  0.5387804313136328  0.09659648986291099  1.0000
  C   C109      1.0  0.9728211132864502  0.09659652110829599  0.4612195036098398  1.0000
  C   C110      1.0  0.027179221521244294  0.4612196979124831  0.9034032085300366  1.0000
  C   C111      1.0  0.9728210442297395  0.5965968079520036  0.03878020004248129  1.0000
  C   C112      1.0  0.027179146979271693  0.038780135816971  0.4034030758277822  1.0000
  C   C113      1.0  0.9728211886485736  0.40340331532667034  0.9612196276524115  1.0000
  C   C114      1.0  0.0271791703964368  0.9612194110640644  0.5965966225651229  1.0000
  N   N1        1.0  0.8234364215736248  0.7089277196858317  0.572964522812498  1.0000
  N   N2        1.0  0.17656207918316363  0.5729652661090512  0.2910717212494731  1.0000
  N   N3        1.0  0.8234364019071805  0.29107182218729116  0.4270352844562949  1.0000
  N   N4        1.0  0.17656302066098561  0.4270354445226658  0.7089285799142145  1.0000
  N   N5        1.0  0.8234363434527977  0.7910721141470985  0.0729644278983059  1.0000
  N   N6        1.0  0.17656294563399652  0.0729649415067044  0.2089278699872636  1.0000
  N   N7        1.0  0.8234364800280075  0.20892801007109799  0.9270353793705368  1.0000
  N   N8        1.0  0.17656302985311356  0.9270351867798892  0.7910718488316205  1.0000
  N   N9        1.0  0.9052503791471906  0.8434331271582991  0.5809281039450623  1.0000
  N   N10       1.0  0.09474897661861799  0.5809282428845817  0.1565669499435671  1.0000
  N   N11       1.0  0.9052503589188277  0.1565669965453509  0.4190717145105721  1.0000
  N   N12       1.0  0.0947499599264248  0.4190718859166082  0.8434333400334068  1.0000
  N   N13       1.0  0.9052503029343697  0.6565667073519277  0.08092798888476689  1.0000
  N   N14       1.0  0.094749884786566  0.080928520757702  0.34343321364405444  1.0000
  N   N15       1.0  0.9052504351316486  0.343433416351715  0.9190718295708676  1.0000
  N   N16       1.0  0.09474992740152997  0.9190716080434811  0.6565670763329762  1.0000
  N   N17       1.0  0.9001891825380852  0.7141746585051649  0.7054834989124075  1.0000
  N   N18       1.0  0.099810212621513  0.705484294033809  0.2858247990635832  1.0000
  N   N19       1.0  0.9001899974880844  0.28582488288527935  0.2945169011960189  1.0000
  N   N20       1.0  0.09981028196337148  0.2945164170805795  0.714174909260592  1.0000
  N   N21       1.0  0.9001899801347404  0.7858246123331084  0.20548340321235506  1.0000
  N   N22       1.0  0.09981020505664873  0.20548338787166634  0.21417480152700105  1.0000
  N   N23       1.0  0.9001891998914358  0.21417492905732866  0.7945169968960784  1.0000
  N   N24       1.0  0.0998102895282358  0.7945167408976487  0.7858249067971315  1.0000
  O   O1        1.0  0.11525398039990618  0.7505228871364196  0.6184793842533125  1.0000
  O   O2        1.0  0.8847462716330126  0.6184790226104795  0.24947662934164333  1.0000
  O   O3        1.0  0.11525394720701598  0.2494766591907335  0.3815209085272855  1.0000
  O   O4        1.0  0.8847463510141721  0.38152110122212685  0.7505231863103745  1.0000
  O   O5        1.0  0.11525390286912089  0.7494769579623792  0.1184792831090391  1.0000
  O   O6        1.0  0.8847471509846088  0.11847870423333257  0.250522483200541  1.0000
  O   O7        1.0  0.1152540247378013  0.25052317070984736  0.8815210096716085  1.0000
  O   O8        1.0  0.8847472229486826  0.8815214195992663  0.7494773324516046  1.0000
  O   O9        1.0  0.2262329689618952  0.8332927518330917  0.5457288062304286  1.0000
  O   O10       1.0  0.7737663832393551  0.5457289756715367  0.16670678180291526  1.0000
  O   O11       1.0  0.2262329595068309  0.16670737614111175  0.4542709193800576  1.0000
  O   O12       1.0  0.7737673629028805  0.4542711488590497  0.8332930186743753  1.0000
  O   O13       1.0  0.2262328926052319  0.666707081679675  0.04572869268895371  1.0000
  O   O14       1.0  0.7737664126192882  0.045728669681992094  0.33329288701280996  1.0000
  O   O15       1.0  0.22623216022062556  0.3332930462946137  0.9542721976111181  1.0000
  O   O16       1.0  0.7737673335230468  0.9542708725035567  0.6667074958092698  1.0000
