data_image0
_chemical_formula_structural       Zn4Mo4H36C48N20O16
_chemical_formula_sum              "Zn4 Mo4 H36 C48 N20 O16"
_cell_length_a       6.359886194028112
_cell_length_b       9.388165785049871
_cell_length_c       22.97429396502329
_cell_angle_alpha    90.00015798351652
_cell_angle_beta     90.00004000995798
_cell_angle_gamma    90.00033844831138

_space_group_name_H-M_alt    "P 1"
_space_group_IT_number       1

loop_
  _space_group_symop_operation_xyz
  'x, y, z'

loop_
  _atom_site_type_symbol
  _atom_site_label
  _atom_site_symmetry_multiplicity
  _atom_site_fract_x
  _atom_site_fract_y
  _atom_site_fract_z
  _atom_site_occupancy
  Zn  Zn1       1.0  0.5014045798723147  0.31069958205124937  0.9381796529597819  1.0000
  Zn  Zn2       1.0  0.0014024797896468  0.6892999267685979  0.06182078589124978  1.0000
  Zn  Zn3       1.0  0.5014065710847504  0.1893003766505572  0.4381794533518286  1.0000
  Zn  Zn4       1.0  0.0014004885859649  0.8107012625094042  0.5618205502313172  1.0000
  Mo  Mo1       1.0  0.0013917996717723  0.5187317006822524  0.9194783847024721  1.0000
  Mo  Mo2       1.0  0.5013853852412354  0.4812678080763674  0.08052161887655267  1.0000
  Mo  Mo3       1.0  0.0013900484169439998  0.9812665805423039  0.4194785134543862  1.0000
  Mo  Mo4       1.0  0.5013871365007105  0.01873399338711579  0.5805214901252425  1.0000
  H   H1        1.0  0.499853119274988  0.11764621066359379  0.716744230165588  1.0000
  H   H2        1.0  0.99985542675158  0.8823499660703787  0.2832563060553141  1.0000
  H   H3        1.0  0.4998505051484088  0.38235224487632996  0.21674511821165504  1.0000
  H   H4        1.0  0.9998517514708425  0.6176471273559726  0.7832549827413399  1.0000
  H   H5        1.0  0.4907531404411428  0.3158743372201158  0.6753432860947794  1.0000
  H   H6        1.0  0.9907491049738227  0.6841260637762331  0.3246546367356728  1.0000
  H   H7        1.0  0.4907472247576409  0.1841301930602128  0.17534438647611233  1.0000
  H   H8        1.0  0.9907503036078966  0.8158734034449748  0.8246552774320361  1.0000
  H   H9        1.0  0.5014701925060194  0.10839506106129446  0.043737253783980586  1.0000
  H   H10       1.0  0.0014689450008802  0.8916065783657602  0.9562636203502418  1.0000
  H   H11       1.0  0.5014704794233111  0.3916054269004404  0.5437379796515669  1.0000
  H   H12       1.0  0.0014686580732146  0.6083940821820873  0.4562620239432815  1.0000
  H   H13       1.0  0.49314702850395514  0.7950538061201796  0.8722945483527125  1.0000
  H   H14       1.0  0.993149327853928  0.20494553930519993  0.12770685709812568  1.0000
  H   H15       1.0  0.4931507285573247  0.7049461231305685  0.3722952368790755  1.0000
  H   H16       1.0  0.9931456278035783  0.2950542874611911  0.6277048627650854  1.0000
  H   H17       1.0  0.5079542494132099  0.523597091385696  0.8433215807944517  1.0000
  H   H18       1.0  0.0079631077171882  0.4763981829652266  0.15667711825839348  1.0000
  H   H19       1.0  0.5079603174783145  0.9763984405461696  0.343320833535543  1.0000
  H   H20       1.0  0.0079617567321009  0.023600029328037  0.6566783007886412  1.0000
  H   H21       1.0  0.5060856769050872  0.758935736779833  0.788289336244112  1.0000
  H   H22       1.0  0.0060863301927583  0.2410605952542609  0.21171023298167302  1.0000
  H   H23       1.0  0.5060959814336456  0.7410604808250838  0.2882878890437225  1.0000
  H   H24       1.0  0.0060886045138417  0.2589379815728066  0.7117108096463125  1.0000
  H   H25       1.0  0.49798947204990185  0.7556471762510736  0.6811635170828294  1.0000
  H   H26       1.0  0.9979894475035778  0.24435218853468393  0.31883658350648136  1.0000
  H   H27       1.0  0.4979903711630342  0.7443557409500555  0.18116120304558328  1.0000
  H   H28       1.0  0.9979916931125672  0.25564681934848466  0.8188371564694844  1.0000
  H   H29       1.0  0.4997155286600119  0.8442417244033676  0.05951704240415979  1.0000
  H   H30       1.0  0.999716282883881  0.1557608428048525  0.9404843643314816  1.0000
  H   H31       1.0  0.4997169028992232  0.6557593121868024  0.5595179382967075  1.0000
  H   H32       1.0  0.999719625703932  0.3442421898556347  0.4404821626315324  1.0000
  H   H33       1.0  0.4957787893570752  0.683806643049067  0.971262924580827  1.0000
  H   H34       1.0  0.9957802397974403  0.3161948432445384  0.02873891665431929  1.0000
  H   H35       1.0  0.4957803151591166  0.8161939657704522  0.47126330295220925  1.0000
  H   H36       1.0  0.995780286342672  0.1838064553466765  0.5287359266679699  1.0000
  C   C1        1.0  0.4993821297375405  0.2605678849015192  0.7917720785936662  1.0000
  C   C2        1.0  0.9993845755439851  0.739430420285977  0.2082271517291686  1.0000
  C   C3        1.0  0.49937826884213626  0.2394300107863572  0.291773241171775  1.0000
  C   C4        1.0  0.9993821470244058  0.7605693595622964  0.7082268596892262  1.0000
  C   C5        1.0  0.49923961985435733  0.40030328542534477  0.763688595546874  1.0000
  C   C6        1.0  0.9992393444240832  0.5996939540144124  0.23631019947816861  1.0000
  C   C7        1.0  0.4992329676419161  0.09969761533961469  0.263686989358689  1.0000
  C   C8        1.0  0.9992397072390277  0.9003049499415352  0.7363118056687411  1.0000
  C   C9        1.0  0.49767359590244803  0.008537142618628497  0.9064984220537224  1.0000
  C   C10       1.0  0.9976779539394726  0.9914632860846804  0.09350211374400168  1.0000
  C   C11       1.0  0.49767665065151334  0.4914625869923839  0.4064989975412983  1.0000
  C   C12       1.0  0.9976748991904145  0.5085378417109182  0.5935015382564259  1.0000
  C   C13       1.0  0.49448007312468434  0.4114958836267561  0.7024540754251019  1.0000
  C   C14       1.0  0.9944751358384352  0.5885034671059444  0.2975442834018124  1.0000
  C   C15       1.0  0.49447017857117  0.08850564931799451  0.2024559388019256  1.0000
  C   C16       1.0  0.9944771686373528  0.9114979620895126  0.7975445963720558  1.0000
  C   C17       1.0  0.4978405274132527  0.08441439730093948  0.8511344129875551  1.0000
  C   C18       1.0  0.997849078787681  0.915584966907673  0.14886612284259118  1.0000
  C   C19       1.0  0.4978429202514647  0.4155849587051533  0.351135338408717  1.0000
  C   C20       1.0  0.9978451135983946  0.584415470669633  0.6488647621527831  1.0000
  C   C21       1.0  0.5002166548360307  0.033822328525623384  0.007417053150639698  1.0000
  C   C22       1.0  0.00021772086835629997  0.9661793058890566  0.9925829502007485  1.0000
  C   C23       1.0  0.5002191646419121  0.46617897406527936  0.5074178628869959  1.0000
  C   C24       1.0  0.000215211068209  0.5338237255231348  0.49258301100316954  1.0000
  C   C25       1.0  0.4958282269440559  0.86019020272802  0.9113595506931911  1.0000
  C   C26       1.0  0.9958282882165862  0.13980808824523186  0.08864142001150546  1.0000
  C   C27       1.0  0.4958297864302352  0.6398100013290744  0.4113597306948832  1.0000
  C   C28       1.0  0.9958267287323324  0.36018935480761627  0.5886390636649705  1.0000
  C   C29       1.0  0.5036097890900776  0.5273015865945395  0.795949506442625  1.0000
  C   C30       1.0  0.003612443905304001  0.47269580070802414  0.20404919176210962  1.0000
  C   C31       1.0  0.5036095354296464  0.9726957380522379  0.2959513666323943  1.0000
  C   C32       1.0  0.0036111252225624006  0.027303779596124407  0.7040495079188317  1.0000
  C   C33       1.0  0.5028618736275661  0.6563373394181083  0.7661301641938889  1.0000
  C   C34       1.0  0.0028603325279164  0.3436600448888639  0.23386983967159833  1.0000
  C   C35       1.0  0.5028652114056484  0.8436629761548461  0.26612709130587575  1.0000
  C   C36       1.0  0.002863284186418  0.1563386688405259  0.7338707362171772  1.0000
  C   C37       1.0  0.498358568420727  0.6553848623730759  0.7053779154180685  1.0000
  C   C38       1.0  0.998356213355805  0.3446145038814378  0.29462131470494046  1.0000
  C   C39       1.0  0.4983571974601873  0.8446182200079874  0.2053796315623301  1.0000
  C   C40       1.0  0.9983591566922883  0.15538540693873407  0.7946213396395903  1.0000
  C   C41       1.0  0.4992486714670577  0.887162631868605  0.015515279037998694  1.0000
  C   C42       1.0  0.9992491611005717  0.11283993347315399  0.9844865628755027  1.0000
  C   C43       1.0  0.49924967129108205  0.6128391705598162  0.5155152561218442  1.0000
  C   C44       1.0  0.9992497336145332  0.38716019926388145  0.48448397417548233  1.0000
  C   C45       1.0  0.4970088682758629  0.7991497140206647  0.9665150743405275  1.0000
  C   C46       1.0  0.9970093243746734  0.2008507120189122  0.033486331865141494  1.0000
  C   C47       1.0  0.4970062431820849  0.7008508676182713  0.4665166287983593  1.0000
  C   C48       1.0  0.9970072324122015  0.29915168875346143  0.5334847774080416  1.0000
  N   N1        1.0  0.49894600387263927  0.13522061583618944  0.7623234425933273  1.0000
  N   N2        1.0  0.9989480442800058  0.8647766224366931  0.23767622291276064  1.0000
  N   N3        1.0  0.4989432364418818  0.3647792093679952  0.26232344033694927  1.0000
  N   N4        1.0  0.9989460946632533  0.6352222895771644  0.7376757899019848  1.0000
  N   N5        1.0  0.49892293907362983  0.2297473606673677  0.8490478148057928  1.0000
  N   N6        1.0  0.9989286555030927  0.7702530730329967  0.15095185069794326  1.0000
  N   N7        1.0  0.498922491754989  0.2702519855562143  0.34904857677820883  1.0000
  N   N8        1.0  0.9989259581119186  0.7297484481393325  0.6509515239943082  1.0000
  N   N9        1.0  0.4977379917183669  0.0231509217811379  0.7987340740031638  1.0000
  N   N10       1.0  0.9977456359499114  0.9768473768462015  0.20126689707534942  1.0000
  N   N11       1.0  0.4977393466268225  0.4768480795740542  0.2987346330547992  1.0000
  N   N12       1.0  0.9977427086944815  0.5231523493887877  0.7012654674865785  1.0000
  N   N13       1.0  0.49972594742196463  0.09303411131094921  0.9541421536908883  1.0000
  N   N14       1.0  0.9997278770846022  0.9069663255982334  0.045858817776611695  1.0000
  N   N15       1.0  0.4997282650738981  0.406967013760088  0.4541426341498037  1.0000
  N   N16       1.0  0.9997255594305017  0.593033423143204  0.545856596241343  1.0000
  N   N17       1.0  0.49440353233281803  0.5354433201692005  0.6735984161432638  1.0000
  N   N18       1.0  0.9943975858237691  0.46455603025826503  0.3264008132067743  1.0000
  N   N19       1.0  0.49439377354297426  0.9645605967014674  0.17359765556469137  1.0000
  N   N20       1.0  0.994401055211476  0.03544301439659139  0.8264015737871374  1.0000
  O   O1        1.0  0.23292065101514228  0.4136253964002349  0.9271412605214518  1.0000
  O   O2        1.0  0.7329088449504936  0.5863803642963673  0.07285748248217767  1.0000
  O   O3        1.0  0.23291545494629415  0.08637554409269647  0.42714181569618137  1.0000
  O   O4        1.0  0.7329108962791722  0.9136227604094173  0.5728591036483903  1.0000
  O   O5        1.0  0.7709491399171926  0.412191686662858  0.9269293362205955  1.0000
  O   O6        1.0  0.27093674837493603  0.5877961182492014  0.07307202581623068  1.0000
  O   O7        1.0  0.7709455286774157  0.08780181793793669  0.4269294577346299  1.0000
  O   O8        1.0  0.2709372149781402  0.9122030296990645  0.5730714690423822  1.0000
  O   O9        1.0  0.0007493639148350001  0.6541736724592653  0.9729669380484577  1.0000
  O   O10       1.0  0.500749496228778  0.3458237034041076  0.02703393594268989  1.0000
  O   O11       1.0  0.0007527205640159  0.8458249677993095  0.47296691447648687  1.0000
  O   O12       1.0  0.5007540013730037  0.154176668760023  0.5270330889796425  1.0000
  O   O13       1.0  0.0012269692269413  0.599648231701934  0.8504982908017237  1.0000
  O   O14       1.0  0.5012310275711728  0.4003480809074204  0.14950214801341835  1.0000
  O   O15       1.0  0.0012245120953551  0.9003485173692096  0.35049789328097336  1.0000
  O   O16       1.0  0.5012256229484536  0.09965312107397038  0.6495012397291331  1.0000
