data_image0
_chemical_formula_structural       Cu3H12C12N8
_chemical_formula_sum              "Cu3 H12 C12 N8"
_cell_length_a       5.392394972242397
_cell_length_b       6.653082376407044
_cell_length_c       10.201570631996885
_cell_angle_alpha    106.9575839171194
_cell_angle_beta     89.01852097294886
_cell_angle_gamma    90.26704508953549

_space_group_name_H-M_alt    "P 1"
_space_group_IT_number       1

loop_
  _space_group_symop_operation_xyz
  'x, y, z'

loop_
  _atom_site_type_symbol
  _atom_site_label
  _atom_site_symmetry_multiplicity
  _atom_site_fract_x
  _atom_site_fract_y
  _atom_site_fract_z
  _atom_site_occupancy
  Cu  Cu1       1.0  8.320055684004734e-07  0.999995178457574  0.9999995555713493  1.0000
  Cu  Cu2       1.0  0.500008465933334  8.597976659499465e-06  0.5000054680329526  1.0000
  Cu  Cu3       1.0  0.4999921822111802  0.4999968111401429  0.49999523422102493  1.0000
  H   H1        1.0  0.28502861326753504  0.48814458134388156  0.7840186818610632  1.0000
  H   H2        1.0  0.7149445965329236  0.511866439805999  0.21598093634386828  1.0000
  H   H3        1.0  0.5258528969097043  0.7153405954857631  0.018213161771107853  1.0000
  H   H4        1.0  0.47412424234141076  0.28467190681378446  0.9817788838714776  1.0000
  H   H5        1.0  0.9301490808414032  0.7658798550709348  0.6726006531358592  1.0000
  H   H6        1.0  0.0698273569554573  0.2340982256130175  0.3274016307698417  1.0000
  H   H7        1.0  0.23813455149040416  0.7141015098943626  0.18254649777725257  1.0000
  H   H8        1.0  0.7618698591120749  0.2858936912398348  0.817457957994108  1.0000
  H   H9        1.0  0.0179450663153062  0.7501654270521101  0.4344135991058522  1.0000
  H   H10       1.0  0.9820817731753666  0.24983904294727205  0.5655886300288911  1.0000
  H   H11       1.0  0.5633970694183149  0.04304680549051909  0.2117634781036841  1.0000
  H   H12       1.0  0.4366243460525539  0.9569623748586622  0.7882357181563292  1.0000
  C   C1        1.0  0.45584581679293734  0.5776966162918171  0.7951400575451119  1.0000
  C   C2        1.0  0.5441616442136522  0.42229090714334916  0.20488550745028528  1.0000
  C   C3        1.0  0.5733801009266131  0.6936693607950842  0.9116450342323148  1.0000
  C   C4        1.0  0.4266057228858103  0.3063133560047646  0.08835515928021918  1.0000
  C   C5        1.0  0.7871528211974167  0.7215184640798282  0.7347217913037624  1.0000
  C   C6        1.0  0.2128283204965271  0.27850179599627006  0.2652628735818539  1.0000
  C   C7        1.0  0.06529364170181402  0.7895786104719777  0.22548895393097004  1.0000
  C   C8        1.0  0.9347071146775863  0.2104134426937634  0.7745119787628312  1.0000
  C   C9        1.0  0.9552751915312002  0.8076308114854384  0.35164528932271816  1.0000
  C   C10       1.0  0.044732977641246015  0.19236750289292104  0.648358761459157  1.0000
  C   C11       1.0  0.7170559283487209  0.9596194036206923  0.23837281373285882  1.0000
  C   C12       1.0  0.2829616189372999  0.040393000878737005  0.7616338534393633  1.0000
  N   N1        1.0  0.7818534331993162  0.7852820549643339  0.8729657611121482  1.0000
  N   N2        1.0  0.2180905416261183  0.2146896057706655  0.12699910330540828  1.0000
  N   N3        1.0  0.592855449196648  0.5952985777737395  0.6826541777513595  1.0000
  N   N4        1.0  0.40718993663700337  0.4047199652491287  0.31735457113127546  1.0000
  N   N5        1.0  0.7345127929293513  0.9165100318287853  0.35938201700638217  1.0000
  N   N6        1.0  0.2655064315328702  0.08349612040366593  0.6406283814855981  1.0000
  N   N7        1.0  0.9132656125803962  0.8866874572740288  0.15504004563103987  1.0000
  N   N8        1.0  0.0867482244847224  0.11331079128692069  0.844960062258089  1.0000
