data_image0
_chemical_formula_structural       Gd2H40C52O22F18
_chemical_formula_sum              "Gd2 H40 C52 O22 F18"
_cell_length_a       9.51277706900225
_cell_length_b       10.5281028814533
_cell_length_c       15.192080840814066
_cell_angle_alpha    89.0206966159751
_cell_angle_beta     87.42751342451129
_cell_angle_gamma    77.55791085925375

_space_group_name_H-M_alt    "P 1"
_space_group_IT_number       1

loop_
  _space_group_symop_operation_xyz
  'x, y, z'

loop_
  _atom_site_type_symbol
  _atom_site_label
  _atom_site_symmetry_multiplicity
  _atom_site_fract_x
  _atom_site_fract_y
  _atom_site_fract_z
  _atom_site_occupancy
  Gd  Gd1       1.0  0.2583319221354259  0.4623267776307571  0.9747497586405839  1.0000
  Gd  Gd2       1.0  0.7416701026614166  0.5376761412195421  0.025247763815975995  1.0000
  H   H1        1.0  0.10077126429082739  0.9493135415563289  0.024393951152845296  1.0000
  H   H2        1.0  0.8992169543969981  0.05068938543948319  0.9756111067360603  1.0000
  H   H3        1.0  0.0310996183341601  0.146698526863247  0.12019730895210046  1.0000
  H   H4        1.0  0.9688900952034843  0.8533024628596736  0.8798090575831521  1.0000
  H   H5        1.0  0.15203458959446434  0.9036224772650103  0.3485465396736983  1.0000
  H   H6        1.0  0.8479687281275473  0.0963746330672208  0.6514569515910009  1.0000
  H   H7        1.0  0.2251921527377122  0.711702501958946  0.25251142413983263  1.0000
  H   H8        1.0  0.7748032548011281  0.2882926379024938  0.7474902853751357  1.0000
  H   H9        1.0  0.2905070858439985  0.38007936492916633  0.20557995284323735  1.0000
  H   H10       1.0  0.7094951480498679  0.6199138290798275  0.7944190020359654  1.0000
  H   H11       1.0  0.39463715607708133  0.40508287115142155  0.3518228610177799  1.0000
  H   H12       1.0  0.6053601455266246  0.5949132392137886  0.6481774795334587  1.0000
  H   H13       1.0  0.9841869211713575  0.6300723304017027  0.44532552055554203  1.0000
  H   H14       1.0  0.01581204544680047  0.369930557885148  0.5546668012674373  1.0000
  H   H15       1.0  0.8800540745591762  0.6011712483671304  0.3001360882947849  1.0000
  H   H16       1.0  0.11995143620367799  0.3988306790856414  0.6998561058424143  1.0000
  H   H17       1.0  0.26028368537961905  0.7456860623501246  0.77879694434511  1.0000
  H   H18       1.0  0.7397118152259168  0.25432173475768854  0.22120592313908813  1.0000
  H   H19       1.0  0.23660835444414374  0.9239432800203748  0.6681227811296535  1.0000
  H   H20       1.0  0.7633959468669502  0.07605868547520343  0.33187799596685597  1.0000
  H   H21       1.0  0.5971505604639233  0.0472106038595754  0.7759735004975354  1.0000
  H   H22       1.0  0.40285554217013714  0.9527884331876425  0.22402464129484653  1.0000
  H   H23       1.0  0.6210668631784061  0.8647246934777829  0.8868326918758596  1.0000
  H   H24       1.0  0.37893142983635636  0.13528019255276294  0.11317081034929537  1.0000
  H   H25       1.0  0.4421752800375742  0.4808302442883559  0.756972927634301  1.0000
  H   H26       1.0  0.5578211913760286  0.5191648944728869  0.24302810092429886  1.0000
  H   H27       1.0  0.5133141688370414  0.31265739871442844  0.730583176478184  1.0000
  H   H28       1.0  0.4866846276164765  0.6873367743778901  0.26941847271939406  1.0000
  H   H29       1.0  0.32354032630918544  0.3728152201406161  0.7464535829467349  1.0000
  H   H30       1.0  0.6764586916975688  0.627177983326078  0.2535487318020769  1.0000
  H   H31       1.0  0.179957991318318  0.07393537773110381  0.9086205306835281  1.0000
  H   H32       1.0  0.8200370537245263  0.9260656034122619  0.09138177256961197  1.0000
  H   H33       1.0  0.20882637285318145  0.19786010861292172  0.8320984464870163  1.0000
  H   H34       1.0  0.7911714203826608  0.8021340501868509  0.16790059116571138  1.0000
  H   H35       1.0  0.34675072661170253  0.12674325145390952  0.904995654292051  1.0000
  H   H36       1.0  0.6532439920045973  0.8732548034414904  0.09500537556970558  1.0000
  H   H37       1.0  0.530501736605288  0.35567608875447837  0.8801947023415264  1.0000
  H   H38       1.0  0.46949565774030316  0.6443239205628616  0.11980690455010995  1.0000
  H   H39       1.0  0.07112014080421859  0.2694970161070032  0.9719369013661703  1.0000
  H   H40       1.0  0.9288749406328805  0.730503955800714  0.028063426386239595  1.0000
  C   C1        1.0  0.018582204420631958  0.47818134536939993  0.155832711162212  1.0000
  C   C2        1.0  0.9814322922067543  0.5218137900811828  0.8441600336392765  1.0000
  C   C3        1.0  0.07955287828441727  0.4902189207040807  0.24380672002160955  1.0000
  C   C4        1.0  0.9204528736602599  0.5097771962522799  0.7561914653798635  1.0000
  C   C5        1.0  0.224404210904261  0.43472536893377633  0.25833751393887633  1.0000
  C   C6        1.0  0.7756015410404232  0.5652707480225774  0.7416606714626041  1.0000
  C   C7        1.0  0.2828362059386649  0.4489168351599916  0.3391591627920078  1.0000
  C   C8        1.0  0.7171628609185561  0.5510851142867423  0.6608404095846578  1.0000
  C   C9        1.0  0.19431241854824327  0.5210750375545459  0.40432942743871775  1.0000
  C   C10       1.0  0.8056873297343472  0.4789288346504749  0.5956648403778784  1.0000
  C   C11       1.0  0.049786721223924225  0.5760170530199389  0.39219728322019165  1.0000
  C   C12       1.0  0.950214453754221  0.42398973509719445  0.6077956015306895  1.0000
  C   C13       1.0  0.9927623222313573  0.5596052401580636  0.31147004610331647  1.0000
  C   C14       1.0  0.0072404642765349315  0.44039474518697125  0.6885242050049881  1.0000
  C   C15       1.0  0.31428658994249054  0.6343572345612928  0.4983980199619963  1.0000
  C   C16       1.0  0.6857210439356365  0.3656398559773849  0.5015994549759951  1.0000
  C   C17       1.0  0.1990183254691757  0.7003365506475491  0.07639375698348518  1.0000
  C   C18       1.0  0.8009759257778196  0.2996634496561939  0.923607258776286  1.0000
  C   C19       1.0  0.16546546353057318  0.8183436432313588  0.13258390374293327  1.0000
  C   C20       1.0  0.8345229324942665  0.18165440287249626  0.86741791935583  1.0000
  C   C21       1.0  0.11077819202916567  0.9408199705964437  0.09548184125563347  1.0000
  C   C22       1.0  0.8892138950740647  0.05918004114335669  0.9045225119176192  1.0000
  C   C23       1.0  0.0719629058173652  0.050505271391045894  0.14820911414399515  1.0000
  C   C24       1.0  0.9280283268329232  0.9494937749018819  0.8517972440371079  1.0000
  C   C25       1.0  0.08559114627537671  0.03564626232751781  0.23910550141130923  1.0000
  C   C26       1.0  0.914401956176938  0.9643537606262811  0.7609008048065459  1.0000
  C   C27       1.0  0.14103991444230254  0.915083107400079  0.27782546605534003  1.0000
  C   C28       1.0  0.8589555737070141  0.08491593449204521  0.7221781683002746  1.0000
  C   C29       1.0  0.18264598971376228  0.8068699756820411  0.22354893474891205  1.0000
  C   C30       1.0  0.8173471976584706  0.1931300257219065  0.7764527619672347  1.0000
  C   C31       1.0  0.07604509481993202  0.15987293380657522  0.37068135722634565  1.0000
  C   C32       1.0  0.9239547051760584  0.8401300118725248  0.6293227951449152  1.0000
  C   C33       1.0  0.4557054033945462  0.6847764446458343  0.9040031889933926  1.0000
  C   C34       1.0  0.544290871053448  0.31522841587815986  0.09599574864230928  1.0000
  C   C35       1.0  0.44179008579605755  0.7945131005227994  0.8393241159285761  1.0000
  C   C36       1.0  0.5582071797381971  0.20549177737230198  0.1606780917522173  1.0000
  C   C37       1.0  0.3338838733188823  0.8119989817161725  0.7777950328215649  1.0000
  C   C38       1.0  0.666115556359138  0.1880058847428714  0.22220383744575398  1.0000
  C   C39       1.0  0.32046937496795636  0.9121072158615182  0.7156804495402793  1.0000
  C   C40       1.0  0.6795362602967928  0.08789376659404272  0.28431767815011705  1.0000
  C   C41       1.0  0.4171279593316512  0.994744055706619  0.7162255588906844  1.0000
  C   C42       1.0  0.5828770794276464  0.005254982440796101  0.28377326385807317  1.0000
  C   C43       1.0  0.5247892420975546  0.9799497257284175  0.7773763592215486  1.0000
  C   C44       1.0  0.47521038487087003  0.0200541772621037  0.22262449359749326  1.0000
  C   C45       1.0  0.5371911319222635  0.8792492239025906  0.8387648207712527  1.0000
  C   C46       1.0  0.4628079912826023  0.12075663373192921  0.16123799344654796  1.0000
  C   C47       1.0  0.3261780894774731  0.11706085296810194  0.5887328152543672  1.0000
  C   C48       1.0  0.6738222264134918  0.8829401349884592  0.4112687172178936  1.0000
  C   C49       1.0  0.4292843714297375  0.38050577767401716  0.7683528174356339  1.0000
  C   C50       1.0  0.5707141792077124  0.61948937120102  0.23164948321119985  1.0000
  C   C51       1.0  0.23027255734253774  0.15799955552626702  0.8988396720198465  1.0000
  C   C52       1.0  0.7697246397126563  0.8420014172595955  0.10115995232006719  1.0000
  O   O1        1.0  0.10481136383302915  0.43458337317475343  0.09156727732734277  1.0000
  O   O2        1.0  0.895202801733575  0.5654040013141569  0.9084308367962846  1.0000
  O   O3        1.0  0.8828514048615191  0.5138796140876494  0.14932559272930487  1.0000
  O   O4        1.0  0.11715963469693949  0.486121341317052  0.8506645206775186  1.0000
  O   O5        1.0  0.2495203740868063  0.5334522548068463  0.48811633478873506  1.0000
  O   O6        1.0  0.7504789749807372  0.46654870962151335  0.511880610637945  1.0000
  O   O7        1.0  0.1141653039232011  0.6881834912936996  0.015471057956972295  1.0000
  O   O8        1.0  0.8858285042173222  0.3118184482612848  0.9845286267003315  1.0000
  O   O9        1.0  0.30994361700567197  0.6107799013625197  0.09071155131396579  1.0000
  O   O10       1.0  0.6900481925214805  0.3892259301093476  0.90928878609575  1.0000
  O   O11       1.0  0.0360970485637111  0.15078211898401153  0.2866527385288719  1.0000
  O   O12       1.0  0.9639025980333004  0.8492169431357083  0.7133534400032102  1.0000
  O   O13       1.0  0.366614193075975  0.6113729966797692  0.9012372234845498  1.0000
  O   O14       1.0  0.6333952181870828  0.38862992986187817  0.09875882477862057  1.0000
  O   O15       1.0  0.556840406266396  0.6706709115790092  0.9579356265270744  1.0000
  O   O16       1.0  0.44316189643132026  0.3293349458334519  0.042065803321847284  1.0000
  O   O17       1.0  0.4147610140940047  0.09935000282583673  0.6575288424887089  1.0000
  O   O18       1.0  0.5852440246652933  0.9006490353215781  0.3424699802600414  1.0000
  O   O19       1.0  0.43391668765394087  0.3474917214821431  0.8605556923506936  1.0000
  O   O20       1.0  0.5660824716203763  0.6525053686224853  0.139445254737538  1.0000
  O   O21       1.0  0.17828511658947827  0.2543643506950204  0.9649988410258243  1.0000
  O   O22       1.0  0.8217106220101513  0.7456385501280851  0.0349974991670123  1.0000
  F   F1        1.0  0.3492589769022275  0.6357291914129847  0.583607125152646  1.0000
  F   F2        1.0  0.650750083346651  0.3642620567435628  0.416389075090798  1.0000
  F   F3        1.0  0.2280638180463654  0.75258082516298  0.4791351196624375  1.0000
  F   F4        1.0  0.7719454155548818  0.2474182239763892  0.5208642717620433  1.0000
  F   F5        1.0  0.4369969751981271  0.6255368890308831  0.446532831139258  1.0000
  F   F6        1.0  0.563006137411513  0.37445726426788184  0.553462801731605  1.0000
  F   F7        1.0  0.22155619621578643  0.1338875904182402  0.3774556422469927  1.0000
  F   F8        1.0  0.77844334583272  0.8661163341221396  0.6225498200737646  1.0000
  F   F9        1.0  0.021860296126469315  0.2828690289276423  0.3972098845072053  1.0000
  F   F10       1.0  0.978137388251426  0.7171339158733192  0.6027949712765518  1.0000
  F   F11       1.0  0.02313667388229129  0.07866262935690571  0.4281232383789656  1.0000
  F   F12       1.0  0.9768622473979246  0.9213393570324375  0.5718842360006348  1.0000
  F   F13       1.0  0.183067075904674  0.14608870020359185  0.6150897766172247  1.0000
  F   F14       1.0  0.8169378701127384  0.8539064389916932  0.3849077797911348  1.0000
  F   F15       1.0  0.34637659906194074  0.0114951386994164  0.5354705868402191  1.0000
  F   F16       1.0  0.6536296084454278  0.9885077942213845  0.46452816279231957  1.0000
  F   F17       1.0  0.353172952371544  0.2188168502692633  0.5410475745114098  1.0000
  F   F18       1.0  0.6468284273941836  0.7811841365871006  0.4589532770044754  1.0000
