data_image0
_chemical_formula_structural       Cu2H32C22N8Cl4
_chemical_formula_sum              "Cu2 H32 C22 N8 Cl4"
_cell_length_a       8.691084895109642
_cell_length_b       8.717896101611252
_cell_length_c       9.630896947564825
_cell_angle_alpha    80.9006077552983
_cell_angle_beta     63.68447801810577
_cell_angle_gamma    87.67676659942448

_space_group_name_H-M_alt    "P 1"
_space_group_IT_number       1

loop_
  _space_group_symop_operation_xyz
  'x, y, z'

loop_
  _atom_site_type_symbol
  _atom_site_label
  _atom_site_symmetry_multiplicity
  _atom_site_fract_x
  _atom_site_fract_y
  _atom_site_fract_z
  _atom_site_occupancy
  Cu  Cu1       1.0  0.3658195881157909  0.083127508638313  0.8994845279377868  1.0000
  Cu  Cu2       1.0  0.6341798652820215  0.9168729544701294  0.10051553555805257  1.0000
  H   H1        1.0  0.02707339424073039  0.1840472909207378  0.9081064354076174  1.0000
  H   H2        1.0  0.9729260591570889  0.8159531721877047  0.09189362808822206  1.0000
  H   H3        1.0  0.24711768464277376  0.9001991317868915  0.2464860778039011  1.0000
  H   H4        1.0  0.752882966794921  0.09979900700939483  0.753513869997434  1.0000
  H   H5        1.0  0.696706903388474  0.8891448688940642  0.38818204758553065  1.0000
  H   H6        1.0  0.30329515846766947  0.1108567219292951  0.6118147187679809  1.0000
  H   H7        1.0  0.5733043658875088  0.8265535077198577  0.5926793926503889  1.0000
  H   H8        1.0  0.426700264044328  0.17344810063925556  0.407317381763626  1.0000
  H   H9        1.0  0.6584217732373928  0.6874502758666737  0.4634700600428515  1.0000
  H   H10       1.0  0.341582856694444  0.3125513324924327  0.5365267143711632  1.0000
  H   H11       1.0  0.9412593434374088  0.6670498873783544  0.537028017901903  1.0000
  H   H12       1.0  0.0587362178667519  0.332949447918196  0.46297585640835576  1.0000
  H   H13       1.0  0.9092342007809646  0.8115691160337876  0.6569962961936183  1.0000
  H   H14       1.0  0.09077034758058028  0.18843025462521013  0.343006053221373  1.0000
  H   H15       1.0  0.9440531192294584  0.8656424059802035  0.4589713851322515  1.0000
  H   H16       1.0  0.05594761941375029  0.1343580919088225  0.5410302355008553  1.0000
  H   H17       1.0  0.2938072923910084  0.7513962533414827  0.778788867755942  1.0000
  H   H18       1.0  0.7061933590466862  0.24860188545480374  0.22121108004539283  1.0000
  H   H19       1.0  0.0821381960483194  0.7476343231929833  0.8024783257874261  1.0000
  H   H20       1.0  0.9178626281903489  0.2523684991051666  0.19752289686810093  1.0000
  H   H21       1.0  0.594216339323168  0.46838042233874694  0.6600941460053065  1.0000
  H   H22       1.0  0.4057805887966808  0.5316211854385031  0.33990571044123624  1.0000
  H   H23       1.0  0.5050909554919015  0.5943208921773577  0.8028872465402442  1.0000
  H   H24       1.0  0.4949072570683126  0.4056807330386718  0.19711313163889344  1.0000
  H   H25       1.0  0.5387406670698521  0.3961359121504203  0.8601234265103841  1.0000
  H   H26       1.0  0.4612588291256968  0.603865713162584  0.13987643799666216  1.0000
  H   H27       1.0  0.7901089814243816  0.3708957866521203  0.9153496042850829  1.0000
  H   H28       1.0  0.20989042917570083  0.6291035142517529  0.08465065819954985  1.0000
  H   H29       1.0  0.8448348750935321  0.5732332404505059  0.8539172542399952  1.0000
  H   H30       1.0  0.15516329225386014  0.4267671705355482  0.14608021671389784  1.0000
  H   H31       1.0  0.891981290336794  0.4473119880444187  0.7132534706456752  1.0000
  H   H32       1.0  0.1080167914151389  0.5526860985325045  0.2867443982858048  1.0000
  C   C1        1.0  0.6009517579455944  0.8022619063138025  0.475586584865617  1.0000
  C   C2        1.0  0.3990515883509075  0.1977397019483291  0.5244107032204894  1.0000
  C   C3        1.0  0.44132279093366816  0.8072214379522579  0.4540429942939212  1.0000
  C   C4        1.0  0.5586779033017493  0.19277786304859756  0.5459567545186204  1.0000
  C   C5        1.0  0.27086966263599516  0.7636009907345314  0.5662032684530798  1.0000
  C   C6        1.0  0.7291310324044602  0.23639832760812143  0.4337975157641409  1.0000
  C   C7        1.0  0.1698665227828257  0.7981785656721171  0.4858483549427317  1.0000
  C   C8        1.0  0.830135369492467  0.20181841101657486  0.5141512781753049  1.0000
  C   C9        1.0  0.9814150122457048  0.7849220477768102  0.5374405212535506  1.0000
  C   C10       1.0  0.018585639997020592  0.2150761083612807  0.4625604619524707  1.0000
  C   C11       1.0  0.20987004053311858  0.7018583976335081  0.7375415903925812  1.0000
  C   C12       1.0  0.7901281300343969  0.2981420827197567  0.2624600221800291  1.0000
  C   C13       1.0  0.19991073853223176  0.527898643542997  0.7834598682397311  1.0000
  C   C14       1.0  0.8000861483999555  0.47210183671329276  0.21654225800496363  1.0000
  C   C15       1.0  0.32413247184825866  0.4321874273679924  0.8079902599561349  1.0000
  C   C16       1.0  0.6758644150839358  0.5678130528882973  0.19201186628855998  1.0000
  C   C17       1.0  0.4999737520063262  0.4750973237019593  0.7816308957481154  1.0000
  C   C18       1.0  0.5000244177561584  0.5249031393095082  0.21836968141981564  1.0000
  C   C19       1.0  0.057761261730789194  0.4287488599504173  0.826362347849212  1.0000
  C   C20       1.0  0.9422369080316952  0.571251603061043  0.17363822931871212  1.0000
  C   C21       1.0  0.8872817078235756  0.45660543153804417  0.8276548722582288  1.0000
  C   C22       1.0  0.11271641672608008  0.543393817243441  0.1723427976844575  1.0000
  N   N1        1.0  0.2592582431072968  0.2851019239501724  0.8647286301471765  1.0000
  N   N2        1.0  0.7407399266551874  0.7148985390612952  0.13527194702075454  1.0000
  N   N3        1.0  0.09918158775231938  0.28592832699575876  0.8744746317499261  1.0000
  N   N4        1.0  0.9008165384074047  0.7140709564693354  0.12552510900211908  1.0000
  N   N5        1.0  0.4426330749254531  0.8631688829489691  0.3146317921479137  1.0000
  N   N6        1.0  0.5573663800824279  0.13683161484308212  0.6853703421572844  1.0000
  N   N7        1.0  0.27885671147623003  0.8559315626277737  0.33602263125195003  1.0000
  N   N8        1.0  0.7211426571311677  0.14406659341333491  0.6639788656261555  1.0000
  Cl  Cl1       1.0  0.112359370963361  0.0036620136661724995  0.11742793103071136  1.0000
  Cl  Cl2       1.0  0.8876425205069011  0.9963349456807222  0.8825706666826535  1.0000
  Cl  Cl3       1.0  0.4803997515686546  0.8414905068803478  0.9247794154322758  1.0000
  Cl  Cl4       1.0  0.5196035947278473  0.1585111013817908  0.07521787265383043  1.0000
