data_image0
_chemical_formula_structural       Al4H62C72N4O20F2
_chemical_formula_sum              "Al4 H62 C72 N4 O20 F2"
_cell_length_a       6.761076213887908
_cell_length_b       23.391608017649304
_cell_length_c       26.102447453854836
_cell_angle_alpha    78.12154729439055
_cell_angle_beta     91.22787703916738
_cell_angle_gamma    91.00541319526069

_space_group_name_H-M_alt    "P 1"
_space_group_IT_number       1

loop_
  _space_group_symop_operation_xyz
  'x, y, z'

loop_
  _atom_site_type_symbol
  _atom_site_label
  _atom_site_symmetry_multiplicity
  _atom_site_fract_x
  _atom_site_fract_y
  _atom_site_fract_z
  _atom_site_occupancy
  Al  Al1       1.0  0.8828802439480796  0.5005843474503565  0.5006903713718813  1.0000
  Al  Al2       1.0  0.38291633984464823  0.5014297073400584  0.5018018265900466  1.0000
  Al  Al3       1.0  0.3013731091309495  0.0020000086162425997  0.0011178931142126  1.0000
  Al  Al4       1.0  0.8019640681318377  0.9981688903037592  0.9993843449518351  1.0000
  H   H1        1.0  0.3557377004336075  0.7973272366661561  0.8627506486309358  1.0000
  H   H2        1.0  0.8766258502581222  0.18483790867136207  0.1635876167438326  1.0000
  H   H3        1.0  0.7525834684364767  0.9071734669550439  0.8790566324079593  1.0000
  H   H4        1.0  0.2613569500451193  0.09930360106092453  0.10824939323950392  1.0000
  H   H5        1.0  0.9425012746243907  0.8427386136261176  0.7337099967152343  1.0000
  H   H6        1.0  0.30495717328793154  0.1817391901440146  0.24810735378201804  1.0000
  H   H7        1.0  0.24635016013733949  0.6467156058122469  0.7771121571438827  1.0000
  H   H8        1.0  0.8426170435402086  0.3288581783012745  0.2475469256253291  1.0000
  H   H9        1.0  0.21673047105910834  0.7042692717363649  0.8463407967122907  1.0000
  H   H10       1.0  0.8287004209452179  0.2711732070524775  0.17879188163887963  1.0000
  H   H11       1.0  0.42700434018647127  0.652344506328589  0.692739905749292  1.0000
  H   H12       1.0  0.9027766779579238  0.3145015697649002  0.34234922277689606  1.0000
  H   H13       1.0  0.4421817398218549  0.5897532917981038  0.6260830889322265  1.0000
  H   H14       1.0  0.9204920282075335  0.3797615268792284  0.40700313881686867  1.0000
  H   H15       1.0  0.8315302167082664  0.6246731837744691  0.5850164168474947  1.0000
  H   H16       1.0  0.29770169373824734  0.4112021562562589  0.3858017882758205  1.0000
  H   H17       1.0  0.816389702202997  0.689500935701794  0.6494822737321401  1.0000
  H   H18       1.0  0.27805989905724005  0.3473727451885367  0.32021849053292334  1.0000
  H   H19       1.0  0.33380673304964864  0.7604352587231064  0.3244813398502586  1.0000
  H   H20       1.0  0.8308963009598641  0.2402077774996343  0.6784997434832931  1.0000
  H   H21       1.0  0.24062001101930258  0.8414314417106751  0.2593724067541245  1.0000
  H   H22       1.0  0.7335888781108225  0.1592305182224365  0.7429080585204417  1.0000
  H   H23       1.0  0.7701812206552249  0.7752192137764596  0.22030637273606857  1.0000
  H   H24       1.0  0.2716765983686997  0.22537080352652336  0.7785517050726369  1.0000
  H   H25       1.0  0.861833500601314  0.8334569290192703  0.24802546373337012  1.0000
  H   H26       1.0  0.35588216448014987  0.1671549893271731  0.7514717905136977  1.0000
  H   H27       1.0  0.9552107129697943  0.7706964872918077  0.3270782271695012  1.0000
  H   H28       1.0  0.45134962216198454  0.2299470624183328  0.6731164597143716  1.0000
  H   H29       1.0  0.7986497735489947  0.7186133779306804  0.30595532065141384  1.0000
  H   H30       1.0  0.30109330899968967  0.28199818696403867  0.6931223618130032  1.0000
  H   H31       1.0  0.2515422896756689  0.7317140299916077  0.17474112025957572  1.0000
  H   H32       1.0  0.7596892306157627  0.268873168156091  0.8277894616438815  1.0000
  H   H33       1.0  0.9936152959423623  0.7273897252367971  0.16346567939593368  1.0000
  H   H34       1.0  0.5026666911793143  0.273118247222115  0.8370980060079418  1.0000
  H   H35       1.0  0.20216148281244273  0.649576285557437  0.24259730328392953  1.0000
  H   H36       1.0  0.7147496974270809  0.35102401151231527  0.7595807135623858  1.0000
  H   H37       1.0  0.39691926563445884  0.812260530635676  0.21817019778982427  1.0000
  H   H38       1.0  0.8950546557351869  0.18842110437908133  0.7852830105211056  1.0000
  H   H39       1.0  0.42503566023418676  0.7223939192333829  0.2783048795320155  1.0000
  H   H40       1.0  0.9288429581865002  0.27828293118695063  0.7253213424172386  1.0000
  H   H41       1.0  0.944259221328707  0.660253010468928  0.242848333613999  1.0000
  H   H42       1.0  0.4557646204541684  0.34024276705338974  0.7573801046594325  1.0000
  H   H43       1.0  0.4039253510034655  0.9046738660112296  0.9440798951155501  1.0000
  H   H44       1.0  0.6665291754745722  0.838556058394957  0.9648377724578339  1.0000
  H   H45       1.0  0.5583197622141399  0.791239779876676  0.9270668204509462  1.0000
  H   H46       1.0  0.4488747894802287  0.7968023509365453  0.9873296683104656  1.0000
  H   H47       1.0  0.9403988897608783  0.08621535866242883  0.07943080309176048  1.0000
  H   H48       1.0  0.1259706544829413  0.1644187169685836  0.0286907197692443  1.0000
  H   H49       1.0  0.9675692359303981  0.21443682578366463  0.0504040095885259  1.0000
  H   H50       1.0  0.869066344547214  0.1676669633241801  0.009863722370525402  1.0000
  H   H51       1.0  0.5947352812209559  0.8586392810451499  0.8218539437489555  1.0000
  H   H52       1.0  0.5034362757346855  0.7716564920509155  0.7953351935275139  1.0000
  H   H53       1.0  0.6108876583066448  0.7495776788723634  0.8595783729394313  1.0000
  H   H54       1.0  0.7492472805077597  0.7468914964963602  0.8033205526406207  1.0000
  H   H55       1.0  0.09965371586014982  0.1649397868826554  0.13480906563971468  1.0000
  H   H56       1.0  0.17152401126090666  0.2654311662425428  0.18151364650846344  1.0000
  H   H57       1.0  0.048959706035397184  0.2617134883242258  0.12106762715545469  1.0000
  H   H58       1.0  0.3103308895234774  0.2714127554685533  0.1236510468940466  1.0000
  H   H59       1.0  0.635586236429873  0.5759857227460826  0.4756129954655036  1.0000
  H   H60       1.0  0.132224424921688  0.4254813150271487  0.5254615793285639  1.0000
  H   H61       1.0  0.5469930684189208  0.9290267324274025  0.032697029642328304  1.0000
  H   H62       1.0  0.047726238768234494  0.0731509638271106  0.9713710565433544  1.0000
  C   C1        1.0  0.5500817680570264  0.07818392146409542  0.9239758670532368  1.0000
  C   C2        1.0  0.0569938820689728  0.9223008241309003  0.07701051279589421  1.0000
  C   C3        1.0  0.6395113742843322  0.4252092351693618  0.5793158304285769  1.0000
  C   C4        1.0  0.12719463416250681  0.5764148721788089  0.4229870427038875  1.0000
  C   C5        1.0  0.6178790879008317  0.4369016954979443  0.43984716152554887  1.0000
  C   C6        1.0  0.1435542894195407  0.5655691842420794  0.5622721530916978  1.0000
  C   C7        1.0  0.23289457915719688  0.8625900851238912  0.8993553809098032  1.0000
  C   C8        1.0  0.7519530893321189  0.1321395410173025  0.11257852438539831  1.0000
  C   C9        1.0  0.22329711231400753  0.8215044958802622  0.8667518237582712  1.0000
  C   C10       1.0  0.7409447869626716  0.1690677651213193  0.14816496865095272  1.0000
  C   C11       1.0  0.05868636934391701  0.8136258633896248  0.8358602113168773  1.0000
  C   C12       1.0  0.5635415588408749  0.1849661723926346  0.16763168045802962  1.0000
  C   C13       1.0  0.8813360582077224  0.8435810323208345  0.8413199584670038  1.0000
  C   C14       1.0  0.38653949721202707  0.16309493645145778  0.1483693053944251  1.0000
  C   C15       1.0  0.8870965922941778  0.8840168167612319  0.8737836132506445  1.0000
  C   C16       1.0  0.397873364682745  0.1190026181823143  0.1195353202665999  1.0000
  C   C17       1.0  0.058101010954438  0.8953950372458052  0.9019452428727704  1.0000
  C   C18       1.0  0.575823074403175  0.10366155847788147  0.1003372486809297  1.0000
  C   C19       1.0  0.011628647669944292  0.8001120672241626  0.7440281733722287  1.0000
  C   C20       1.0  0.4242538378451002  0.21389048831060356  0.2469360434261034  1.0000
  C   C21       1.0  0.0269351827368851  0.7666030320337711  0.7063816566810674  1.0000
  C   C22       1.0  0.4334153739015463  0.2478880927971758  0.2845505516222673  1.0000
  C   C23       1.0  0.11039268813577509  0.7107667597189717  0.7162900738224848  1.0000
  C   C24       1.0  0.5820067476307287  0.28994846310936845  0.2869098798704783  1.0000
  C   C25       1.0  0.1816608505520847  0.6901051998805771  0.7676473134989976  1.0000
  C   C26       1.0  0.7257868301377713  0.296010082478702  0.2479196195061917  1.0000
  C   C27       1.0  0.16525172924050927  0.722489249285097  0.8065545496405094  1.0000
  C   C28       1.0  0.718199770052479  0.26323171377156745  0.20917120455750654  1.0000
  C   C29       1.0  0.07851776490288391  0.7778891043100133  0.7955161160685408  1.0000
  C   C30       1.0  0.5674506399701046  0.22133980108524298  0.2076796593948345  1.0000
  C   C31       1.0  0.29601688394087233  0.646209206008116  0.6691917010416547  1.0000
  C   C32       1.0  0.7704862354788985  0.3365232102252947  0.35113461198185547  1.0000
  C   C33       1.0  0.3054717307416155  0.6113445889630071  0.6320499989826801  1.0000
  C   C34       1.0  0.7809350076444446  0.37248370575271383  0.3874831678369972  1.0000
  C   C35       1.0  0.1375829109609583  0.6034650399451563  0.6017050990411691  1.0000
  C   C36       1.0  0.6099986037944447  0.39924525401772837  0.40021621641786703  1.0000
  C   C37       1.0  0.9613964296200807  0.6315833012908385  0.6085735791654089  1.0000
  C   C38       1.0  0.4290308462800922  0.38974673429162726  0.3758097784499697  1.0000
  C   C39       1.0  0.9536020553570523  0.6675033995609853  0.6447489126943752  1.0000
  C   C40       1.0  0.4188167566654784  0.35393405517862664  0.339454904288921  1.0000
  C   C41       1.0  0.12044154037275231  0.6749531902509176  0.6759866179148091  1.0000
  C   C42       1.0  0.589370628690645  0.32668792540439273  0.32654966198833085  1.0000
  C   C43       1.0  0.2665086211593675  0.8025431095917384  0.2430325069998105  1.0000
  C   C44       1.0  0.7641797700671802  0.19811651629579072  0.7594714306919528  1.0000
  C   C45       1.0  0.8958292491102  0.7894804813333137  0.24229975063411047  1.0000
  C   C46       1.0  0.39470676421365175  0.21112806308617849  0.7574663288932727  1.0000
  C   C47       1.0  0.9290519754225455  0.7468970356097699  0.29532079230768465  1.0000
  C   C48       1.0  0.42931692664792126  0.2537375098680598  0.7047022180435649  1.0000
  C   C49       1.0  0.1276924464622056  0.6221791466205744  0.3766151749641723  1.0000
  C   C50       1.0  0.637478302240318  0.3788774013167285  0.6252906503650024  1.0000
  C   C51       1.0  0.0838828841271351  0.7922879568861345  0.2088490735872952  1.0000
  C   C52       1.0  0.5843288271463579  0.20827552604752247  0.7923408924372595  1.0000
  C   C53       1.0  0.2994788756015865  0.7479733363842486  0.2869117741226077  1.0000
  C   C54       1.0  0.8001329885149603  0.2526940765190417  0.7158345345568975  1.0000
  C   C55       1.0  0.11146398459271009  0.7084478260475038  0.2922523037465652  1.0000
  C   C56       1.0  0.615714495134121  0.29218718130986326  0.7091648552196617  1.0000
  C   C57       1.0  0.0886712712803188  0.682713604542748  0.2421350548134029  1.0000
  C   C58       1.0  0.5980980059110123  0.3178367631809992  0.7591722935283727  1.0000
  C   C59       1.0  0.1069368663267554  0.7322682286682464  0.1931104080802371  1.0000
  C   C60       1.0  0.6140624392077497  0.26828602518495615  0.8083124293746167  1.0000
  C   C61       1.0  0.1234024777597256  0.6615861960747652  0.33816763848286513  1.0000
  C   C62       1.0  0.6305526115066159  0.3391859711503287  0.6634681477704306  1.0000
  C   C63       1.0  0.0696665492502504  0.8381716048628574  0.16233212229277436  1.0000
  C   C64       1.0  0.5679625155598771  0.1623507098652722  0.8387620832753984  1.0000
  C   C65       1.0  0.060196645756001  0.8765076942557146  0.1231188163438617  1.0000
  C   C66       1.0  0.5556376188230205  0.12404073186375804  0.8779067722630032  1.0000
  C   C67       1.0  0.566782614504767  0.062492465968574586  0.06392256170759938  1.0000
  C   C68       1.0  0.04572355713160191  0.937135734581595  0.937047747531672  1.0000
  C   C69       1.0  0.5249560104075996  0.8217082177011646  0.9524142189875919  1.0000
  C   C70       1.0  0.9760144634278377  0.1704801445751229  0.041937223037180595  1.0000
  C   C71       1.0  0.6394476243432266  0.7724130065549132  0.8187202326371905  1.0000
  C   C72       1.0  0.18278421386475688  0.2490576248815231  0.14504854436897574  1.0000
  N   N1        1.0  0.4091533880934222  0.8707727442171985  0.925045232731037  1.0000
  N   N2        1.0  0.9378503532651906  0.126145054765793  0.08971361291450108  1.0000
  N   N3        1.0  0.7062446954038039  0.8328930932541212  0.8145273774491885  1.0000
  N   N4        1.0  0.20261524431917619  0.185696646549431  0.1544872348355995  1.0000
  O   O1        1.0  0.45286551540503694  0.4552894702886336  0.45232989072760427  1.0000
  O   O2        1.0  0.9777655392584707  0.5547675282125439  0.5417462114189391  1.0000
  O   O3        1.0  0.8080031329528837  0.4457472154383453  0.5632821237381762  1.0000
  O   O4        1.0  0.2943776442452446  0.5622955548895376  0.44498863069768646  1.0000
  O   O5        1.0  0.7877706757350609  0.4470743625828888  0.45867259217475725  1.0000
  O   O6        1.0  0.31202350522937644  0.5475710448270376  0.5517469237864462  1.0000
  O   O7        1.0  0.9586338194769725  0.5548394475017915  0.4379261800202841  1.0000
  O   O8        1.0  0.4712326359192717  0.44084350459835514  0.55874567424695  1.0000
  O   O9        1.0  0.2105672297248518  0.9542213376014528  0.9547192263755947  1.0000
  O   O10       1.0  0.729647989331049  0.04264080220581688  0.0509918046971407  1.0000
  O   O11       1.0  0.6351508137086058  0.5366015121871898  0.4965486795014727  1.0000
  O   O12       1.0  0.1316666058096061  0.4655161506611947  0.5059869667705783  1.0000
  O   O13       1.0  0.3807585298795216  0.060260968843394436  0.9415466383411585  1.0000
  O   O14       1.0  0.8884817766957697  0.937345982228166  0.056147639449385195  1.0000
  O   O15       1.0  0.5477851011087367  0.9631703318701452  0.004242496356646097  1.0000
  O   O16       1.0  0.050873668553236905  0.03677280550264329  0.9972214853796758  1.0000
  O   O17       1.0  0.7173538649787831  0.059638622410865545  0.9434807401779467  1.0000
  O   O18       1.0  0.22447407037072512  0.943768587421303  0.060796530248033796  1.0000
  O   O19       1.0  0.39560770462751554  0.050427736718972896  0.04688632772158741  1.0000
  O   O20       1.0  0.8755214376959302  0.9528766758478755  0.9493670365718003  1.0000
  F   F1        1.0  0.9590721384787885  0.7900599737140085  0.6569469054062437  1.0000
  F   F2        1.0  0.2901153251213273  0.23856505504747363  0.3217960761860538  1.0000
