data_image0
_chemical_formula_structural       Zn2H28C28N8O8
_chemical_formula_sum              "Zn2 H28 C28 N8 O8"
_cell_length_a       7.17662768747776
_cell_length_b       9.946667408210262
_cell_length_c       10.797118746522393
_cell_angle_alpha    89.99995548032646
_cell_angle_beta     111.78090071864536
_cell_angle_gamma    89.99932403659979

_space_group_name_H-M_alt    "P 1"
_space_group_IT_number       1

loop_
  _space_group_symop_operation_xyz
  'x, y, z'

loop_
  _atom_site_type_symbol
  _atom_site_label
  _atom_site_symmetry_multiplicity
  _atom_site_fract_x
  _atom_site_fract_y
  _atom_site_fract_z
  _atom_site_occupancy
  Zn  Zn1       1.0  0.4802218346303135  0.38364360458955815  0.7630751366493556  1.0000
  Zn  Zn2       1.0  0.5197849757733338  0.8836504149718535  0.2369230594867133  1.0000
  H   H1        1.0  0.46699429099972883  0.12696062239511718  0.9000514627966113  1.0000
  H   H2        1.0  0.5330070404085134  0.626969494432167  0.09994659737998288  1.0000
  H   H3        1.0  0.4342972211002306  0.8820569098224452  0.8560781873381985  1.0000
  H   H4        1.0  0.5657035784846656  0.38206217702645506  0.14391770436958498  1.0000
  H   H5        1.0  0.30852334181234653  0.18906983685575798  0.3837727264452012  1.0000
  H   H6        1.0  0.6914723687326187  0.6890636889685168  0.6162258500884548  1.0000
  H   H7        1.0  0.3545085752998887  0.8022799134164555  0.618759916998485  1.0000
  H   H8        1.0  0.6454850227973524  0.3022832202048704  0.38123994210137363  1.0000
  H   H9        1.0  0.2926057872788803  0.9732249740643079  0.43834459537588794  1.0000
  H   H10       1.0  0.707387411312979  0.4732265389044484  0.561653189407096  1.0000
  H   H11       1.0  0.803915628814785  0.26607109051693095  0.9504876143103614  1.0000
  H   H12       1.0  0.1960952129318869  0.7660728125012425  0.049517155088956585  1.0000
  H   H13       1.0  0.8458925023030303  0.30771006584092214  0.8148012541152382  1.0000
  H   H14       1.0  0.15411586464942667  0.8077099703937946  0.1851992097814161  1.0000
  H   H15       1.0  0.12447153645433671  0.3532070743400196  0.2508379180298235  1.0000
  H   H16       1.0  0.8755314899877148  0.8532002205516277  0.7491622126048725  1.0000
  H   H17       1.0  0.0059215159983523  0.5950735216446145  0.2284524268271966  1.0000
  H   H18       1.0  0.994083684764014  0.09506638543962248  0.7715521044935088  1.0000
  H   H19       1.0  0.0535911437839545  0.7269595828978764  0.43379548938481355  1.0000
  H   H20       1.0  0.9463994573385149  0.22695309279512088  0.5662046657363574  1.0000
  H   H21       1.0  0.23689783949283338  0.6157696769370701  0.6572881646917352  1.0000
  H   H22       1.0  0.763097876446949  0.11576902066979494  0.34271232171064264  1.0000
  H   H23       1.0  0.1954444671922673  0.5280031295322656  0.04676160479477428  1.0000
  H   H24       1.0  0.8045558256465314  0.028006425642622887  0.953237218649619  1.0000
  H   H25       1.0  0.15845827519036956  0.35388767443092906  0.05947847037953118  1.0000
  H   H26       1.0  0.8415464051273531  0.853886912574609  0.9405257453258001  1.0000
  H   H27       1.0  0.8478082200338334  0.4856957661434364  0.02782985548543588  1.0000
  H   H28       1.0  0.15218782013602813  0.985699779805287  0.9721704248684161  1.0000
  C   C1        1.0  0.4289194681799486  0.08848665025406176  0.7989024577889623  1.0000
  C   C2        1.0  0.5710826513215039  0.5884940755214814  0.2010967389044609  1.0000
  C   C3        1.0  0.4096337953878333  0.9517728751689203  0.7738971597993256  1.0000
  C   C4        1.0  0.5903597356980796  0.45177683134550506  0.2260988644665075  1.0000
  C   C5        1.0  0.3646007829116654  0.9089185887429562  0.6424903397058728  1.0000
  C   C6        1.0  0.6353920794647934  0.4089230142426885  0.3575055636210038  1.0000
  C   C7        1.0  0.33391946118725  0.0026132152000072992  0.5422912150080421  1.0000
  C   C8        1.0  0.6660753243463802  0.5026145073225476  0.4577063641099243  1.0000
  C   C9        1.0  0.3548413411002898  0.14033662226925966  0.5757286652881106  1.0000
  C   C10       1.0  0.6451583145904465  0.6403351145550714  0.4242708533470179  1.0000
  C   C11       1.0  0.2543023001445661  0.3645599508292177  0.46492329286487427  1.0000
  C   C12       1.0  0.7457051313101956  0.8645554522687104  0.5350806194291806  1.0000
  C   C13       1.0  0.1517127031867105  0.41867205087476106  0.33691618931298  1.0000
  C   C14       1.0  0.8482892205746708  0.9186685452529058  0.6630873448273532  1.0000
  C   C15       1.0  0.084728279905903  0.5500419683328772  0.3259763154845601  1.0000
  C   C16       1.0  0.9152717109238536  0.05003561304788209  0.6740252015617969  1.0000
  C   C17       1.0  0.1114989576849297  0.6249472773096939  0.4413204958757859  1.0000
  C   C18       1.0  0.8884966221224178  0.12493726343390679  0.558680878871499  1.0000
  C   C19       1.0  0.2122700885195883  0.5644983927537195  0.5632779888592339  1.0000
  C   C20       1.0  0.7877237474265969  0.06449641169805179  0.4367248846708094  1.0000
  C   C21       1.0  0.18823965432686413  0.41072519582632316  0.8775489502270446  1.0000
  C   C22       1.0  0.8117639234568443  0.9107296776175243  0.12245496942722407  1.0000
  C   C23       1.0  0.11674387513934902  0.4401252271178179  0.9907541468745293  1.0000
  C   C24       1.0  0.8832560070691642  0.9401302451784939  0.009246122995591563  1.0000
  C   C25       1.0  0.8261197529682746  0.5819376569598018  0.8464929136434165  1.0000
  C   C26       1.0  0.17388257720342176  0.08194018775275677  0.15350818941695368  1.0000
  C   C27       1.0  0.8900866053578085  0.46098425609888943  0.9422390097190387  1.0000
  C   C28       1.0  0.10991012313720461  0.9609866956725098  0.05776607995812809  1.0000
  N   N1        1.0  0.4066462595457665  0.18147171370225829  0.703160586756681  1.0000
  N   N2        1.0  0.5933568890625126  0.6814768266289375  0.2968350694309976  1.0000
  N   N3        1.0  0.32045595525228526  0.23269238413188725  0.47354894612433185  1.0000
  N   N4        1.0  0.6795419925899183  0.7326914702993644  0.5264519637194809  1.0000
  N   N5        1.0  0.28927503783955905  0.438917305667715  0.5757386442876395  1.0000
  N   N6        1.0  0.7107219097752518  0.9389132338456887  0.4242618797321995  1.0000
  N   N7        1.0  0.7765746016552199  0.33902332094984183  0.878462260717427  1.0000
  N   N8        1.0  0.223430241550659  0.839027742802784  0.12153922402936959  1.0000
  O   O1        1.0  0.06988748686939061  0.36025156679725256  0.7706184002215508  1.0000
  O   O2        1.0  0.9301199863032182  0.8602529120098478  0.22938459837550343  1.0000
  O   O3        1.0  0.3755781944709042  0.43692412066751257  0.9019894086438001  1.0000
  O   O4        1.0  0.624421708052985  0.9369271966105828  0.09800994178235811  1.0000
  O   O5        1.0  0.65371894085731  0.5759826776401623  0.7508614076885819  1.0000
  O   O6        1.0  0.34628483757119  0.07598766125334316  0.2491363260377497  1.0000
  O   O7        1.0  0.9463971260871772  0.6789897427949041  0.868868772321157  1.0000
  O   O8        1.0  0.0536046542677795  0.17899834214678378  0.13112842488496312  1.0000
