data_image0
_chemical_formula_structural       Al2H14C21O10
_chemical_formula_sum              "Al2 H14 C21 O10"
_cell_length_a       6.8178377254641465
_cell_length_b       11.149262086186472
_cell_length_c       11.043564543416995
_cell_angle_alpha    79.07439379116344
_cell_angle_beta     73.94546192681838
_cell_angle_gamma    71.44647138452538

_space_group_name_H-M_alt    "P 1"
_space_group_IT_number       1

loop_
  _space_group_symop_operation_xyz
  'x, y, z'

loop_
  _atom_site_type_symbol
  _atom_site_label
  _atom_site_symmetry_multiplicity
  _atom_site_fract_x
  _atom_site_fract_y
  _atom_site_fract_z
  _atom_site_occupancy
  Al  Al1       1.0  0.4915237047779685  0.49855070269190094  0.5060122388437733  1.0000
  Al  Al2       1.0  0.9924481363135984  0.49952126618030246  0.4999685643380332  1.0000
  H   H1        1.0  0.2817800871143774  0.3459272715976596  0.5821927588899172  1.0000
  H   H2        1.0  0.6976555206731521  0.6528965298660977  0.42627729257809227  1.0000
  H   H3        1.0  0.12805634570143815  0.4946890780204001  0.1028530895724344  1.0000
  H   H4        1.0  0.7326113312367326  0.5009880386246122  0.1407314729041573  1.0000
  H   H5        1.0  0.280247032810202  0.4907858240194684  0.8667307227975344  1.0000
  H   H6        1.0  0.2464280370774291  0.24547910812101034  0.3281789912956015  1.0000
  H   H7        1.0  0.5977490896371549  0.13523142766459267  0.2055714055404323  1.0000
  H   H8        1.0  0.4590146227613447  0.7750740158378945  0.3279406422314395  1.0000
  H   H9        1.0  0.7042534754832842  0.8987406804672776  0.2045107509389368  1.0000
  H   H10       1.0  0.7507160698464049  0.8762338781957127  0.5883122999404834  1.0000
  H   H11       1.0  0.6371071928753408  0.11337983550247092  0.5810190257193071  1.0000
  H   H12       1.0  0.9643203357674468  0.5816701055528172  0.9277412786793775  1.0000
  H   H13       1.0  0.007406488785207514  0.49048618703316277  0.802178164650826  1.0000
  H   H14       1.0  0.04042793509393761  0.4137636389245358  0.9552325466679079  1.0000
  C   C1        1.0  0.8628207698495558  0.27398595977079754  0.4865262204109585  1.0000
  C   C2        1.0  0.6500577022344561  0.49292802523475376  0.7310725320734831  1.0000
  C   C3        1.0  0.13076607487367659  0.7256739993715086  0.4988247350213442  1.0000
  C   C4        1.0  0.3421040792062584  0.5039580720038899  0.2755213160717318  1.0000
  C   C5        1.0  0.5846883516528222  0.49441605746862655  0.8724602459146311  1.0000
  C   C6        1.0  0.42252711385874864  0.4989181468640497  0.13591706868018602  1.0000
  C   C7        1.0  0.7175968770525005  0.4965491984716052  0.9491268211098288  1.0000
  C   C8        1.0  0.2919048736839756  0.495227308944358  0.05944217513049212  1.0000
  C   C9        1.0  0.6324250696859085  0.4989808964848947  0.07981053554491513  1.0000
  C   C10       1.0  0.3745546990899415  0.49314912932334204  0.9299429727480444  1.0000
  C   C11       1.0  0.9396938994195952  0.13463223440957248  0.4740361433012268  1.0000
  C   C12       1.0  0.14978004207336681  0.0736282858052419  0.4061572375896532  1.0000
  C   C13       1.0  0.7979120551242787  0.06411764904909491  0.5337004987991351  1.0000
  C   C14       1.0  0.2939091598095374  0.14235296155390395  0.3314662236362551  1.0000
  C   C15       1.0  0.49040200929080413  0.0802986783826469  0.26224829894805163  1.0000
  C   C16       1.0  0.06712005710014778  0.8676491627787968  0.4802991494088716  1.0000
  C   C17       1.0  0.8612983707626962  0.9310883142597389  0.5375115875542706  1.0000
  C   C18       1.0  0.21351021201338954  0.9371142201849663  0.4081575824325228  1.0000
  C   C19       1.0  0.4150220865902766  0.8771667484814573  0.33264576335152907  1.0000
  C   C20       1.0  0.5509311801313928  0.9468698418258659  0.2620701641048128  1.0000
  C   C21       1.0  0.9453292197475636  0.4954060372240151  0.9036872527775016  1.0000
  O   O1        1.0  0.6673168444612972  0.3284162208955265  0.4872789740325061  1.0000
  O   O2        1.0  0.8346144868717077  0.5026073547085161  0.6728095396706877  1.0000
  O   O3        1.0  0.9944549622931477  0.6716275339300067  0.4939742522212711  1.0000
  O   O4        1.0  0.4699909878456837  0.5178769847849692  0.33339239611400023  1.0000
  O   O5        1.0  0.3143475148313044  0.6692710187295887  0.5200864162526599  1.0000
  O   O6        1.0  0.1534229048351037  0.4955969390347192  0.3254890733432276  1.0000
  O   O7        1.0  0.9941643223722564  0.3274721160246515  0.49999056077939485  1.0000
  O   O8        1.0  0.5133548228569538  0.48126579672943154  0.6780747807602837  1.0000
  O   O9        1.0  0.24772883676875074  0.4372145492291823  0.558363629541816  1.0000
  O   O10       1.0  0.734113505438785  0.5610894397848012  0.44708682853625703  1.0000
