data_image0
_chemical_formula_structural       Cd4H28C16O26
_chemical_formula_sum              "Cd4 H28 C16 O26"
_cell_length_a       7.483260838695439
_cell_length_b       8.37696074158143
_cell_length_c       13.282686817409811
_cell_angle_alpha    93.98426498766185
_cell_angle_beta     89.98895581178033
_cell_angle_gamma    116.56458491011627

_space_group_name_H-M_alt    "P 1"
_space_group_IT_number       1

loop_
  _space_group_symop_operation_xyz
  'x, y, z'

loop_
  _atom_site_type_symbol
  _atom_site_label
  _atom_site_symmetry_multiplicity
  _atom_site_fract_x
  _atom_site_fract_y
  _atom_site_fract_z
  _atom_site_occupancy
  Cd  Cd1       1.0  0.5356381882851338  0.08758003455244529  0.8715314566213267  1.0000
  Cd  Cd2       1.0  0.5523043925648992  0.08768388501624709  0.3716539147427653  1.0000
  Cd  Cd3       1.0  0.4643619200513954  0.912419123277047  0.12846796444593878  1.0000
  Cd  Cd4       1.0  0.44769638848433146  0.9123192884590592  0.6283456795671754  1.0000
  H   H1        1.0  0.0765543110515381  0.22997517242679774  0.9513365876657358  1.0000
  H   H2        1.0  0.154239090017164  0.23008376415666018  0.4513520480839901  1.0000
  H   H3        1.0  0.9234471374075357  0.770026664296182  0.048663701786054496  1.0000
  H   H4        1.0  0.845763023307086  0.769916729699915  0.5486459248050508  1.0000
  H   H5        1.0  0.3180739309270067  0.4083573815780425  0.980039971776776  1.0000
  H   H6        1.0  0.09131894513418358  0.40843604713232634  0.480066879060594  1.0000
  H   H7        1.0  0.6819281836695764  0.5916431153355786  0.019959506964553994  1.0000
  H   H8        1.0  0.9086811625661824  0.5915631091686392  0.5199317890805233  1.0000
  H   H9        1.0  0.20895568498497144  0.35305492672431876  0.7621743713450257  1.0000
  H   H10       1.0  0.1450624379876615  0.3536001728843415  0.2622283940052341  1.0000
  H   H11       1.0  0.7910437601835626  0.6469482478778658  0.2378259759461798  1.0000
  H   H12       1.0  0.8549370054836912  0.6464003278115553  0.7377733436247738  1.0000
  H   H13       1.0  0.4466221652777592  0.488677344628428  0.825536770059486  1.0000
  H   H14       1.0  0.04280432942611167  0.4888742465009983  0.32563785321429606  1.0000
  H   H15       1.0  0.5533779509062953  0.5113271717132831  0.1744651408132043  1.0000
  H   H16       1.0  0.9571944417573874  0.5111249093983332  0.674360814981938  1.0000
  H   H17       1.0  0.7985885749888979  0.3597487295898175  0.014515063568474299  1.0000
  H   H18       1.0  0.561312526197156  0.35987433497781746  0.5143888678627276  1.0000
  H   H19       1.0  0.201411532711461  0.6402504267111552  0.985483604572643  1.0000
  H   H20       1.0  0.4386855794850034  0.640126162259392  0.4856113639701007  1.0000
  H   H21       1.0  0.8611931418235558  0.44617086904723646  0.9085214249687752  1.0000
  H   H22       1.0  0.5848156950099224  0.4461325370567337  0.4083682985215162  1.0000
  H   H23       1.0  0.13880964124388123  0.553830963491826  0.09147660564945428  1.0000
  H   H24       1.0  0.4151810735192072  0.553867958250315  0.591631180440281  1.0000
  H   H25       1.0  0.7531014241387056  0.9197482991649862  0.7913480583086638  1.0000
  H   H26       1.0  0.1666533832737117  0.919966759626483  0.2915329988623725  1.0000
  H   H27       1.0  0.24689868653117483  0.08025353409931309  0.20865072534594728  1.0000
  H   H28       1.0  0.8333480615796772  0.08003239860465068  0.7084664221497762  1.0000
  C   C1        1.0  0.2686979362996453  0.1624381663736898  0.039787890462776  1.0000
  C   C2        1.0  0.8943305568975078  0.16260931677447835  0.5398066058792778  1.0000
  C   C3        1.0  0.731300846548379  0.8375663572089846  0.9602177850957573  1.0000
  C   C4        1.0  0.10567356841227853  0.8373925299229155  0.4601982010191533  1.0000
  C   C5        1.0  0.2370108974828753  0.2642132907985797  0.9566305819011942  1.0000
  C   C6        1.0  0.02805097732533574  0.2643120166294182  0.45665212018230505  1.0000
  C   C7        1.0  0.7629898818691743  0.7357872087704391  0.043370402747548595  1.0000
  C   C8        1.0  0.9719491310111934  0.7356871412000743  0.5433473008849532  1.0000
  C   C9        1.0  0.34683207566812513  0.353346593442744  0.7911593318876484  1.0000
  C   C10       1.0  0.007348848782399389  0.35361630540780437  0.2912292022696406  1.0000
  C   C11       1.0  0.6531680381825852  0.6466552474641603  0.20884321639769607  1.0000
  C   C12       1.0  0.9926505927804571  0.6463841907025268  0.7087702765819301  1.0000
  C   C13       1.0  0.45016057593713305  0.3100153551895559  0.7024904535604504  1.0000
  C   C14       1.0  0.8605250214900125  0.310054156592372  0.20259403390055297  1.0000
  C   C15       1.0  0.5498361915309857  0.6899824677397247  0.2975111686662899  1.0000
  C   C16       1.0  0.1394643938619211  0.6899396563254924  0.7974111799898153  1.0000
  O   O1        1.0  0.3033325713848641  0.22202825804139084  0.8625120198370553  1.0000
  O   O2        1.0  0.9195059478245325  0.22220641925657247  0.362550981623059  1.0000
  O   O3        1.0  0.6966668720864887  0.7779722426545064  0.13748971779295258  1.0000
  O   O4        1.0  0.08049148747826959  0.777792737769637  0.6374484395544328  1.0000
  O   O5        1.0  0.34506804735082847  0.054668698453454595  0.0170798018546208  1.0000
  O   O6        1.0  0.7100312334288715  0.0549073471380268  0.517085445370462  1.0000
  O   O7        1.0  0.6549347369889418  0.9453331371426543  0.9829197346159048  1.0000
  O   O8        1.0  0.289966202510094  0.9450918114167025  0.48291472873317787  1.0000
  O   O9        1.0  0.21636591479920497  0.19229882326816036  0.1262051499643064  1.0000
  O   O10       1.0  0.9764187448529852  0.19251043159943038  0.6262491920466359  1.0000
  O   O11       1.0  0.7836388666807536  0.8076989898428124  0.8737904485225698  1.0000
  O   O12       1.0  0.023580691831853264  0.8074873829620159  0.37374791251299644  1.0000
  O   O13       1.0  0.5079132140643879  0.1893023305553214  0.7107734543324186  1.0000
  O   O14       1.0  0.6820348470615157  0.1891390947053466  0.21094436263718558  1.0000
  O   O15       1.0  0.49209157356590805  0.8106981671615828  0.289226024298685  1.0000
  O   O16       1.0  0.317971278782828  0.8108640773194936  0.7890537256000059  1.0000
  O   O17       1.0  0.478215502847533  0.3992597411370156  0.6262702214436047  1.0000
  O   O18       1.0  0.9215463897483572  0.39925485211972495  0.126341520825477  1.0000
  O   O19       1.0  0.5217846093059891  0.6007394258636012  0.37373371718052784  1.0000
  O   O20       1.0  0.07845371286267534  0.6007442919530775  0.8736511239064697  1.0000
  O   O21       1.0  0.7455035654099122  0.35939089121166035  0.9452086354614692  1.0000
  O   O22       1.0  0.6138482375787433  0.35947629810677734  0.4450228892317795  1.0000
  O   O23       1.0  0.25449520768208345  0.6406082692732297  0.054792291513201995  1.0000
  O   O24       1.0  0.3861505384827666  0.6405255393414463  0.5549781532563854  1.0000
  O   O25       1.0  0.7172909015265676  0.9997757899396973  0.749846217775179  1.0000
  O   O26       1.0  0.2827078709292579  0.0002233690166733001  0.250153956273344  1.0000
