data_image0
_chemical_formula_structural       Ag2H26C20S4O4
_chemical_formula_sum              "Ag2 H26 C20 S4 O4"
_cell_length_a       6.769827759199746
_cell_length_b       7.559361663689715
_cell_length_c       12.241812491936283
_cell_angle_alpha    78.52000487863589
_cell_angle_beta     87.56484161935583
_cell_angle_gamma    74.58973961747729

_space_group_name_H-M_alt    "P 1"
_space_group_IT_number       1

loop_
  _space_group_symop_operation_xyz
  'x, y, z'

loop_
  _atom_site_type_symbol
  _atom_site_label
  _atom_site_symmetry_multiplicity
  _atom_site_fract_x
  _atom_site_fract_y
  _atom_site_fract_z
  _atom_site_occupancy
  Ag  Ag1       1.0  0.42541933414847233  0.33855250565780187  0.5385144982192499  1.0000
  Ag  Ag2       1.0  0.5745821044439338  0.6614306430612873  0.46148794719528025  1.0000
  H   H1        1.0  0.9321859644920636  0.3034734894410036  0.5117389500497608  1.0000
  H   H2        1.0  0.06781815416270823  0.6965208350522478  0.48826697933623797  1.0000
  H   H3        1.0  0.9206756727160157  0.42468393500225693  0.6247510443933207  1.0000
  H   H4        1.0  0.07932926753925074  0.5753075766983927  0.37525765622847723  1.0000
  H   H5        1.0  0.3535100038019933  0.28325021713882853  0.1717358370417443  1.0000
  H   H6        1.0  0.6464854682089509  0.7167483519097929  0.8282591679190077  1.0000
  H   H7        1.0  0.9530684009089044  0.3676492140933618  0.1852087166784386  1.0000
  H   H8        1.0  0.0469158847871257  0.6323675240866534  0.8147851761573077  1.0000
  H   H9        1.0  0.8146935847605193  0.9888700451899058  0.5345462316977458  1.0000
  H   H10       1.0  0.1853235849335206  0.0111200888988705  0.4654631573449065  1.0000
  H   H11       1.0  0.6913810509704917  0.8939013342975601  0.6549634328824537  1.0000
  H   H12       1.0  0.3086269693051946  0.10608461906734591  0.3450401479749131  1.0000
  H   H13       1.0  0.9591873073170878  0.8801947664348971  0.6615315215892748  1.0000
  H   H14       1.0  0.040815196317836894  0.11980513936431691  0.3384762219069798  1.0000
  H   H15       1.0  0.023587806914470426  0.3011850251286177  0.9935793356753562  1.0000
  H   H16       1.0  0.9764027604262893  0.698845726249573  0.0064127095153664925  1.0000
  H   H17       1.0  0.7563319931521236  0.22245253496100761  0.8912707042689545  1.0000
  H   H18       1.0  0.24366481575876972  0.7775516268946064  0.10872522527955648  1.0000
  H   H19       1.0  0.42144977554678326  0.2144429573432802  0.9805628615736807  1.0000
  H   H20       1.0  0.5785494416861854  0.7855681996263116  0.019433796979406285  1.0000
  H   H21       1.0  0.18149703872092723  0.3266687785019399  0.7841704050532952  1.0000
  H   H22       1.0  0.8185053369305069  0.6733213522007375  0.21583444022402884  1.0000
  H   H23       1.0  0.3720107315964469  0.10683704156804913  0.8125906346538653  1.0000
  H   H24       1.0  0.6279971511849142  0.893154496393379  0.18741472425148933  1.0000
  H   H25       1.0  0.10971640079467451  0.1095680367666603  0.8364416914288951  1.0000
  H   H26       1.0  0.8902949743729778  0.8904165340027675  0.16356034202892286  1.0000
  C   C1        1.0  0.6500165501010003  0.32734477887328944  0.19076296453442856  1.0000
  C   C2        1.0  0.3499954495621793  0.6726580021117458  0.8092352161063943  1.0000
  C   C3        1.0  0.9459392648353386  0.28665196728618986  0.6025561229305081  1.0000
  C   C4        1.0  0.05406418223822842  0.7133395657234801  0.39744852676363956  1.0000
  C   C5        1.0  0.6106433300017641  0.3655442801507007  0.3069644574765888  1.0000
  C   C6        1.0  0.3893406714290252  0.634468297048791  0.6930234108003432  1.0000
  C   C7        1.0  0.5003498648258997  0.2850810293174035  0.13218000347409736  1.0000
  C   C8        1.0  0.4996379069939466  0.714928751510435  0.8678089291181477  1.0000
  C   C9        1.0  0.8381502577351088  0.3331214237238883  0.13953900747494427  1.0000
  C   C10       1.0  0.16183066993772863  0.6668967019715238  0.8604556153623759  1.0000
  C   C11       1.0  0.8105501978447267  0.9658436044614547  0.6258185330530494  1.0000
  C   C12       1.0  0.1894594342024405  0.0341521174507093  0.37418954475695176  1.0000
  C   C13       1.0  0.8769901895937764  0.29504815988558153  0.032614026682232095  1.0000
  C   C14       1.0  0.12301189228157482  0.704953169529624  0.9673894703031889  1.0000
  C   C15       1.0  0.7275927876910586  0.2513097564370312  0.975236512238709  1.0000
  C   C16       1.0  0.27238760589489175  0.7486999931782706  0.024755052858758102  1.0000
  C   C17       1.0  0.5391557731976705  0.24680979339711948  0.025363942983503286  1.0000
  C   C18       1.0  0.46085611726943665  0.7531831829718955  0.974636243826289  1.0000
  C   C19       1.0  0.21458426225375857  0.17681621433779784  0.7836907051185448  1.0000
  C   C20       1.0  0.7854229426839087  0.8231725419798792  0.21631173929899458  1.0000
  S   S1        1.0  0.7429089430722584  0.18882961764160208  0.6685180686661665  1.0000
  S   S2        1.0  0.2570956908819825  0.811173112451236  0.3314860140717997  1.0000
  S   S3        1.0  0.20082981801751026  0.1441696596660975  0.6427689416881889  1.0000
  S   S4        1.0  0.7991780678950847  0.8558218733754188  0.3572372346151552  1.0000
  O   O1        1.0  0.438596473917329  0.3507371493975882  0.3501434962950114  1.0000
  O   O2        1.0  0.5613920007960899  0.6492753737146942  0.6498548899688997  1.0000
  O   O3        1.0  0.7481891062952499  0.41108981380053683  0.3541747771312558  1.0000
  O   O4        1.0  0.2518119914353959  0.5889199523631066  0.6458211874825251  1.0000
