data_image0
_chemical_formula_structural       Eu4H96C100S8N12O32
_chemical_formula_sum              "Eu4 H96 C100 S8 N12 O32"
_cell_length_a       16.121123257762004
_cell_length_b       16.12107571712621
_cell_length_c       27.93266316967725
_cell_angle_alpha    80.16901484269796
_cell_angle_beta     80.16928389692994
_cell_angle_gamma    62.964241526471824

_space_group_name_H-M_alt    "P 1"
_space_group_IT_number       1

loop_
  _space_group_symop_operation_xyz
  'x, y, z'

loop_
  _atom_site_type_symbol
  _atom_site_label
  _atom_site_symmetry_multiplicity
  _atom_site_fract_x
  _atom_site_fract_y
  _atom_site_fract_z
  _atom_site_occupancy
  Eu  Eu1       1.0  0.5303561147242348  0.06598802236994326  0.04524136164562979  1.0000
  Eu  Eu2       1.0  0.9340127445449085  0.46964328363843333  0.45475860869761675  1.0000
  Eu  Eu3       1.0  0.4696434866308366  0.9340126147424282  0.9547587805122786  1.0000
  Eu  Eu4       1.0  0.06598755765323011  0.5303564167288498  0.5452411990126078  1.0000
  H   H1        1.0  0.6290925767798257  0.06324801600488433  0.20430742805621793  1.0000
  H   H2        1.0  0.9367521534767607  0.3709075158540853  0.29569301117592767  1.0000
  H   H3        1.0  0.3709084242749583  0.9367520090385569  0.7956922774472514  1.0000
  H   H4        1.0  0.0632481507495513  0.6290921865367097  0.704307512140005  1.0000
  H   H5        1.0  0.7077801564692622  0.10713213146113536  0.25974724157460116  1.0000
  H   H6        1.0  0.8928679429058022  0.29221934090137586  0.24025294993847274  1.0000
  H   H7        1.0  0.29221944638605635  0.8928678754464913  0.74025296336427  1.0000
  H   H8        1.0  0.10713235929232921  0.7077803594659073  0.759746857771745  1.0000
  H   H9        1.0  0.8473030695848252  0.20403939955898656  0.134056457208807  1.0000
  H   H10       1.0  0.7959608670291091  0.15269740407554622  0.36594366824731134  1.0000
  H   H11       1.0  0.15269723062690596  0.7959615622295358  0.8659435827423606  1.0000
  H   H12       1.0  0.20403943468286914  0.8473029275082313  0.6340564344848046  1.0000
  H   H13       1.0  0.7683133176608623  0.1594583428464915  0.07864874948252519  1.0000
  H   H14       1.0  0.8405420823435463  0.23168678399368065  0.42135135640611293  1.0000
  H   H15       1.0  0.23168698303702234  0.8405419877255369  0.9213509954467438  1.0000
  H   H16       1.0  0.15945821936843171  0.7683135475901041  0.5786487463260029  1.0000
  H   H17       1.0  0.6841623403945221  0.1671302052923098  0.9168637051238305  1.0000
  H   H18       1.0  0.8328694133422019  0.3158374298395971  0.58313643488475  1.0000
  H   H19       1.0  0.31583726246079646  0.8328698016153167  0.08313649981504061  1.0000
  H   H20       1.0  0.1671301895131165  0.6841625770680296  0.416863770054121  1.0000
  H   H21       1.0  0.7550916600457358  0.23241677907601146  0.8412644069094524  1.0000
  H   H22       1.0  0.767583447436877  0.24490784394991758  0.6587360636932471  1.0000
  H   H23       1.0  0.24490794232342955  0.7675838590481165  0.1587360930513171  1.0000
  H   H24       1.0  0.23241685577534105  0.7550918574291219  0.34126410181982436  1.0000
  H   H25       1.0  0.6237735625584192  0.14498177429597808  0.7517043792208397  1.0000
  H   H26       1.0  0.8550184534556565  0.37622677859130255  0.7482952395183273  1.0000
  H   H27       1.0  0.3762274384963717  0.8550182507474628  0.24829532628262999  1.0000
  H   H28       1.0  0.14498114688532843  0.6237738575093131  0.2517045448367341  1.0000
  H   H29       1.0  0.5518562010773139  0.08087818756329307  0.8279715793754361  1.0000
  H   H30       1.0  0.9191212402726168  0.44814504418849327  0.6720283776799291  1.0000
  H   H31       1.0  0.44814550284871774  0.9191209027585643  0.1720285072860505  1.0000
  H   H32       1.0  0.0808783590542745  0.5518555909003738  0.3279710488722784  1.0000
  H   H33       1.0  0.1657266106917632  0.2015564456910824  0.9443821515458523  1.0000
  H   H34       1.0  0.7984437411632828  0.8342736867216445  0.5556175802821811  1.0000
  H   H35       1.0  0.8342736915063681  0.7984432546762013  0.055617656164372406  1.0000
  H   H36       1.0  0.20155656002076233  0.1657260126338826  0.4443818696251823  1.0000
  H   H37       1.0  0.0330284549693616  0.3619614895336269  0.9550769587942651  1.0000
  H   H38       1.0  0.6380388622241142  0.9669726478385599  0.5449226859395891  1.0000
  H   H39       1.0  0.9669718472287699  0.6380382108336564  0.044922848915952315  1.0000
  H   H40       1.0  0.3619614384737773  0.03302768273346859  0.45507705898967993  1.0000
  H   H41       1.0  0.19655957917134262  0.4171625513616207  0.04036163831077028  1.0000
  H   H42       1.0  0.5828378658245228  0.8034402742069346  0.45963822378009667  1.0000
  H   H43       1.0  0.8034414218834413  0.5828374736818205  0.9596380671927063  1.0000
  H   H44       1.0  0.41716243738770237  0.19655942717210453  0.5403619417329749  1.0000
  H   H45       1.0  0.3285160857234927  0.25596179709076256  0.030616908752108405  1.0000
  H   H46       1.0  0.744037690555956  0.6714841827109339  0.4693826369745294  1.0000
  H   H47       1.0  0.671484215460552  0.7440379022647652  0.9693825411552549  1.0000
  H   H48       1.0  0.2559619112852758  0.3285158231849438  0.5306172101614876  1.0000
  H   H49       1.0  0.2837670260914394  0.3531995545937718  0.11279709288702118  1.0000
  H   H50       1.0  0.6468010417432808  0.7162326932383469  0.38720294429137425  1.0000
  H   H51       1.0  0.7162332761066921  0.6468001457735114  0.8872027148231962  1.0000
  H   H52       1.0  0.353198558597704  0.2837679428622694  0.6127968400636873  1.0000
  H   H53       1.0  0.2861580158771559  0.3434130952037648  0.17765252203695778  1.0000
  H   H54       1.0  0.6565860096832807  0.7138421835648074  0.3223479886014927  1.0000
  H   H55       1.0  0.7138422888353163  0.656585975970529  0.8223477062570763  1.0000
  H   H56       1.0  0.34341289180104445  0.28615812785965733  0.6776518979603168  1.0000
  H   H57       1.0  0.2330323878825737  0.28445030328011  0.15273085962289906  1.0000
  H   H58       1.0  0.7155492503142684  0.7669676753264415  0.3472696267476961  1.0000
  H   H59       1.0  0.7669672149727446  0.7155497036275167  0.8472693453159648  1.0000
  H   H60       1.0  0.2844503525410574  0.23303233158118536  0.6527305781911676  1.0000
  H   H61       1.0  0.3269244937669598  0.13167448122847256  0.202165867010315  1.0000
  H   H62       1.0  0.8683243589380113  0.6730761943844785  0.297833847222499  1.0000
  H   H63       1.0  0.6730765102883183  0.8683242834054854  0.7978339640550658  1.0000
  H   H64       1.0  0.13167454003198034  0.32692474623297596  0.702165618755501  1.0000
  H   H65       1.0  0.3874179091039878  0.18128700768675546  0.22855892809553063  1.0000
  H   H66       1.0  0.8187116018437237  0.6125820476674166  0.2714412531333608  1.0000
  H   H67       1.0  0.612581692737244  0.8187129982091151  0.7714409190404863  1.0000
  H   H68       1.0  0.18128730215494224  0.3874176345640593  0.7285590540122582  1.0000
  H   H69       1.0  0.4533664141824404  0.07552319943913226  0.19906281962688147  1.0000
  H   H70       1.0  0.9244761684823929  0.546633747710864  0.3009371113785875  1.0000
  H   H71       1.0  0.5466345878864303  0.9244768266160651  0.800937243679442  1.0000
  H   H72       1.0  0.075523431858592  0.453366888389752  0.699062672976474  1.0000
  H   H73       1.0  0.4697600584764744  0.40063223753536203  0.0553382175940911  1.0000
  H   H74       1.0  0.5993678700827161  0.5302403477772442  0.44466124839142646  1.0000
  H   H75       1.0  0.5302402422214101  0.5993680930366666  0.9446615273351708  1.0000
  H   H76       1.0  0.4006317317585085  0.469759658118626  0.5553385987445835  1.0000
  H   H77       1.0  0.5795108912951008  0.39673219509153074  0.023983273995192195  1.0000
  H   H78       1.0  0.6032681616057831  0.42048921193444505  0.4760166904003141  1.0000
  H   H79       1.0  0.42048941191712436  0.6032675062875088  0.9760168915178793  1.0000
  H   H80       1.0  0.39673214010619523  0.5795111196493324  0.5239834123318019  1.0000
  H   H81       1.0  0.5800632319632586  0.3092434812271279  0.07351507197790137  1.0000
  H   H82       1.0  0.690756906270025  0.41993589364865613  0.4264847335526411  1.0000
  H   H83       1.0  0.41993636987797334  0.6907565246687426  0.9264847751581156  1.0000
  H   H84       1.0  0.3092433969421933  0.5800638077303831  0.5735154319604304  1.0000
  H   H85       1.0  0.46799492716584024  0.33259237211383663  0.92978926408459  1.0000
  H   H86       1.0  0.6674074089802532  0.5320056035529035  0.5702106883887196  1.0000
  H   H87       1.0  0.532005377546625  0.6674066990604576  0.07021096420944418  1.0000
  H   H88       1.0  0.33259219237481824  0.46799503355946837  0.429789453769196  1.0000
  H   H89       1.0  0.5166988210470934  0.4083100712363503  0.9389175001553338  1.0000
  H   H90       1.0  0.5916901751476972  0.4833018430672881  0.5610823604426755  1.0000
  H   H91       1.0  0.48330148115104526  0.591689629130933  0.0610823075548836  1.0000
  H   H92       1.0  0.40830942770762146  0.5166981638403385  0.43891784449619553  1.0000
  H   H93       1.0  0.40852942794951735  0.4154355177536432  0.9743190626128848  1.0000
  H   H94       1.0  0.5845638996208464  0.5914717017700115  0.5256806973020857  1.0000
  H   H95       1.0  0.5914715756196074  0.5845638780968089  0.025681063474394313  1.0000
  H   H96       1.0  0.4154357032344721  0.408528305137615  0.4743195076367853  1.0000
  C   C1        1.0  0.6411812215848088  0.09091165556288419  0.10590649669099148  1.0000
  C   C2        1.0  0.9090876569378141  0.3588191307847027  0.3940936256713455  1.0000
  C   C3        1.0  0.35881907911307565  0.909088675009144  0.8940932482382704  1.0000
  C   C4        1.0  0.0909119454313512  0.641181507339425  0.605906874289424  1.0000
  C   C5        1.0  0.6933828765060215  0.11036321320568009  0.13853690754124406  1.0000
  C   C6        1.0  0.889636667044968  0.3066173735627516  0.36146320725035247  1.0000
  C   C7        1.0  0.30661812556285645  0.8896368128495102  0.8614631557650794  1.0000
  C   C8        1.0  0.11036363466701  0.6933829580210329  0.6385368954817634  1.0000
  C   C9        1.0  0.6771762638324077  0.09405073990922816  0.18957033699739162  1.0000
  C   C10       1.0  0.9059491751200357  0.32282384158000355  0.31042943088699804  1.0000
  C   C11       1.0  0.3228247387226305  0.9059486549294679  0.8104294312870335  1.0000
  C   C12       1.0  0.09405042672119632  0.6771761643158669  0.6895704162490118  1.0000
  C   C13       1.0  0.7204815131890003  0.11778473637131978  0.22012143062012507  1.0000
  C   C14       1.0  0.8822150801473826  0.2795184914856321  0.2798787384164995  1.0000
  C   C15       1.0  0.2795187900232251  0.8822149650077197  0.7798787348929463  1.0000
  C   C16       1.0  0.11778522306484261  0.7204812098934072  0.720121427096579  1.0000
  C   C17       1.0  0.7812073006543943  0.15863333148720923  0.19964148306625154  1.0000
  C   C18       1.0  0.8413662117143303  0.2187926541498015  0.30035838385184377  1.0000
  C   C19       1.0  0.2187930015437374  0.841366368880081  0.8003583246439658  1.0000
  C   C20       1.0  0.15863409198404815  0.7812064160127437  0.6996414866393363  1.0000
  C   C21       1.0  0.7993996013633053  0.1728962252547958  0.14866992682149055  1.0000
  C   C22       1.0  0.8271032896057096  0.20060082442693555  0.35133025856838157  1.0000
  C   C23       1.0  0.2006007018489129  0.8271034761242435  0.8513302386915809  1.0000
  C   C24       1.0  0.17289701360651577  0.799398876952104  0.6486699069446971  1.0000
  C   C25       1.0  0.7557493811576634  0.1487207361894037  0.11830118867334959  1.0000
  C   C26       1.0  0.8512791362153536  0.24425067737851697  0.3816989745504884  1.0000
  C   C27       1.0  0.24425091954022804  0.8512795943826249  0.8816985562559194  1.0000
  C   C28       1.0  0.14872116699686447  0.7557490240005224  0.6183011909625902  1.0000
  C   C29       1.0  0.5699502619350342  0.08372401902746425  0.9210000544229543  1.0000
  C   C30       1.0  0.9162762272469468  0.4300497231263877  0.5789999648620422  1.0000
  C   C31       1.0  0.430050039776944  0.9162763125563205  0.07900004830916174  1.0000
  C   C32       1.0  0.0837233760945253  0.5699496525647375  0.42099994505492316  1.0000
  C   C33       1.0  0.613012504864827  0.12201180016369759  0.8762459546321111  1.0000
  C   C34       1.0  0.8779884276562344  0.3869877780835795  0.623754042421474  1.0000
  C   C35       1.0  0.38698779733330474  0.8779879002035855  0.12375385307810653  1.0000
  C   C36       1.0  0.12201187405573681  0.6130125535002052  0.3762460603106418  1.0000
  C   C37       1.0  0.6706646137918072  0.16417273534231935  0.8803782439790094  1.0000
  C   C38       1.0  0.8358273152458155  0.3293351915147723  0.619621836872092  1.0000
  C   C39       1.0  0.329335687920171  0.8358275962414654  0.11962185875311347  1.0000
  C   C40       1.0  0.16417228760950311  0.6706648153928613  0.38037836806677905  1.0000
  C   C41       1.0  0.7099200284109415  0.19981142016494868  0.8389252113232928  1.0000
  C   C42       1.0  0.800189199322702  0.29007998727501433  0.6610747960082148  1.0000
  C   C43       1.0  0.2900802733010367  0.8001889114188285  0.1610748914088234  1.0000
  C   C44       1.0  0.1998111023892761  0.7099203443087702  0.3389253067239082  1.0000
  C   C45       1.0  0.6918549446400064  0.19339581347885118  0.7923950277207154  1.0000
  C   C46       1.0  0.8066043046887971  0.3081453317633846  0.707605347801724  1.0000
  C   C47       1.0  0.30814535808605836  0.8066045191166894  0.20760543281426172  1.0000
  C   C48       1.0  0.19339599702318114  0.6918549998204001  0.2923947549303917  1.0000
  C   C49       1.0  0.6355290415222541  0.1498453188550003  0.7882332657796309  1.0000
  C   C50       1.0  0.850154642298179  0.3644711819314139  0.7117667575267603  1.0000
  C   C51       1.0  0.36447126168997107  0.8501543825240392  0.21176689973344046  1.0000
  C   C52       1.0  0.14984565791354504  0.6355297798571086  0.2882332824244002  1.0000
  C   C53       1.0  0.596175449775906  0.11463588250600057  0.8299324823284022  1.0000
  C   C54       1.0  0.8853642576989034  0.4038246765109151  0.6700675278780961  1.0000
  C   C55       1.0  0.4038255522929716  0.8853641435491898  0.17006758097792124  1.0000
  C   C56       1.0  0.11463534515641532  0.5961753303967116  0.32993267706076773  1.0000
  C   C57       1.0  0.33119104859729026  0.12377103433122016  0.9812732991357718  1.0000
  C   C58       1.0  0.8762290898588531  0.6688090644365732  0.5187263883381235  1.0000
  C   C59       1.0  0.6688085517436945  0.8762296017693959  0.018726485219289723  1.0000
  C   C60       1.0  0.12376981211163242  0.3311906157713977  0.4812732032017877  1.0000
  C   C61       1.0  0.25400567540312124  0.21958746223046438  0.987254856901515  1.0000
  C   C62       1.0  0.7804124015521696  0.7459941917535035  0.5127446756015885  1.0000
  C   C63       1.0  0.7459946257809236  0.7804122371250628  0.01274459300585561  1.0000
  C   C64       1.0  0.21958720130314902  0.2540058151541231  0.48725552933728267  1.0000
  C   C65       1.0  0.1710019412181083  0.24954536543668132  0.9655431658320024  1.0000
  C   C66       1.0  0.7504543909240129  0.8289982989402848  0.5344569219621816  1.0000
  C   C67       1.0  0.8289983619941098  0.750454335942358  0.03445699968107618  1.0000
  C   C68       1.0  0.24954521091721926  0.17100170695558606  0.46554292517383533  1.0000
  C   C69       1.0  0.0980638640934117  0.33771039563717403  0.9713086722329861  1.0000
  C   C70       1.0  0.6622893472217868  0.901936088858868  0.528691254197973  1.0000
  C   C71       1.0  0.9019357392480603  0.6622889800539511  0.028691237683986497  1.0000
  C   C72       1.0  0.3377102556335386  0.09806391804875869  0.4713089507408909  1.0000
  C   C73       1.0  0.10784255869792503  0.39771511901373924  0.9988698723878497  1.0000
  C   C74       1.0  0.6022843146169665  0.8921583674017982  0.5011302860817466  1.0000
  C   C75       1.0  0.8921577445143002  0.6022845823653001  0.0011302931252288237  1.0000
  C   C76       1.0  0.3977152882383521  0.10784163950582842  0.4988699188571245  1.0000
  C   C77       1.0  0.1913746740440629  0.3683796411526288  0.01965179796341232  1.0000
  C   C78       1.0  0.6316211314270606  0.8086246295521915  0.48034813533367066  1.0000
  C   C79       1.0  0.8086249252828283  0.6316209939362382  0.9803476285887952  1.0000
  C   C80       1.0  0.3683791717851649  0.1913750718268474  0.519652030179401  1.0000
  C   C81       1.0  0.26392439306516025  0.27964022841591435  0.014217637500529201  1.0000
  C   C82       1.0  0.720358976138897  0.7360762541637274  0.48578250981415033  1.0000
  C   C83       1.0  0.7360759076327242  0.7203601021561072  0.9857821074287327  1.0000
  C   C84       1.0  0.279639926359522  0.2639240582724939  0.5142177345505131  1.0000
  C   C85       1.0  0.2889513167446794  0.3071915801971415  0.14705921824000967  1.0000
  C   C86       1.0  0.6928087777707502  0.7110484569629708  0.3529408981276631  1.0000
  C   C87       1.0  0.7110489864675387  0.6928081211818977  0.8529409472730618  1.0000
  C   C88       1.0  0.3071908240704816  0.28895154893290004  0.6470589490083467  1.0000
  C   C89       1.0  0.3902313382192305  0.14241888657605978  0.19915548956635826  1.0000
  C   C90       1.0  0.8575805812115577  0.6097683785500295  0.3008443214387738  1.0000
  C   C91       1.0  0.609768264636088  0.8575811203315667  0.8008447153725128  1.0000
  C   C92       1.0  0.14241832027276766  0.3902319328744355  0.6991555651230356  1.0000
  C   C93       1.0  0.542767441606614  0.355303560601172  0.0427789949287956  1.0000
  C   C94       1.0  0.6446969907873809  0.4572322708236598  0.4572209946158522  1.0000
  C   C95       1.0  0.45723286010535713  0.6446967709826128  0.9572211078033203  1.0000
  C   C96       1.0  0.3553026130820244  0.5427677370957226  0.5427795681258729  1.0000
  C   C97       1.0  0.4769531866714516  0.3692086999975148  0.9567488427516009  1.0000
  C   C98       1.0  0.630791316374797  0.523046991999138  0.543250730519304  1.0000
  C   C99       1.0  0.5230471170269269  0.6307903701650307  0.04325102773957207  1.0000
  C   C100      1.0  0.36920828498027464  0.476953645113234  0.4567494116386114  1.0000
  S   S1        1.0  0.40174028806321627  0.2069758198747139  0.1409786275506804  1.0000
  S   S2        1.0  0.7930239694301876  0.5982588556583367  0.35902150355598644  1.0000
  S   S3        1.0  0.5982600156351623  0.7930232502878313  0.8590212429404928  1.0000
  S   S4        1.0  0.2069763337820376  0.40174084572070273  0.6409786619570923  1.0000
  S   S5        1.0  0.5441096725999445  0.2792963815818582  0.0016596501009616066  1.0000
  S   S6        1.0  0.7207031396034083  0.4558900235070455  0.49834053583757754  1.0000
  S   S7        1.0  0.4558906291120338  0.7207039500019264  0.9983404526311545  1.0000
  S   S8        1.0  0.2792964632519102  0.5441099834005813  0.5016596691012933  1.0000
  N   N1        1.0  0.8231657804387852  0.19224709112272362  0.2270345792472668  1.0000
  N   N2        1.0  0.8077517906999674  0.17683419633607414  0.27296571943855946  1.0000
  N   N3        1.0  0.1768345227734329  0.8077526102563155  0.772965586265812  1.0000
  N   N4        1.0  0.19224851299841111  0.8231648738264711  0.7270341510526207  1.0000
  N   N5        1.0  0.7267585670000258  0.22821725273547602  0.7477821609927628  1.0000
  N   N6        1.0  0.7717827325901538  0.2732421397039177  0.752217826918496  1.0000
  N   N7        1.0  0.2732424365690989  0.7717821431149757  0.2522179650945161  1.0000
  N   N8        1.0  0.22821756912181712  0.726758191879867  0.24778227581362697  1.0000
  N   N9        1.0  0.038830872482336104  0.4883331248053793  0.007889483302925297  1.0000
  N   N10       1.0  0.5116667684983582  0.9611692472787043  0.4921104905724504  1.0000
  N   N11       1.0  0.9611694297157956  0.511666575561911  0.9921103244072921  1.0000
  N   N12       1.0  0.48833353471386703  0.03883045410033492  0.5078896749406281  1.0000
  O   O1        1.0  0.5842648389891353  0.05605166627290705  0.12498058431093276  1.0000
  O   O2        1.0  0.9439481821129763  0.41573579826556545  0.37501942988875203  1.0000
  O   O3        1.0  0.4157347608656892  0.9439496010442101  0.875019495066027  1.0000
  O   O4        1.0  0.056052119599002005  0.5842645333182189  0.6249806728433709  1.0000
  O   O5        1.0  0.6519977780470472  0.11276855439771079  0.05996029325746829  1.0000
  O   O6        1.0  0.8872326514093346  0.3480014560215778  0.44003973860092316  1.0000
  O   O7        1.0  0.34800182229393783  0.8872320817029049  0.9400394910975932  1.0000
  O   O8        1.0  0.1127669484454898  0.6519998112955394  0.5599603407760438  1.0000
  O   O9        1.0  0.5840696186753078  0.09523442358047168  0.96238838152815  1.0000
  O   O10       1.0  0.904766404613163  0.41592965821131866  0.5376116534645731  1.0000
  O   O11       1.0  0.41592998166567713  0.9047662125201444  0.03761140282691137  1.0000
  O   O12       1.0  0.09523389859905511  0.5840700431677207  0.4623885120484984  1.0000
  O   O13       1.0  0.5222912339601677  0.043250771179003826  0.9137624070045901  1.0000
  O   O14       1.0  0.9567490464804251  0.47770846074903534  0.586238033542692  1.0000
  O   O15       1.0  0.47770837039539776  0.9567486055238776  0.08623786071523644  1.0000
  O   O16       1.0  0.043249853503660105  0.5222924808801678  0.41376179023816917  1.0000
  O   O17       1.0  0.4041280655464448  0.09480679106717822  0.003666135611105408  1.0000
  O   O18       1.0  0.9051933890765937  0.5958721255823534  0.49633362996497965  1.0000
  O   O19       1.0  0.5958715352806936  0.9051932138169361  0.9963333537220578  1.0000
  O   O20       1.0  0.09480551342181802  0.4041281868538676  0.5036666143996837  1.0000
  O   O21       1.0  0.3228650907549451  0.07325958241920465  0.9540331783976226  1.0000
  O   O22       1.0  0.9267395858225671  0.6771363745050537  0.5459658036100093  1.0000
  O   O23       1.0  0.6771352099011595  0.9267394847080722  0.045965618684988385  1.0000
  O   O24       1.0  0.07326001703275863  0.3228636324025728  0.45403440132886164  1.0000
  O   O25       1.0  0.3932670490111434  0.15474072012536788  0.1032367314945901  1.0000
  O   O26       1.0  0.8452589671369637  0.6067334618880766  0.396762967262667  1.0000
  O   O27       1.0  0.6067332542010746  0.8452589812536717  0.8967634340184815  1.0000
  O   O28       1.0  0.15474063470426808  0.3932665440077941  0.6032368798733498  1.0000
  O   O29       1.0  0.4767904303928604  0.24040456487961856  0.028380800518270605  1.0000
  O   O30       1.0  0.7595959248908672  0.5232086279518315  0.47161931861431566  1.0000
  O   O31       1.0  0.5232091709622111  0.7595960722327534  0.9716193416396449  1.0000
  O   O32       1.0  0.24040367796445142  0.47679137895579526  0.5283808863245552  1.0000
