data_image0
_chemical_formula_structural       Cu4H22C44N10O16
_chemical_formula_sum              "Cu4 H22 C44 N10 O16"
_cell_length_a       8.49724471727493
_cell_length_b       9.447877252559067
_cell_length_c       14.161708723576469
_cell_angle_alpha    81.04786680786901
_cell_angle_beta     89.20368317162357
_cell_angle_gamma    73.97861712070979

_space_group_name_H-M_alt    "P 1"
_space_group_IT_number       1

loop_
  _space_group_symop_operation_xyz
  'x, y, z'

loop_
  _atom_site_type_symbol
  _atom_site_label
  _atom_site_symmetry_multiplicity
  _atom_site_fract_x
  _atom_site_fract_y
  _atom_site_fract_z
  _atom_site_occupancy
  Cu  Cu1       1.0  0.44323656005720846  0.35532120708946746  0.8545772626622608  1.0000
  Cu  Cu2       1.0  0.5567607913586629  0.6446786855050207  0.1454238499782861  1.0000
  Cu  Cu3       1.0  0.4825528548483362  0.19892095440767577  0.09849937322407241  1.0000
  Cu  Cu4       1.0  0.5174549450155155  0.8010756342477238  0.9015033827778824  1.0000
  H   H1        1.0  0.9352921560755264  0.11739840734346527  0.8216733180977516  1.0000
  H   H2        1.0  0.06470989244299125  0.8826014984145231  0.17832703191619712  1.0000
  H   H3        1.0  0.04062954073344841  0.6029637013635208  0.9946491122005627  1.0000
  H   H4        1.0  0.9593704841761269  0.3970350692294958  0.005349264587572093  1.0000
  H   H5        1.0  0.40988600499941436  0.6394290609896275  0.7172693721566575  1.0000
  H   H6        1.0  0.5901089841727938  0.36057081545698816  0.28273035761925774  1.0000
  H   H7        1.0  0.5411341982518039  0.7137512095172625  0.5670088858735483  1.0000
  H   H8        1.0  0.45886043585488806  0.28624977446706606  0.4329893172500548  1.0000
  H   H9        1.0  0.792277802825517  0.24864463311520513  0.5695337453982603  1.0000
  H   H10       1.0  0.20771918257096203  0.7513563593640952  0.43046442924763545  1.0000
  H   H11       1.0  0.6493621126347479  0.1917006677481226  0.720671291643683  1.0000
  H   H12       1.0  0.35063557193890205  0.8082981020028371  0.2793285249644982  1.0000
  H   H13       1.0  0.08857588480935161  0.21329352527040868  0.371556024118867  1.0000
  H   H14       1.0  0.911421783333495  0.7867052330011789  0.6284416754758129  1.0000
  H   H15       1.0  0.31507361963004854  0.096539516311573  0.2684005790838527  1.0000
  H   H16       1.0  0.6849243981013872  0.9034581305958368  0.7315979414919696  1.0000
  H   H17       1.0  0.2822913974266685  0.5030988811499596  0.0989481705888622  1.0000
  H   H18       1.0  0.7177111275595751  0.49690325158385923  0.9010505232239441  1.0000
  H   H19       1.0  0.05769901706736393  0.6367926186193033  0.19465669885651243  1.0000
  H   H20       1.0  0.9423042016191092  0.3632072875597103  0.8053429312474096  1.0000
  H   H21       1.0  0.8547964603959246  0.7461006557880624  0.3114828208892817  1.0000
  H   H22       1.0  0.1452039305330359  0.2538970149201418  0.6885184938934972  1.0000
  C   C1        1.0  0.6990248852656934  0.08902914552347599  0.9471795564760799  1.0000
  C   C2        1.0  0.30096929428100333  0.9109696267908446  0.05282312553333675  1.0000
  C   C3        1.0  0.8477571170807184  0.9707317844061122  0.9278673060532869  1.0000
  C   C4        1.0  0.1522552256219711  0.029261459940485707  0.07213363614852848  1.0000
  C   C5        1.0  0.9594578334165436  0.004881532731701601  0.8610598505749467  1.0000
  C   C6        1.0  0.040551979102382035  0.995116183435755  0.13894346731049012  1.0000
  C   C7        1.0  0.1055697853316104  0.9001222814049898  0.8449703512241484  1.0000
  C   C8        1.0  0.8944327999008976  0.09987989341983901  0.15503610497150083  1.0000
  C   C9        1.0  0.13262161119997987  0.7535083722684561  0.8936953194224843  1.0000
  C   C10       1.0  0.8673810790039341  0.2464971255905652  0.10630583690620912  1.0000
  C   C11       1.0  0.018656832361770632  0.7176505665358944  0.9586462301179638  1.0000
  C   C12       1.0  0.9813401064968021  0.28235824842570884  0.041352520222716314  1.0000
  C   C13       1.0  0.8790687124448908  0.825177762500047  0.9788241461496343  1.0000
  C   C14       1.0  0.1209248062631687  0.174823259327809  0.0211818335956693  1.0000
  C   C15       1.0  0.7715333827451972  0.7759696852339318  0.0544064080648781  1.0000
  C   C16       1.0  0.22846996282041943  0.22403355928509677  0.9455907448567589  1.0000
  C   C17       1.0  0.22018644824468944  0.9534636567426984  0.7742230617426387  1.0000
  C   C18       1.0  0.7798060856080512  0.04655184852063599  0.22577643655822754  1.0000
  C   C19       1.0  0.27715000322862693  0.6250030544613736  0.8821240076492103  1.0000
  C   C20       1.0  0.7228595226704186  0.37498796206732987  0.11788003057380081  1.0000
  C   C21       1.0  0.4941702294846382  0.5556563412230203  0.6824298875547684  1.0000
  C   C22       1.0  0.5058252361552961  0.4443457621994256  0.3175681860200044  1.0000
  C   C23       1.0  0.5680436308539072  0.5967311617533254  0.5986828367131167  1.0000
  C   C24       1.0  0.43195216246687834  0.4032698149991277  0.4013132351581278  1.0000
  C   C25       1.0  0.6790990468982515  0.48651480400699393  0.5565340887801042  1.0000
  C   C26       1.0  0.3208951162176419  0.5134839568279619  0.4434664762158107  1.0000
  C   C27       1.0  0.707328194592492  0.337541049199899  0.6002073597877313  1.0000
  C   C28       1.0  0.2926719791039575  0.6624610750389551  0.3997913625027892  1.0000
  C   C29       1.0  0.6282415493591246  0.30539532248884177  0.6836277086417584  1.0000
  C   C30       1.0  0.37175660620531675  0.6946056704114909  0.3163697460941109  1.0000
  C   C31       1.0  0.7655821014242009  0.5237072433913069  0.47092352774399876  1.0000
  C   C32       1.0  0.23441487301841596  0.4762937414350858  0.5290732355595582  1.0000
  C   C33       1.0  0.9289656282883174  0.50126755492078  0.3560209982226184  1.0000
  C   C34       1.0  0.07103136258509582  0.4987334413849781  0.6439778820944398  1.0000
  C   C35       1.0  0.055292093272882384  0.43536870398955335  0.29236105499543913  1.0000
  C   C36       1.0  0.9447025298799401  0.5646322723418679  0.7076357367858321  1.0000
  C   C37       1.0  0.12833527455999424  0.28053882910772643  0.3114071049438465  1.0000
  C   C38       1.0  0.8716572145355528  0.71945768519808  0.6885923078074044  1.0000
  C   C39       1.0  0.252240589954198  0.21530364944560174  0.2540357642811628  1.0000
  C   C40       1.0  0.7477570836655832  0.7846951126524431  0.7459626409846863  1.0000
  C   C41       1.0  0.23423360205774205  0.44331957506096137  0.1594757986610773  1.0000
  C   C42       1.0  0.765769473318791  0.5566769812986719  0.8405241916116284  1.0000
  C   C43       1.0  0.11108322908024348  0.5171888695575789  0.21430145348698912  1.0000
  C   C44       1.0  0.8889149319611394  0.48281212716921135  0.7856967069200494  1.0000
  N   N1        1.0  0.5251385722325779  0.4123467940637227  0.725385785602441  1.0000
  N   N2        1.0  0.4748569098381594  0.5876553208380954  0.2746144049858402  1.0000
  N   N3        1.0  0.8774420252795139  0.4202448668443353  0.4296991703740077  1.0000
  N   N4        1.0  0.12255564834026701  0.5797538952537097  0.5702992348918414  1.0000
  N   N5        1.0  0.7446309747176726  0.6648568143329215  0.42681239137257887  1.0000
  N   N6        1.0  0.25536532793243794  0.33514641235409925  0.5731862583245332  1.0000
  N   N7        1.0  0.8482012259919004  0.6486743786843049  0.3546541169977148  1.0000
  N   N8        1.0  0.15179880439460897  0.35132439573516194  0.6453449654615895  1.0000
  N   N9        1.0  0.30429414293727325  0.29493934856274956  0.178831896077611  1.0000
  N   N10       1.0  0.695704373169619  0.7050605406263202  0.8211677909817396  1.0000
  O   O1        1.0  0.6544921629719697  0.20478494288552443  0.883256122482017  1.0000
  O   O2        1.0  0.3455061714864557  0.7952115696989781  0.11673898504794522  1.0000
  O   O3        1.0  0.6326547432778754  0.06244871377832341  0.026396514241540096  1.0000
  O   O4        1.0  0.36734869264110886  0.9375467388700399  0.9736057083546471  1.0000
  O   O5        1.0  0.655477088629219  0.7229544346893134  0.025058705153590235  1.0000
  O   O6        1.0  0.34452899615330773  0.2770477337456967  0.974944179969647  1.0000
  O   O7        1.0  0.8002943900466022  0.7703427486215872  0.1403754659105516  1.0000
  O   O8        1.0  0.19970716009645176  0.22965491485474127  0.8596237176198687  1.0000
  O   O9        1.0  0.37730609089307887  0.8927489158450967  0.7835996618417553  1.0000
  O   O10       1.0  0.6227004758341081  0.10725548339220839  0.2164022727515089  1.0000
  O   O11       1.0  0.15675526829116393  0.055133435868896206  0.7070174445041604  1.0000
  O   O12       1.0  0.8432613753876835  0.9448687554876687  0.29298248978470554  1.0000
  O   O13       1.0  0.24688289750579884  0.5289209118727669  0.835248657724492  1.0000
  O   O14       1.0  0.7531164610882044  0.47108010440732784  0.1647523111283604  1.0000
  O   O15       1.0  0.4136710069344502  0.6084282671835197  0.9220636518000023  1.0000
  O   O16       1.0  0.5863256672119803  0.3915738634451457  0.07793864156291623  1.0000
