data_image0
_chemical_formula_structural       Cd4P2H28C10N2O14
_chemical_formula_sum              "Cd4 P2 H28 C10 N2 O14"
_cell_length_a       6.956543624285642
_cell_length_b       7.951083197225707
_cell_length_c       9.87747165170919
_cell_angle_alpha    99.85948958329641
_cell_angle_beta     102.88884306296362
_cell_angle_gamma    92.38737014966954

_space_group_name_H-M_alt    "P 1"
_space_group_IT_number       1

loop_
  _space_group_symop_operation_xyz
  'x, y, z'

loop_
  _atom_site_type_symbol
  _atom_site_label
  _atom_site_symmetry_multiplicity
  _atom_site_fract_x
  _atom_site_fract_y
  _atom_site_fract_z
  _atom_site_occupancy
  Cd  Cd1       1.0  0.4999967418399791  0.4999926368583231  0.999997080288814  1.0000
  Cd  Cd2       1.0  0.21885182692746238  0.12798049834596986  0.11692920962098437  1.0000
  Cd  Cd3       1.0  0.7811614350678299  0.8720232006991112  0.8830799946475023  1.0000
  Cd  Cd4       1.0  1.3709899278228568e-06  0.5000055508121479  2.0322250194065763e-06  1.0000
  P   P1        1.0  0.7625287562110188  0.2149195889475308  0.15571286103715917  1.0000
  P   P2        1.0  0.23747046553413043  0.7850779936460982  0.8442953135228348  1.0000
  H   H1        1.0  0.9153028847403064  0.17604428914918913  0.8032739665124067  1.0000
  H   H2        1.0  0.08469762374481601  0.8239634916671151  0.19673069600588625  1.0000
  H   H3        1.0  0.1523993706365232  0.2539334755635068  0.8111240997100706  1.0000
  H   H4        1.0  0.8476013620184729  0.746064012060508  0.1888772172048618  1.0000
  H   H5        1.0  0.5502736229924352  0.1804803022180721  0.7799794174851583  1.0000
  H   H6        1.0  0.4497126765402228  0.8195070967541724  0.22000610909638135  1.0000
  H   H7        1.0  0.42137457979166015  0.10513512346818739  0.8629368616635843  1.0000
  H   H8        1.0  0.5786108041023255  0.8948445453356512  0.13704243725759818  1.0000
  H   H9        1.0  0.8703612388236834  0.30532485324719977  0.41269104876922563  1.0000
  H   H10       1.0  0.12964421129206732  0.6946751248989359  0.5873133767454772  1.0000
  H   H11       1.0  0.9008408785507312  0.08830925015170271  0.35003251077529995  1.0000
  H   H12       1.0  0.09916459415533305  0.9116906907366557  0.6499678636803735  1.0000
  H   H13       1.0  0.23771501118485358  0.49890339894737684  0.472871009476492  1.0000
  H   H14       1.0  0.7622853625778205  0.5011030640117866  0.527129408010012  1.0000
  H   H15       1.0  0.053630703924326895  0.5053394685706678  0.3162859576222984  1.0000
  H   H16       1.0  0.9463700287306693  0.49465801905334683  0.6837153592926339  1.0000
  H   H17       1.0  0.3766856783487568  0.626640133030044  0.3059025024683136  1.0000
  H   H18       1.0  0.6233114436823756  0.37336381895293863  0.6940960508914171  1.0000
  H   H19       1.0  0.48519551607977013  0.43049752401527996  0.32527166494495663  1.0000
  H   H20       1.0  0.5148046890749852  0.5695076769734085  0.6747305840982987  1.0000
  H   H21       1.0  0.238455010897006  0.22045711433150933  0.5514824714315977  1.0000
  H   H22       1.0  0.761550298848718  0.7795415552719334  0.4485187218160718  1.0000
  H   H23       1.0  0.4170900689578545  0.2239617407270487  0.44776993501378104  1.0000
  H   H24       1.0  0.5829155554133933  0.7760394900751209  0.5522316461794076  1.0000
  H   H25       1.0  0.3531529157975228  0.9358760636655461  0.4868454964146024  1.0000
  H   H26       1.0  0.6468496085073739  0.064123946074254  0.5131554273893427  1.0000
  H   H27       1.0  0.0968543177989574  0.9351493128624142  0.4198190108852628  1.0000
  H   H28       1.0  0.9031437754328023  0.06485081412620991  0.5801842560882164  1.0000
  C   C1        1.0  0.922554058012011  0.2189002570897643  0.3310012330637945  1.0000
  C   C2        1.0  0.07745140339889639  0.7810997024274825  0.6690011669213971  1.0000
  C   C3        1.0  0.18711844184581145  0.44422819209815145  0.3587347623319274  1.0000
  C   C4        1.0  0.812881128410332  0.5557718958075315  0.641267723585038  1.0000
  C   C5        1.0  0.3463713916701749  0.48645724339130675  0.2829993219045192  1.0000
  C   C6        1.0  0.6536271960901772  0.5135466881376233  0.7170004759282163  1.0000
  C   C7        1.0  0.2640900438789515  0.17874923179023486  0.4443756564250663  1.0000
  C   C8        1.0  0.7359140921727628  0.8212520567237576  0.5556287313541615  1.0000
  C   C9        1.0  0.2423094767949081  0.982931755103138  0.4060889892209472  1.0000
  C   C10       1.0  0.7576930475099886  0.017068254636655004  0.5939119345829977  1.0000
  N   N1        1.0  0.1337706910415122  0.2586885359940537  0.33851577311155256  1.0000
  N   N2        1.0  0.8662321365937374  0.7413140535733619  0.66148756416743  1.0000
  O   O1        1.0  0.865721363947678  0.10314607368595569  0.05500640883364844  1.0000
  O   O2        1.0  0.13428965796357056  0.8968626862057859  0.9449899419675486  1.0000
  O   O3        1.0  0.5606216956315961  0.13417563445217703  0.15705142041449693  1.0000
  O   O4        1.0  0.439389662581668  0.8658241873621932  0.8429498808741653  1.0000
  O   O5        1.0  0.7646772241498924  0.4021179968629838  0.1294126415333707  1.0000
  O   O6        1.0  0.23531903881275437  0.5978911352292898  0.8705894943034377  1.0000
  O   O7        1.0  0.28528985942420354  0.4238482198742304  0.13459569844815175  1.0000
  O   O8        1.0  0.7147054540143004  0.5761532379363035  0.8654062863168404  1.0000
  O   O9        1.0  0.2611836885997647  0.9198865517484337  0.26793155311510464  1.0000
  O   O10       1.0  0.7388129445503538  0.0801135863797953  0.7320694566206142  1.0000
  O   O11       1.0  0.04883633911254039  0.2520579000780927  0.8636472241955457  1.0000
  O   O12       1.0  0.9511584694160361  0.747951233839338  0.13635164163873983  1.0000
  O   O13       1.0  0.44067740734683986  0.21374802170750234  0.8293493792482848  1.0000
  O   O14       1.0  0.5593051515732625  0.7862330524338076  0.17063673958246986  1.0000
