data_image0
_chemical_formula_structural       Cd2H16C20N6Cl2O4
_chemical_formula_sum              "Cd2 H16 C20 N6 Cl2 O4"
_cell_length_a       8.08928978167037
_cell_length_b       8.39806746836633
_cell_length_c       8.983983295983933
_cell_angle_alpha    87.28684354772365
_cell_angle_beta     75.20414528147411
_cell_angle_gamma    71.716731637202

_space_group_name_H-M_alt    "P 1"
_space_group_IT_number       1

loop_
  _space_group_symop_operation_xyz
  'x, y, z'

loop_
  _atom_site_type_symbol
  _atom_site_label
  _atom_site_symmetry_multiplicity
  _atom_site_fract_x
  _atom_site_fract_y
  _atom_site_fract_z
  _atom_site_occupancy
  Cd  Cd1       1.0  0.4435233288993246  0.6978995916065217  0.6269491219084813  1.0000
  Cd  Cd2       1.0  0.5564781904414674  0.3021027886374981  0.3730487390219253  1.0000
  H   H1        1.0  0.12795176166941502  0.5970156290473129  0.8865372063009573  1.0000
  H   H2        1.0  0.8720628155553455  0.4029719168954743  0.11345160837894501  1.0000
  H   H3        1.0  0.016320088471147152  0.5897050068123236  0.1750631548678427  1.0000
  H   H4        1.0  0.9836865038668136  0.4102798353197772  0.8249275199576829  1.0000
  H   H5        1.0  0.19234866809843967  0.6642570376943268  0.3395967749733729  1.0000
  H   H6        1.0  0.807654656039894  0.33574033330314285  0.660399749283478  1.0000
  H   H7        1.0  0.456754031538658  0.7553412070961302  0.2153118227595599  1.0000
  H   H8        1.0  0.5432475279634446  0.24466120846890502  0.7846815753453953  1.0000
  H   H9        1.0  0.7095437741821371  0.8475117068449977  0.07824852164499424  1.0000
  H   H10       1.0  0.29045367110110487  0.15248042614646107  0.9217561649935888  1.0000
  H   H11       1.0  0.9414695689214555  0.9093941787490182  0.8118236281925423  1.0000
  H   H12       1.0  0.058530611241984304  0.0906081118586215  0.18818232420085934  1.0000
  H   H13       1.0  0.8580076082420548  0.7345185287123004  0.4784611426118064  1.0000
  H   H14       1.0  0.14199454683779322  0.26549269014920895  0.521539607574887  1.0000
  H   H15       1.0  0.9934372399703479  0.8408556247105211  0.5324406604344392  1.0000
  H   H16       1.0  0.006554170954352396  0.15916421766799257  0.46756104984923047  1.0000
  C   C1        1.0  0.19536490658442332  0.6322325682959685  0.9643195777120399  1.0000
  C   C2        1.0  0.804643218871199  0.36775860341521843  0.03567387588618234  1.0000
  C   C3        1.0  0.13498191885783922  0.627655119488786  0.12357922730311804  1.0000
  C   C4        1.0  0.8650301105364733  0.37233236197452163  0.8764112661200727  1.0000
  C   C5        1.0  0.23132725668865103  0.67103820362793  0.21479385859652217  1.0000
  C   C6        1.0  0.7686779023682108  0.32895418461374254  0.7851979818676897  1.0000
  C   C7        1.0  0.3818048474178965  0.7192564831458415  0.1452160290200127  1.0000
  C   C8        1.0  0.6181942313862835  0.2807420677272461  0.8547802793276492  1.0000
  C   C9        1.0  0.4326221969200646  0.7233270536600499  0.9844923588342527  1.0000
  C   C10       1.0  0.5673790381174583  0.27666900716899084  0.015504673217719813  1.0000
  C   C11       1.0  0.5869281455494147  0.7757255516812479  0.9034922702463465  1.0000
  C   C12       1.0  0.4130764374436496  0.2242718383105783  0.09650508819840552  1.0000
  C   C13       1.0  0.7083889823960592  0.8312254085659986  0.9595096733537647  1.0000
  C   C14       1.0  0.2916126712097906  0.16876937125308442  0.04049065057549943  1.0000
  C   C15       1.0  0.8270506243762837  0.8629692630662903  0.8287368159445169  1.0000
  C   C16       1.0  0.1729513505443805  0.13702800946454374  0.17126891548169  1.0000
  C   C17       1.0  0.854602368165004  0.8434698382613419  0.5436762642186963  1.0000
  C   C18       1.0  0.14539298370992532  0.1565424871660568  0.4563270645084501  1.0000
  C   C19       1.0  0.7558601346604945  0.0033968325610587  0.4733146222535538  1.0000
  C   C20       1.0  0.24411598613178134  0.9966187609163415  0.5267062019337558  1.0000
  N   N1        1.0  0.34022252652443546  0.6787135146025564  0.896308984294251  1.0000
  N   N2        1.0  0.6597825252385903  0.3212826385305688  0.10368608749598711  1.0000
  N   N3        1.0  0.6306525623484021  0.7739296490669149  0.7483601836041558  1.0000
  N   N4        1.0  0.3693523720804563  0.2260702601274147  0.25163923521845544  1.0000
  N   N5        1.0  0.7762206728305188  0.8260154515639683  0.704901214911672  1.0000
  N   N6        1.0  0.22378078626830714  0.17398687569853882  0.295103340256901  1.0000
  Cl  Cl1       1.0  0.2713595549673046  0.49738033794313447  0.5801414216050703  1.0000
  Cl  Cl2       1.0  0.728642041546344  0.5026182509186726  0.4198565551184006  1.0000
  O   O1        1.0  0.6121411665058363  0.10414645001718982  0.5566527890959351  1.0000
  O   O2        1.0  0.3878295246873406  0.8958488635488779  0.4433610407563081  1.0000
  O   O3        1.0  0.825836861716617  0.026390012254282193  0.3345981026716061  1.0000
  O   O4        1.0  0.17414483612989767  0.973642131564006  0.6654220216993069  1.0000
