data_image0
_chemical_formula_structural       Al2H14C20N2O10F2
_chemical_formula_sum              "Al2 H14 C20 N2 O10 F2"
_cell_length_a       6.672841617560821
_cell_length_b       8.7850614927819
_cell_length_c       16.89669074829668
_cell_angle_alpha    102.95240665604348
_cell_angle_beta     84.4299937019572
_cell_angle_gamma    74.8209693367875

_space_group_name_H-M_alt    "P 1"
_space_group_IT_number       1

loop_
  _space_group_symop_operation_xyz
  'x, y, z'

loop_
  _atom_site_type_symbol
  _atom_site_label
  _atom_site_symmetry_multiplicity
  _atom_site_fract_x
  _atom_site_fract_y
  _atom_site_fract_z
  _atom_site_occupancy
  Al  Al1       1.0  2.4384069099927456e-05  0.49999683275888873  0.5000178293482662  1.0000
  Al  Al2       1.0  0.5000386558858453  0.49997624939312846  0.49998431615765776  1.0000
  H   H1        1.0  0.17798911693818553  0.6350794289967182  0.5993654489806843  1.0000
  H   H2        1.0  0.8221083300077012  0.3650502071881263  0.4005976163811056  1.0000
  H   H3        1.0  0.6117511113593254  0.5510600016162143  0.2727444916189015  1.0000
  H   H4        1.0  0.677246292898623  0.5556772203030816  0.1251916102797495  1.0000
  H   H5        1.0  0.08717403890706528  0.45517586442740293  0.09326696020290369  1.0000
  H   H6        1.0  0.912733440636558  0.5447785047965893  0.9067322148206285  1.0000
  H   H7        1.0  0.3225564743677937  0.44449127745360056  0.8748061579267912  1.0000
  H   H8        1.0  0.38812570035124583  0.4490042895236782  0.7272561240566446  1.0000
  H   H9        1.0  0.8173804495410268  0.9954327203518075  0.5946293086720187  1.0000
  H   H10       1.0  0.6265167264530617  0.18353023905952875  0.5981248275175302  1.0000
  H   H11       1.0  0.8289665188098212  0.09027711244706887  0.5129433819698619  1.0000
  H   H12       1.0  0.1711598046409648  0.9096867042427306  0.4870671548986891  1.0000
  H   H13       1.0  0.3735755483422454  0.8164728394325208  0.4018804669121748  1.0000
  H   H14       1.0  0.182668989855209  0.004588852137011667  0.40541235188202757  1.0000
  C   C1        1.0  0.6485208754194292  0.7920930137566625  0.515916337155744  1.0000
  C   C2        1.0  0.7098261038235237  0.5021881141691579  0.6445034616576705  1.0000
  C   C3        1.0  0.35157333426553095  0.20789090390610446  0.4841128687970836  1.0000
  C   C4        1.0  0.290192406802973  0.49776995288290476  0.3554777095358402  1.0000
  C   C5        1.0  0.3150988295064323  0.5014163605777142  0.267077338278355  1.0000
  C   C6        1.0  0.4981057528767536  0.5307967214908159  0.23258153035637008  1.0000
  C   C7        1.0  0.5356074291840757  0.5325775550773597  0.15091414104611536  1.0000
  C   C8        1.0  0.3877120846812546  0.5034408291800858  0.09990751477462109  1.0000
  C   C9        1.0  0.20219813307939927  0.4771957909186995  0.1325687318849447  1.0000
  C   C10       1.0  0.16926517305639524  0.4758289734432494  0.2147823118192704  1.0000
  C   C11       1.0  0.7977058666176051  0.5227802175662218  0.8674264165535134  1.0000
  C   C12       1.0  0.6121648407524349  0.4965847355576185  0.9000856152027835  1.0000
  C   C13       1.0  0.46423679212674784  0.467514331816531  0.8490870883398927  1.0000
  C   C14       1.0  0.5017879834218919  0.46926222050609556  0.7674168254045453  1.0000
  C   C15       1.0  0.6848504781620619  0.49857142018351647  0.7329127990823492  1.0000
  C   C16       1.0  0.8306840357587575  0.5241307162574315  0.785214645609102  1.0000
  C   C17       1.0  0.5845556376832732  0.9692866530216335  0.5173537471489099  1.0000
  C   C18       1.0  0.415532681691353  0.030697613694030665  0.48268171099429935  1.0000
  C   C19       1.0  0.7213008136855025  0.06476894010609159  0.5581908073738688  1.0000
  C   C20       1.0  0.27878679977492743  0.9352288048474902  0.4418364737349165  1.0000
  N   N1        1.0  0.4100738711969997  0.4986196191799334  0.015306085023560484  1.0000
  N   N2        1.0  0.589777213423112  0.5014236261434062  0.9846909826497807  1.0000
  O   O1        1.0  0.8456197142822077  0.7234007277515885  0.5089548544361691  1.0000
  O   O2        1.0  0.5531263335590355  0.48982908580955353  0.6087240341579871  1.0000
  O   O3        1.0  0.495148260658013  0.27743639501283457  0.47662966634536025  1.0000
  O   O4        1.0  0.11977239214688501  0.48223124733873135  0.3883585612109286  1.0000
  O   O5        1.0  0.15447756087901618  0.27660190452947114  0.49109252602686126  1.0000
  O   O6        1.0  0.4469521343742215  0.5101016126409377  0.391228447168963  1.0000
  O   O7        1.0  0.5049562933601379  0.7225120910989203  0.523342269641617  1.0000
  O   O8        1.0  0.8802573311360223  0.5177267388145451  0.6116370001701695  1.0000
  O   O9        1.0  0.21383134740229082  0.574500850986517  0.541976699563719  1.0000
  O   O10       1.0  0.7862711447511046  0.425463711148886  0.4580123091553148  1.0000
  F   F1        1.0  0.9886345697430413  0.4463581581978601  0.2425322722957901  1.0000
  F   F2        1.0  0.011314168204585114  0.5535707119394855  0.7574749513148049  1.0000
