data_image0
_chemical_formula_structural       K2H2C12N8O16
_chemical_formula_sum              "K2 H2 C12 N8 O16"
_cell_length_a       7.32297691226951
_cell_length_b       8.314809931702703
_cell_length_c       9.164894756354872
_cell_angle_alpha    67.40409379074306
_cell_angle_beta     68.07714557919293
_cell_angle_gamma    72.20865818299183

_space_group_name_H-M_alt    "P 1"
_space_group_IT_number       1

loop_
  _space_group_symop_operation_xyz
  'x, y, z'

loop_
  _atom_site_type_symbol
  _atom_site_label
  _atom_site_symmetry_multiplicity
  _atom_site_fract_x
  _atom_site_fract_y
  _atom_site_fract_z
  _atom_site_occupancy
  K   K1        1.0  0.9495619683313805  0.7523712102694657  0.47164079585076735  1.0000
  K   K2        1.0  0.0504454065726136  0.2476280768329318  0.5283555998142972  1.0000
  H   H1        1.0  0.015051807856551101  0.10807505106780717  0.10258939528841891  1.0000
  H   H2        1.0  0.984953218875823  0.8919282256703555  0.8974095697747444  1.0000
  C   C1        1.0  0.8281545057508309  0.3890653657890724  0.031824738710127996  1.0000
  C   C2        1.0  0.17184199233587805  0.6109365188361694  0.9681750886588245  1.0000
  C   C3        1.0  0.7960584726932396  0.2645704457116338  0.1955890154483555  1.0000
  C   C4        1.0  0.20394155262793126  0.7354288033977384  0.8044106853186717  1.0000
  C   C5        1.0  0.6311859945408785  0.30446738710090676  0.3283410278871272  1.0000
  C   C6        1.0  0.3688143243134974  0.6955305354069383  0.6716590528619263  1.0000
  C   C7        1.0  0.48415788848105734  0.4685886079403759  0.3116654118477626  1.0000
  C   C8        1.0  0.5158409628013059  0.5314093243986521  0.6883383782454544  1.0000
  C   C9        1.0  0.5372050505622069  0.5943544720318316  0.14534904952800082  1.0000
  C   C10       1.0  0.46279232812410237  0.4056434327888355  0.8546519177870096  1.0000
  C   C11       1.0  0.6973956171588969  0.5589409235864051  0.00759811522221546  1.0000
  C   C12       1.0  0.30259970353964155  0.44105961936880084  0.9924014467246706  1.0000
  N   N1        1.0  0.43167787997809626  0.7559509226492339  0.09486024260103681  1.0000
  N   N2        1.0  0.5683112734558406  0.24405758450898668  0.9051438127379752  1.0000
  N   N3        1.0  0.6970761155803017  0.6956393317478061  0.8707566279462993  1.0000
  N   N4        1.0  0.3029194978140951  0.3043598783809429  0.12924222529554893  1.0000
  N   N5        1.0  0.9753414560854028  0.3428330212902678  0.8990284309297747  1.0000
  N   N6        1.0  0.024657981332033813  0.6571688747972289  0.1009694211861571  1.0000
  N   N7        1.0  0.6037965875076453  0.1724837599274309  0.4873152508595595  1.0000
  N   N8        1.0  0.3962052005934141  0.8275141651990765  0.5126832979194517  1.0000
  O   O1        1.0  0.28056520267875845  0.8488585748908973  0.15594199259196276  1.0000
  O   O2        1.0  0.7194445237462048  0.15113674747544084  0.8440561884232524  1.0000
  O   O3        1.0  0.540378972794393  0.8251498129268099  0.9105900974708947  1.0000
  O   O4        1.0  0.45961752696700126  0.1748520841482843  0.0894119072721793  1.0000
  O   O5        1.0  0.9155233476959379  0.1079289824596259  0.21918773767938404  1.0000
  O   O6        1.0  0.0844793250974405  0.8920716171633742  0.7808117852267314  1.0000
  O   O7        1.0  0.3297311857724949  0.5060385126620943  0.42061059693645564  1.0000
  O   O8        1.0  0.6702717830660987  0.493960779034161  0.5793925720128571  1.0000
  O   O9        1.0  0.09238760494234549  0.1895899703510864  0.9225735543595093  1.0000
  O   O10       1.0  0.9076118341497621  0.8104119381862703  0.07742647513053665  1.0000
  O   O11       1.0  0.9942229824353818  0.4495808281914577  0.755907832791756  1.0000
  O   O12       1.0  0.0057767485152525  0.5504197412945118  0.24409039930618806  1.0000
  O   O13       1.0  0.43078442388384997  0.1513094412479106  0.574176855754196  1.0000
  O   O14       1.0  0.5692179512836191  0.8486858306755495  0.4258224529888608  1.0000
  O   O15       1.0  0.7555589570526705  0.0842038274787598  0.5338900690621246  1.0000
  O   O16       1.0  0.24444342220750306  0.9157980987457749  0.46610907386195777  1.0000
