data_image0
_chemical_formula_structural       P2H12Pb2C6N2O10
_chemical_formula_sum              "P2 H12 Pb2 C6 N2 O10"
_cell_length_a       4.612305527870057
_cell_length_b       7.8449654395148345
_cell_length_c       9.910784031511666
_cell_angle_alpha    104.75959350703957
_cell_angle_beta     100.68562373185455
_cell_angle_gamma    90.19115997618503

_space_group_name_H-M_alt    "P 1"
_space_group_IT_number       1

loop_
  _space_group_symop_operation_xyz
  'x, y, z'

loop_
  _atom_site_type_symbol
  _atom_site_label
  _atom_site_symmetry_multiplicity
  _atom_site_fract_x
  _atom_site_fract_y
  _atom_site_fract_z
  _atom_site_occupancy
  P   P1        1.0  0.9652986215198354  0.17342636877167913  0.3831557089342823  1.0000
  P   P2        1.0  0.034721829357970115  0.8265776919415587  0.6168376867672903  1.0000
  H   H1        1.0  0.9476124446981231  0.39533861342411564  0.24541154389311257  1.0000
  H   H2        1.0  0.05238285239339289  0.604658944078288  0.7546005145166033  1.0000
  H   H3        1.0  0.28959859592569615  0.40625773418837235  0.36410027973664677  1.0000
  H   H4        1.0  0.7104017284235554  0.593745087253751  0.6359052126848042  1.0000
  H   H5        1.0  0.4418093163759097  0.14715586977050776  0.21656995988656993  1.0000
  H   H6        1.0  0.5581685735657161  0.8528430875678975  0.7834307516231858  1.0000
  H   H7        1.0  0.10439353612824931  0.09882879681270401  0.11510440018562208  1.0000
  H   H8        1.0  0.8955757067099556  0.9011715201046825  0.8848917849189988  1.0000
  H   H9        1.0  0.3824100935467101  0.4365109668602542  0.11896334912085386  1.0000
  H   H10       1.0  0.6175623582956149  0.5634787660745103  0.8810441023270953  1.0000
  H   H11       1.0  0.5255517592915881  0.23809240750287589  0.03199444425568029  1.0000
  H   H12       1.0  0.4744521233977538  0.7619024728828945  0.9680148063130573  1.0000
  Pb  Pb1       1.0  0.4321756050846162  0.7982399376787227  0.3297823230862065  1.0000
  Pb  Pb2       1.0  0.5679475315471052  0.20179669869202138  0.6702166314354443  1.0000
  C   C1        1.0  0.11670361383175282  0.31562301868858367  0.2889479585395661  1.0000
  C   C2        1.0  0.8832835702284498  0.6843811785355386  0.7110606855734787  1.0000
  C   C3        1.0  0.3274214529544466  0.2961050552114769  0.06812795310811029  1.0000
  C   C4        1.0  0.6725609404602937  0.7038938862807809  0.931864072273626  1.0000
  C   C5        1.0  0.0838592686930326  0.2722127682392923  0.9372379662967416  1.0000
  C   C6        1.0  0.9161542753871714  0.7277675476777715  0.06275911104475539  1.0000
  N   N1        1.0  0.24915940062501823  0.2053884209262122  0.17206032148350658  1.0000
  N   N2        1.0  0.7508036264387103  0.7946158846851148  0.8279361184721238  1.0000
  O   O1        1.0  0.23224990985053756  0.06699530973478568  0.43138647390604495  1.0000
  O   O2        1.0  0.7677545686358515  0.9330048529349071  0.5686178405834427  1.0000
  O   O3        1.0  0.7269876755433488  0.050368704885301006  0.2706711264832435  1.0000
  O   O4        1.0  0.2730116629616006  0.9496235591262446  0.7293240774709914  1.0000
  O   O5        1.0  0.8599061723043848  0.29587995812967444  0.5080173437927513  1.0000
  O   O6        1.0  0.1400579745603565  0.7041335941549816  0.49196289778955554  1.0000
  O   O7        1.0  0.8660862423426964  0.16434396356540756  0.9237786770037387  1.0000
  O   O8        1.0  0.133924986209621  0.8356561751566217  0.0762131123093752  1.0000
  O   O9        1.0  0.11767472153656665  0.3566835175182774  0.8478806520393362  1.0000
  O   O10       1.0  0.8823388326117865  0.6432981141521166  0.15212879970470536  1.0000
