data_image0
_chemical_formula_structural       Zn2H30C62N2Cl4O8
_chemical_formula_sum              "Zn2 H30 C62 N2 Cl4 O8"
_cell_length_a       14.820388179958778
_cell_length_b       16.11297357980679
_cell_length_c       16.11362072450507
_cell_angle_alpha    89.91853516574123
_cell_angle_beta     89.7026788592183
_cell_angle_gamma    89.69741053648286

_space_group_name_H-M_alt    "P 1"
_space_group_IT_number       1

loop_
  _space_group_symop_operation_xyz
  'x, y, z'

loop_
  _atom_site_type_symbol
  _atom_site_label
  _atom_site_symmetry_multiplicity
  _atom_site_fract_x
  _atom_site_fract_y
  _atom_site_fract_z
  _atom_site_occupancy
  Zn  Zn1       1.0  0.4038116232026354  0.49965433876192117  0.49966075133290366  1.0000
  Zn  Zn2       1.0  0.5961897821924965  0.5003450741833575  0.5003399979733059  1.0000
  H   H1        1.0  0.056899528727697705  0.3987861406119677  0.3985869103596115  1.0000
  H   H2        1.0  0.9430998481983153  0.6012138946977146  0.6014150871821113  1.0000
  H   H3        1.0  0.42824405498161155  0.6255169817831997  0.05475754777402388  1.0000
  H   H4        1.0  0.5717559946303438  0.3744836736427429  0.9452438259409914  1.0000
  H   H5        1.0  0.5716526417833521  0.9451898550890333  0.3744673006166081  1.0000
  H   H6        1.0  0.4283467428710708  0.054809561038034416  0.6255303534132535  1.0000
  H   H7        1.0  0.9449776282544775  0.5373180897188802  0.36143167848967284  1.0000
  H   H8        1.0  0.055022423430074206  0.462681944874042  0.6385703164837081  1.0000
  H   H9        1.0  0.0550194244900766  0.6386519365730904  0.4629614422824701  1.0000
  H   H10       1.0  0.9449819711523945  0.3613493378397479  0.5370405462300452  1.0000
  H   H11       1.0  0.722983675634737  0.48040786064496643  0.9118318188696433  1.0000
  H   H12       1.0  0.8876857067606493  0.4782836086766197  0.9370044676916505  1.0000
  H   H13       1.0  0.9466702354998305  0.4922290889406966  0.08096776569730928  1.0000
  H   H14       1.0  0.8387712954890745  0.509062411513554  0.19938106557481206  1.0000
  H   H15       1.0  0.6741017276575575  0.5113181981309224  0.17421745948646358  1.0000
  H   H16       1.0  0.27701704666315413  0.5195934148972371  0.08816893101866437  1.0000
  H   H17       1.0  0.1123150196824341  0.5217164251995426  0.06299752471338137  1.0000
  H   H18       1.0  0.053329138646610416  0.5077715669957072  0.919034231182337  1.0000
  H   H19       1.0  0.1612274031918588  0.4909382449333037  0.8006215544694584  1.0000
  H   H20       1.0  0.3258956243342226  0.4886824605746653  0.8257826833093984  1.0000
  H   H21       1.0  0.2770228901795378  0.08825765493705257  0.5194566672400923  1.0000
  H   H22       1.0  0.11231854187744261  0.0630994167655388  0.5218319481718651  1.0000
  H   H23       1.0  0.053313281559809404  0.9190977946102947  0.5082664191265635  1.0000
  H   H24       1.0  0.16118511581487383  0.8006363611324545  0.4915433345609229  1.0000
  H   H25       1.0  0.3258498270864009  0.8257922065352475  0.4890254706663199  1.0000
  H   H26       1.0  0.7229771635776032  0.9117417588228419  0.4805459489916472  1.0000
  H   H27       1.0  0.8876821887591575  0.9368999968964999  0.47816880370268666  1.0000
  H   H28       1.0  0.9466854270187924  0.0809028647247843  0.4917275125698238  1.0000
  H   H29       1.0  0.8388129208814374  0.19936492119651208  0.5084456342715171  1.0000
  H   H30       1.0  0.6741482144137408  0.17420721288205243  0.5109666031337524  1.0000
  C   C1        1.0  0.49940906160258447  0.6613008226902294  0.4996478293452212  1.0000
  C   C2        1.0  0.5005916760554497  0.3386979715828957  0.500349199613751  1.0000
  C   C3        1.0  0.5005706425025663  0.5003796756079097  0.33869564850864003  1.0000
  C   C4        1.0  0.49943212070001414  0.4996172525717525  0.6613075806943056  1.0000
  C   C5        1.0  0.4938821614404604  0.4987010294952368  0.8265012489726755  1.0000
  C   C6        1.0  0.5061199221997583  0.5012977623128592  0.17349887783098683  1.0000
  C   C7        1.0  0.5061470888716996  0.1734991495336899  0.5012598776743713  1.0000
  C   C8        1.0  0.49385161965857083  0.8265008883494642  0.498736537069213  1.0000
  C   C9        1.0  0.812387416192671  0.499825485798759  0.4998214845996927  1.0000
  C   C10       1.0  0.18761330742250243  0.5001745472521932  0.5001829901904455  1.0000
  C   C11       1.0  0.029630709025013892  0.5771938720988177  0.47937743996235566  1.0000
  C   C12       1.0  0.970370690055674  0.42280616044167374  0.5206264116631516  1.0000
  C   C13       1.0  0.9703705301408123  0.5207862081343247  0.42285743941177856  1.0000
  C   C14       1.0  0.029628853051320906  0.47921258612821294  0.577143938857837  1.0000
  C   C15       1.0  0.4601042456766323  0.5693099485301332  0.030250747030279985  1.0000
  C   C16       1.0  0.5398951271041952  0.43069132844559027  0.9697500079947258  1.0000
  C   C17       1.0  0.5398435205300843  0.9697245258553479  0.43067773479880594  1.0000
  C   C18       1.0  0.4601565472215867  0.030273027674788  0.5693199186489577  1.0000
  C   C19       1.0  0.5415644180942819  0.5673546358797381  0.9695862210567865  1.0000
  C   C20       1.0  0.4584363041552777  0.4326460182105407  0.03041701187871129  1.0000
  C   C21       1.0  0.45839553348034207  0.0304073824307096  0.4326600284547764  1.0000
  C   C22       1.0  0.5416031875821616  0.9695901733581566  0.567335147744579  1.0000
  C   C23       1.0  0.49795328541905093  0.49917246278778293  0.7509987431212577  1.0000
  C   C24       1.0  0.5020528606702185  0.5008232215861456  0.24900137158271451  1.0000
  C   C25       1.0  0.5020806898942923  0.24900807564537078  0.5007752402658807  1.0000
  C   C26       1.0  0.49791869061493804  0.7509925821477382  0.4992211712472709  1.0000
  C   C27       1.0  0.4101395781496607  0.5023618608072624  0.976933319173497  1.0000
  C   C28       1.0  0.5898584513318853  0.4976375551029193  0.023069304763289694  1.0000
  C   C29       1.0  0.5898731415040998  0.023046038836149297  0.4975841555024229  1.0000
  C   C30       1.0  0.4101269192744752  0.9769527555348317  0.50241473781373  1.0000
  C   C31       1.0  0.4933964473001637  0.49925569210407167  0.9141420711391389  1.0000
  C   C32       1.0  0.5066029359403074  0.5007437236103983  0.08585682408328667  1.0000
  C   C33       1.0  0.5066226434062812  0.08585746888167022  0.5007237756030847  1.0000
  C   C34       1.0  0.49337674195511744  0.9141419474516964  0.49927325783050236  1.0000
  C   C35       1.0  0.9692895829922678  0.5563510572478093  0.5564653063396533  1.0000
  C   C36       1.0  0.030710464498753302  0.44364959755922945  0.4435379291641936  1.0000
  C   C37       1.0  0.9079073919713212  0.49994293604532913  0.49994917724077914  1.0000
  C   C38       1.0  0.092092658299272  0.5000570981349882  0.5000540589251512  1.0000
  C   C39       1.0  0.687335539627668  0.4957378666899786  0.04147689483603049  1.0000
  C   C40       1.0  0.7484556133125649  0.48661434857186253  0.9749733983090533  1.0000
  C   C41       1.0  0.8410852175514022  0.485655265434545  0.9891504640242059  1.0000
  C   C42       1.0  0.8741124080809969  0.49362319192178455  0.06988689954076929  1.0000
  C   C43       1.0  0.8137713735923456  0.5029659458105511  0.13607993898538237  1.0000
  C   C44       1.0  0.7207970448093591  0.5042858802259643  0.12219547357283025  1.0000
  C   C45       1.0  0.312662483636089  0.5042634117192718  0.9585238653256807  1.0000
  C   C46       1.0  0.25154376432042375  0.513385686944119  0.02502797863640179  1.0000
  C   C47       1.0  0.15891483276752888  0.514345390197697  0.010850289094534596  1.0000
  C   C48       1.0  0.12588764011700704  0.5063774630915531  0.9301157153668027  1.0000
  C   C49       1.0  0.1862259797650481  0.497034091855717  0.8639214456651132  1.0000
  C   C50       1.0  0.2792030041439517  0.4957153964455969  0.8778040376912697  1.0000
  C   C51       1.0  0.31264593581450845  0.9585736096703528  0.5043616420656533  1.0000
  C   C52       1.0  0.2515371896076033  0.025098611120718303  0.5134106392729761  1.0000
  C   C53       1.0  0.1589046478874891  0.0109280090823418  0.5144973413327705  1.0000
  C   C54       1.0  0.12587965318950012  0.930152011025065  0.5067413007563459  1.0000
  C   C55       1.0  0.18621141187210102  0.8639554359117696  0.49746309601782446  1.0000
  C   C56       1.0  0.2791689158467179  0.8778304017333695  0.4959981563327032  1.0000
  C   C57       1.0  0.6873547976983332  0.0414264262688206  0.4956341443766019  1.0000
  C   C58       1.0  0.7484635445155446  0.9749001821208978  0.4865894926673774  1.0000
  C   C59       1.0  0.8410920328323073  0.9890720299195906  0.4855021840972497  1.0000
  C   C60       1.0  0.8741190525612054  0.069848647484811  0.493255113325155  1.0000
  C   C61       1.0  0.8137879749032494  0.1360439808342022  0.5025326962232128  1.0000
  C   C62       1.0  0.7208304618829474  0.12217087668646089  0.5039982545183647  1.0000
  N   N1        1.0  0.7340455272583881  0.49966246952725857  0.49966194823555543  1.0000
  N   N2        1.0  0.2659558669218001  0.5003381830210503  0.5003437645167068  1.0000
  Cl  Cl1       1.0  0.5951448717920371  0.6544816064612179  0.9305217974270403  1.0000
  Cl  Cl2       1.0  0.4048545072549032  0.3455184294673684  0.06947833832585808  1.0000
  Cl  Cl3       1.0  0.40475398890509956  0.0694717522363533  0.34556091546190254  1.0000
  Cl  Cl4       1.0  0.5952427029813095  0.9305264257106104  0.654436129569248  1.0000
  O   O1        1.0  0.4226778245394129  0.6259865862803694  0.49910508208336063  1.0000
  O   O2        1.0  0.5773289867007206  0.3740128232001324  0.5008888201169909  1.0000
  O   O3        1.0  0.5773161305409716  0.5009180711062627  0.37400071421449593  1.0000
  O   O4        1.0  0.42269135319176593  0.4990794726827942  0.6260024963479152  1.0000
  O   O5        1.0  0.5767763519888831  0.6267234072640306  0.5004171933368226  1.0000
  O   O6        1.0  0.42322708465493974  0.3732747626901158  0.49958230839593626  1.0000
  O   O7        1.0  0.4232168862614786  0.4995889797307667  0.3732769495352598  1.0000
  O   O8        1.0  0.5767872445978812  0.5004048451195755  0.626722554263729  1.0000
