data_image0
_chemical_formula_structural       H16Pb2C14S2O16
_chemical_formula_sum              "H16 Pb2 C14 S2 O16"
_cell_length_a       7.415940195457008
_cell_length_b       8.681036123654483
_cell_length_c       9.950844288285142
_cell_angle_alpha    72.9611119727815
_cell_angle_beta     77.81374343972287
_cell_angle_gamma    79.27118978578088

_space_group_name_H-M_alt    "P 1"
_space_group_IT_number       1

loop_
  _space_group_symop_operation_xyz
  'x, y, z'

loop_
  _atom_site_type_symbol
  _atom_site_label
  _atom_site_symmetry_multiplicity
  _atom_site_fract_x
  _atom_site_fract_y
  _atom_site_fract_z
  _atom_site_occupancy
  H   H1        1.0  0.6128243553751318  0.6530214997739777  0.10595963789391048  1.0000
  H   H2        1.0  0.387196891618494  0.346958975062769  0.8940563523622133  1.0000
  H   H3        1.0  0.4902720166679656  0.5136261531911259  0.19438065540416727  1.0000
  H   H4        1.0  0.5097334483794214  0.48636632760643284  0.8056327010348384  1.0000
  H   H5        1.0  0.007769002108808752  0.6724671431650152  0.9576353672698089  1.0000
  H   H6        1.0  0.9922236500701871  0.3275262142828979  0.04237193163078953  1.0000
  H   H7        1.0  0.07875647752508287  0.5521975144540934  0.09919770625873525  1.0000
  H   H8        1.0  0.9212325310643551  0.44780055389490775  0.9008048816180788  1.0000
  H   H9        1.0  0.4847833613830375  0.21899012404023208  0.7368580239828405  1.0000
  H   H10       1.0  0.5152113127070167  0.7809982132621017  0.2631453051787885  1.0000
  H   H11       1.0  0.5505456094336622  0.2872707301756491  0.4896970799944286  1.0000
  H   H12       1.0  0.449455201979191  0.7127225403623926  0.5103047986099583  1.0000
  H   H13       1.0  0.7470947600435452  0.2064390633609818  0.28084367803789684  1.0000
  H   H14       1.0  0.2529046017745529  0.7935810562999424  0.7191539252257614  1.0000
  H   H15       1.0  0.9132046744427952  0.7360281024716144  0.5504142554939833  1.0000
  H   H16       1.0  0.0867978478580156  0.263968259836858  0.4495693609310151  1.0000
  Pb  Pb1       1.0  0.25325313829542745  0.8665854317021484  0.03753718276745125  1.0000
  Pb  Pb2       1.0  0.7467422697393788  0.1334079414281462  0.9624696313188394  1.0000
  C   C1        1.0  0.7178219839528949  0.8996106823209901  0.6545665754700281  1.0000
  C   C2        1.0  0.2821674930135813  0.1003906374035211  0.345422949951157  1.0000
  C   C3        1.0  0.6147674580891334  0.0561944894217348  0.6378685296014055  1.0000
  C   C4        1.0  0.38523062542323316  0.9438157930080423  0.36212904405618923  1.0000
  C   C5        1.0  0.6284415661213032  0.16567551020883536  0.5020514966644711  1.0000
  C   C6        1.0  0.3715601470029526  0.8343215475327952  0.4979531828974544  1.0000
  C   C7        1.0  0.7381849485688078  0.1199650484913803  0.38544895660475487  1.0000
  C   C8        1.0  0.261798812175428  0.880057348208169  0.6145487152185396  1.0000
  C   C9        1.0  0.839547291804088  0.96380148383583  0.4014228828484007  1.0000
  C   C10       1.0  0.1604542080981446  0.036206718898640106  0.5985847356205198  1.0000
  C   C11       1.0  0.8297789757761364  0.8551267067054482  0.5368322685116382  1.0000
  C   C12       1.0  0.17021241821297653  0.1448808718233394  0.4631601919308537  1.0000
  C   C13       1.0  0.9652163750839052  0.9168460254858033  0.2783525029043119  1.0000
  C   C14       1.0  0.03475920373738721  0.0831579809895828  0.7216487462292349  1.0000
  S   S1        1.0  0.706681403997372  0.7511387721523589  0.8211403453318483  1.0000
  S   S2        1.0  0.2933132544137181  0.24886362662576283  0.17884294564791503  1.0000
  O   O1        1.0  0.5468861802871529  0.6649548728950804  0.8359361915668942  1.0000
  O   O2        1.0  0.4531098044582791  0.33504188556774045  0.16406152591706297  1.0000
  O   O3        1.0  0.5193865273495247  0.6216530065557963  0.191376345039238  1.0000
  O   O4        1.0  0.4806492136240337  0.3783255182936854  0.8086497336976208  1.0000
  O   O5        1.0  0.8880294632243563  0.646049130202492  0.8140112822847243  1.0000
  O   O6        1.0  0.11196468574863871  0.35394146992381087  0.1859864745678905  1.0000
  O   O7        1.0  0.05438104631285507  0.6676568228613959  0.044515503209588296  1.0000
  O   O8        1.0  0.9456215467056522  0.3323425390346556  0.955484353099493  1.0000
  O   O9        1.0  0.6782864206298599  0.8324698578004899  0.9367323269660943  1.0000
  O   O10       1.0  0.32171629652098943  0.16752528937285394  0.0632515969551051  1.0000
  O   O11       1.0  0.5062273191905433  0.09857517459990818  0.7526880515137294  1.0000
  O   O12       1.0  0.49377099064957963  0.9014154825392283  0.24730996958074766  1.0000
  O   O13       1.0  0.08580871960508316  0.7917480856038284  0.29761710916062606  1.0000
  O   O14       1.0  0.9142126672424168  0.2082706764670021  0.702368991378208  1.0000
  O   O15       1.0  0.9557635601154929  0.011663165945670101  0.1512423800961855  1.0000
  O   O16       1.0  0.044265725544612236  0.9883425624068635  0.8487550564421369  1.0000
