data_image0
_chemical_formula_structural       Ag4H32C40S4N4O12
_chemical_formula_sum              "Ag4 H32 C40 S4 N4 O12"
_cell_length_a       7.132254981106878
_cell_length_b       11.954750154845186
_cell_length_c       13.147977038303491
_cell_angle_alpha    72.6052157429499
_cell_angle_beta     74.26578298211264
_cell_angle_gamma    72.52529453930586

_space_group_name_H-M_alt    "P 1"
_space_group_IT_number       1

loop_
  _space_group_symop_operation_xyz
  'x, y, z'

loop_
  _atom_site_type_symbol
  _atom_site_label
  _atom_site_symmetry_multiplicity
  _atom_site_fract_x
  _atom_site_fract_y
  _atom_site_fract_z
  _atom_site_occupancy
  Ag  Ag1       1.0  0.8364650767724554  0.9103813892386585  0.9270364466221609  1.0000
  Ag  Ag2       1.0  0.6742023823048555  0.5894552443710878  0.5732312205350922  1.0000
  Ag  Ag3       1.0  0.16353308369238562  0.0896310571799006  0.0729564143826309  1.0000
  Ag  Ag4       1.0  0.3258066680706337  0.41054274641550864  0.42676401749147885  1.0000
  H   H1        1.0  0.8403379700906584  0.14178067788353838  0.25232943238856365  1.0000
  H   H2        1.0  0.2346410472772362  0.35798252025571026  0.24735741310517773  1.0000
  H   H3        1.0  0.15965343805191903  0.8582255990831913  0.7476766213414691  1.0000
  H   H4        1.0  0.7653616713172936  0.6420272775998656  0.7526411681662921  1.0000
  H   H5        1.0  0.07965961222119951  0.1103592800768922  0.49496747988492734  1.0000
  H   H6        1.0  0.6839644526612363  0.38968237782349757  0.005279918081520026  1.0000
  H   H7        1.0  0.9203370164359435  0.8896270167806649  0.5050326813913415  1.0000
  H   H8        1.0  0.31604068286347364  0.6103057810708705  0.9947250926444368  1.0000
  H   H9        1.0  0.058508187157258286  0.006451223822637101  0.3623940322426904  1.0000
  H   H10       1.0  0.4260015148565728  0.4934711483211985  0.1380238718434796  1.0000
  H   H11       1.0  0.9414911575860643  0.9935395818236825  0.6376050353700367  1.0000
  H   H12       1.0  0.5740137052444181  0.5065160897978273  0.8619804095912685  1.0000
  H   H13       1.0  0.27437249819693227  0.1927734907617449  0.5685425112350515  1.0000
  H   H14       1.0  0.03501092972480554  0.30760284464530224  0.931209464604386  1.0000
  H   H15       1.0  0.7255937075908889  0.8072147408068491  0.4314662217155387  1.0000
  H   H16       1.0  0.9649992790541833  0.6923996742865485  0.06878619151563481  1.0000
  H   H17       1.0  0.8539045375348593  0.24772980756142  0.3824958034244902  1.0000
  H   H18       1.0  0.4846982613622687  0.2521827515141197  0.11694831804864242  1.0000
  H   H19       1.0  0.14606882139252528  0.7522747773316782  0.6175189193300382  1.0000
  H   H20       1.0  0.515305235764572  0.7478207147936687  0.8830504705058217  1.0000
  H   H21       1.0  0.5852214737308475  0.261218524971504  0.5485071263758101  1.0000
  H   H22       1.0  0.39493889325168424  0.23898868243431076  0.9509084758211017  1.0000
  H   H23       1.0  0.41474265309175024  0.73876980094537  0.4515093008675208  1.0000
  H   H24       1.0  0.6050718710059756  0.7610147620828583  0.04908893648409674  1.0000
  H   H25       1.0  0.21942818974042674  0.8990315755876211  0.23509095120074622  1.0000
  H   H26       1.0  0.3522902860347871  0.6013608178807104  0.2650413624937613  1.0000
  H   H27       1.0  0.7805748936281275  0.10096635231955282  0.7648987246608598  1.0000
  H   H28       1.0  0.6477190890626474  0.39863082986882153  0.7349531040907423  1.0000
  H   H29       1.0  0.46297336931363714  0.898458184354084  0.163659806050255  1.0000
  H   H30       1.0  0.5240295604268109  0.6015635289794973  0.33643300556295225  1.0000
  H   H31       1.0  0.5370319291936029  0.1015478857475358  0.8363299285381415  1.0000
  H   H32       1.0  0.47596560605801125  0.39844078492286167  0.6635605525935518  1.0000
  C   C1        1.0  0.5495945673571754  0.10331522969914182  0.3340850850340971  1.0000
  C   C2        1.0  0.9866346567005593  0.3966497763730246  0.16578308420045576  1.0000
  C   C3        1.0  0.45040181822029285  0.8966810877471972  0.6659206921282532  1.0000
  C   C4        1.0  0.013375477830222917  0.6033572688930491  0.834212767166463  1.0000
  C   C5        1.0  0.7165846925254441  0.151573115126908  0.3213305734928369  1.0000
  C   C6        1.0  0.18959267845925606  0.34838760374751854  0.1783056440136619  1.0000
  C   C7        1.0  0.2834117746943007  0.8484268798711625  0.6786800481135273  1.0000
  C   C8        1.0  0.8104171784867022  0.6516221396606666  0.8216888476799228  1.0000
  C   C9        1.0  0.5404444190084804  0.0326327257313963  0.2651188321522255  1.0000
  C   C10       1.0  0.8375717600291709  0.46734030297473345  0.234841275121326  1.0000
  C   C11       1.0  0.4595522919089847  0.9673698924169899  0.734884247245077  1.0000
  C   C12       1.0  0.16243374828168566  0.5326568335962847  0.7651579435626914  1.0000
  C   C13       1.0  0.36166771395244257  0.001579419875213301  0.273886589104805  1.0000
  C   C14       1.0  0.636226552490605  0.4985191051487874  0.2261666472922245  1.0000
  C   C15       1.0  0.6383287122951554  0.9984240143988927  0.7261091277667547  1.0000
  C   C16       1.0  0.3637818277968989  0.5014816914285021  0.7738361269253674  1.0000
  C   C17       1.0  0.20705340780435214  0.09017003055789981  0.42986052940474906  1.0000
  C   C18       1.0  0.7261841601075859  0.40984218630249103  0.07031808898194214  1.0000
  C   C19       1.0  0.7929308203965991  0.9098270963931582  0.5701366354913447  1.0000
  C   C20       1.0  0.2738239693971497  0.5901541051080841  0.9296862245923095  1.0000
  C   C21       1.0  0.19571822755965934  0.03181837142157921  0.35742791646281086  1.0000
  C   C22       1.0  0.583888294479948  0.4681944355468418  0.14279728781262693  1.0000
  C   C23       1.0  0.8042774669837272  0.9681814276358267  0.6425664251718575  1.0000
  C   C24       1.0  0.41614633626732483  0.5317945291136255  0.8572012607728041  1.0000
  C   C25       1.0  0.38222809590397594  0.12800451063592533  0.4204146017998767  1.0000
  C   C26       1.0  0.9301050826820473  0.3720144136838428  0.07954402660485022  1.0000
  C   C27       1.0  0.6177559360453984  0.871992670139413  0.5795870110283943  1.0000
  C   C28       1.0  0.06991418135813601  0.6279890108537458  0.9204522322976275  1.0000
  C   C29       1.0  0.3941809329428594  0.18736603656295617  0.49671738365238133  1.0000
  C   C30       1.0  0.07792389783184461  0.31278499403323684  0.0030219983025503044  1.0000
  C   C31       1.0  0.6057963870453448  0.812625769718764  0.5032883247718374  1.0000
  C   C32       1.0  0.9220915259147939  0.6872103941474494  0.9969828748909395  1.0000
  C   C33       1.0  0.7242740517766606  0.2120502141632272  0.3937810573036701  1.0000
  C   C34       1.0  0.3304220589303455  0.2880476449003879  0.10567340312449151  1.0000
  C   C35       1.0  0.2757063231897518  0.7879435219029888  0.6062347917197357  1.0000
  C   C36       1.0  0.6695876485921273  0.7119521855675829  0.8943243685473661  1.0000
  C   C37       1.0  0.5658341052352682  0.22740547501079791  0.4845894462195873  1.0000
  C   C38       1.0  0.27789503715207786  0.2728979419027837  0.014864237340738414  1.0000
  C   C39       1.0  0.4341378441968258  0.7725837547007832  0.5154273609596487  1.0000
  C   C40       1.0  0.7221217138295228  0.7270964801685907  0.9851356333070102  1.0000
  S   S1        1.0  0.7684002210686744  0.9779155341215002  0.1772028814804757  1.0000
  S   S2        1.0  0.9228546765362391  0.5219094458276246  0.3227680479574317  1.0000
  S   S3        1.0  0.23160249752585557  0.022094263734075505  0.8227956997909943  1.0000
  S   S4        1.0  0.07714748627058994  0.4780931045730767  0.6772297402903648  1.0000
  N   N1        1.0  0.3300058735084549  0.945257623092445  0.20178866632993223  1.0000
  N   N2        1.0  0.475988862880726  0.5548953686787004  0.2983412525491076  1.0000
  N   N3        1.0  0.6700000547256622  0.054744846260277306  0.7982026291967443  1.0000
  N   N4        1.0  0.5240248405167375  0.44510532749412607  0.7016535171903584  1.0000
  O   O1        1.0  0.7246269517480357  0.895378252327376  0.12700836243914884  1.0000
  O   O2        1.0  0.7460840753971498  0.6045134673192792  0.3730389001479538  1.0000
  O   O3        1.0  0.2753838331537181  0.1046350724732292  0.8729830565591571  1.0000
  O   O4        1.0  0.2539172272350996  0.3954917370774923  0.6269538363728344  1.0000
  O   O5        1.0  0.8218454396323125  0.08477562905177652  0.09396373036187097  1.0000
  O   O6        1.0  0.0004872538120893621  0.41494092441683966  0.40597885821191687  1.0000
  O   O7        1.0  0.17814068637945  0.9152441870167394  0.9060393043939925  1.0000
  O   O8        1.0  0.9995114685984204  0.585061685864332  0.5940236881534418  1.0000
  O   O9        1.0  0.915777938501684  0.916405903787087  0.24710783340646716  1.0000
  O   O10       1.0  0.07842411026567234  0.5832720537196676  0.252890560802662  1.0000
  O   O11       1.0  0.08422874885675907  0.083605641212614  0.7528858100641075  1.0000
  O   O12       1.0  0.9215810862642325  0.4167267804163401  0.7470993594871161  1.0000
