data_image0
_chemical_formula_structural       Dy2H20C14O22
_chemical_formula_sum              "Dy2 H20 C14 O22"
_cell_length_a       8.543433506179962
_cell_length_b       8.848484265398062
_cell_length_c       9.724500228797007
_cell_angle_alpha    96.79242661350621
_cell_angle_beta     112.57924382256587
_cell_angle_gamma    110.15763408364764

_space_group_name_H-M_alt    "P 1"
_space_group_IT_number       1

loop_
  _space_group_symop_operation_xyz
  'x, y, z'

loop_
  _atom_site_type_symbol
  _atom_site_label
  _atom_site_symmetry_multiplicity
  _atom_site_fract_x
  _atom_site_fract_y
  _atom_site_fract_z
  _atom_site_occupancy
  Dy  Dy1       1.0  0.28835195074148606  0.5527668478065666  0.36741267773395964  1.0000
  Dy  Dy2       1.0  0.7116515465670402  0.4472330809030964  0.6325916442887164  1.0000
  H   H1        1.0  0.6183442158602332  0.5925482423987702  0.30336758368247974  1.0000
  H   H2        1.0  0.38165626943488457  0.4074479437420422  0.6966322024398011  1.0000
  H   H3        1.0  0.46307895963493445  0.8776400554009954  0.5622860168591616  1.0000
  H   H4        1.0  0.5369245430119278  0.12235990223607732  0.43771625356367144  1.0000
  H   H5        1.0  0.2735010724054093  0.8768924053144219  0.4527999972038402  1.0000
  H   H6        1.0  0.7265004614188796  0.12310876786296632  0.5472027865447942  1.0000
  H   H7        1.0  0.15321021299475032  0.4171550157801463  0.8381287815421674  1.0000
  H   H8        1.0  0.8467906474290671  0.5828475023540279  0.16186673712189062  1.0000
  H   H9        1.0  0.9420260744269913  0.26734001859406936  0.11350199322064489  1.0000
  H   H10       1.0  0.057977208018648696  0.7326649413001434  0.8865007952396979  1.0000
  H   H11       1.0  0.22073184801445936  0.22590031036026662  0.003859577595953629  1.0000
  H   H12       1.0  0.7792664642718921  0.7741021803602238  0.9961350850901028  1.0000
  H   H13       1.0  0.4312452296622666  0.6035295711163827  0.8944713473167738  1.0000
  H   H14       1.0  0.5687529485009436  0.3964752905593586  0.10553280658731981  1.0000
  H   H15       1.0  0.5898640146851548  0.781757134768121  0.14943511463764034  1.0000
  H   H16       1.0  0.4101319509807695  0.21824022503562904  0.8505653546323516  1.0000
  H   H17       1.0  0.979236825186831  0.06098634299429761  0.23019688284803408  1.0000
  H   H18       1.0  0.02076843675806117  0.939017459214405  0.7698012890868356  1.0000
  H   H19       1.0  0.1260273162444108  0.9316480670927093  0.10756083955590162  1.0000
  H   H20       1.0  0.8739804965071158  0.06835577699337142  0.8924371625570445  1.0000
  C   C1        1.0  0.062415362093737804  0.4772233734799515  0.5690108948089972  1.0000
  C   C2        1.0  0.9375721388393642  0.5227639581801427  0.43098041346336663  1.0000
  C   C3        1.0  0.29653263521192497  0.7028892370094726  0.08702126530265991  1.0000
  C   C4        1.0  0.7034657444683178  0.29711052116321207  0.9129895511633707  1.0000
  C   C5        1.0  0.42656892402528973  0.5351076623599696  0.9815906108011418  1.0000
  C   C6        1.0  0.573426821439412  0.46489469970092057  0.018410376506352636  1.0000
  C   C7        1.0  0.27919827465083097  0.18252907973284493  0.35217144598564704  1.0000
  C   C8        1.0  0.7208051285721028  0.8174734368876105  0.6478269802562553  1.0000
  C   C9        1.0  0.4680445029245562  0.6657831503466413  0.12525025066722154  1.0000
  C   C10       1.0  0.5319532006860326  0.3342179383191208  0.8747543265141645  1.0000
  C   C11       1.0  0.0965486039884809  0.14050025536539582  0.21150640059899226  1.0000
  C   C12       1.0  0.9034593108561425  0.8595010442010109  0.788494419894967  1.0000
  C   C13       1.0  0.0964230444929299  0.036253634451057316  0.0714996451098244  1.0000
  C   C14       1.0  0.903578615446989  0.9637451243799832  0.9284967248205263  1.0000
  O   O1        1.0  0.2018594440303687  0.460923653078993  0.5627399657528258  1.0000
  O   O2        1.0  0.7981308385872695  0.5390587760561588  0.4372465514604329  1.0000
  O   O3        1.0  0.4998752979837776  0.6061270348177602  0.2602766588957409  1.0000
  O   O4        1.0  0.5001249617717888  0.39387412465279686  0.739725696863893  1.0000
  O   O5        1.0  0.2480542019342096  0.7568533156872236  0.9709417632029657  1.0000
  O   O6        1.0  0.7519445448672075  0.24315273108771157  0.029067863204609665  1.0000
  O   O7        1.0  0.014549134426616173  0.459513717288118  0.6759607239126525  1.0000
  O   O8        1.0  0.9854506747988622  0.5404837993457716  0.324032822924977  1.0000
  O   O9        1.0  0.39817476128327206  0.3395979562646474  0.41583447938771917  1.0000
  O   O10       1.0  0.6018274726331968  0.6604020165929897  0.5841653114462774  1.0000
  O   O11       1.0  0.3120187615797079  0.0648063917006425  0.396945054065192  1.0000
  O   O12       1.0  0.6879827802520923  0.9351948248678569  0.6030546522836745  1.0000
  O   O13       1.0  0.32491588656660764  0.8077721410476787  0.5121206148229336  1.0000
  O   O14       1.0  0.6750844886279026  0.19222654622170413  0.48787943031809533  1.0000
  O   O15       1.0  0.21244073827203647  0.6711988261312528  0.17143851371925226  1.0000
  O   O16       1.0  0.787558805376321  0.32880344687684027  0.8285729897545339  1.0000
  O   O17       1.0  0.2475149203300617  0.396600845687253  0.9227028975601572  1.0000
  O   O18       1.0  0.752480833142151  0.6034015597647481  0.07729501234757663  1.0000
  O   O19       1.0  0.08192185163945002  0.29211557313338693  0.18863253150112771  1.0000
  O   O20       1.0  0.9180897833182653  0.7078883120732229  0.8113667545788276  1.0000
  O   O21       1.0  0.242505291007781  0.1311977097996149  0.03936633394960859  1.0000
  O   O22       1.0  0.7574924419636845  0.8688035379668764  0.9606269594326452  1.0000
