data_image0
_chemical_formula_structural       Ag2H24C14S4O4F4
_chemical_formula_sum              "Ag2 H24 C14 S4 O4 F4"
_cell_length_a       7.510052104943959
_cell_length_b       8.24778261896663
_cell_length_c       10.040449929095184
_cell_angle_alpha    112.13717474334528
_cell_angle_beta     107.32426455944743
_cell_angle_gamma    94.0835278323216

_space_group_name_H-M_alt    "P 1"
_space_group_IT_number       1

loop_
  _space_group_symop_operation_xyz
  'x, y, z'

loop_
  _atom_site_type_symbol
  _atom_site_label
  _atom_site_symmetry_multiplicity
  _atom_site_fract_x
  _atom_site_fract_y
  _atom_site_fract_z
  _atom_site_occupancy
  Ag  Ag1       1.0  0.5851216782444697  0.7009185117697927  0.5326861731927366  1.0000
  Ag  Ag2       1.0  0.4148738099219643  0.299078068049191  0.46731082973628457  1.0000
  H   H1        1.0  0.2155069256793426  0.9006150865087293  0.6342309727426568  1.0000
  H   H2        1.0  0.7844911371967812  0.09938685399341553  0.36576628203327743  1.0000
  H   H3        1.0  0.21085768074161856  0.7238605710180792  0.6978710530933441  1.0000
  H   H4        1.0  0.7891370638909478  0.27614536114591454  0.3021316811527228  1.0000
  H   H5        1.0  5.8636879394736805e-05  0.7321048725295114  0.5604558377253284  1.0000
  H   H6        1.0  0.9999386152051174  0.2678997387060846  0.43954306257393233  1.0000
  H   H7        1.0  0.0599332464012505  0.8126260803883554  0.0782130725469585  1.0000
  H   H8        1.0  0.9400672384238719  0.18736783503290166  0.9217832232197125  1.0000
  H   H9        1.0  0.956598283242599  0.9296849100920355  0.21366148103877688  1.0000
  H   H10       1.0  0.0434002165831728  0.07030632393168192  0.7863345324109403  1.0000
  H   H11       1.0  0.27159817364996297  0.9668304027990544  0.9796867105157928  1.0000
  H   H12       1.0  0.7284012740893574  0.033171526934467  0.020314834607852106  1.0000
  H   H13       1.0  0.43935536299946426  0.17231522177301173  0.11083700327839811  1.0000
  H   H14       1.0  0.5606390932940785  0.827689378798503  0.8891632602272351  1.0000
  H   H15       1.0  0.4522470168001931  0.9759960852393305  0.14854560033826658  1.0000
  H   H16       1.0  0.547756915571057  0.024007195302928604  0.8514553763260794  1.0000
  H   H17       1.0  0.12791896140297612  0.5641965503639668  0.19190637471004382  1.0000
  H   H18       1.0  0.8720818013353411  0.43579868376923514  0.8080963693577843  1.0000
  H   H19       1.0  0.9728306602507147  0.6690965525286073  0.2844687760616651  1.0000
  H   H20       1.0  0.027170112913431396  0.3308986944851283  0.7155299904454395  1.0000
  H   H21       1.0  0.23928041850081172  0.9571381198734769  0.43075756476520155  1.0000
  H   H22       1.0  0.7607186736417406  0.04285579665599929  0.5692374238243048  1.0000
  H   H23       1.0  0.35905341484782843  0.8483973858418209  0.3051047912790139  1.0000
  H   H24       1.0  0.640945963027292  0.15159785906000417  0.6948936624410962  1.0000
  C   C1        1.0  0.6271564070364806  0.6350447827635437  0.2273736694029723  1.0000
  C   C2        1.0  0.37284430147638403  0.36494378585876314  0.7726200169202356  1.0000
  C   C3        1.0  0.6048694342659361  0.5269244528044723  0.05581259571550128  1.0000
  C   C4        1.0  0.39513846028465593  0.473084180872462  0.9441919287532913  1.0000
  C   C5        1.0  0.156496828171612  0.7599493179401267  0.6008516956092436  1.0000
  C   C6        1.0  0.8434970436245168  0.24005260978602652  0.39914660958606873  1.0000
  C   C7        1.0  0.09310859894694808  0.9118976593303573  0.19675683248009787  1.0000
  C   C8        1.0  0.9068904905891488  0.0880962539789891  0.8032391504995787  1.0000
  C   C9        1.0  0.35706652913358294  0.05039482546868611  0.10059632876356524  1.0000
  C   C10       1.0  0.6429346048402422  0.9496084411893547  0.8994070054973307  1.0000
  C   C11       1.0  0.12281244110868536  0.6733073904674003  0.294886248229858  1.0000
  C   C12       1.0  0.8771849517670773  0.3266851730368927  0.7051119231732983  1.0000
  C   C13       1.0  0.21764181316508066  0.8552197830561992  0.31513444017333103  1.0000
  C   C14       1.0  0.7823617479706683  0.1447754649612207  0.6848659462979398  1.0000
  S   S1        1.0  0.19718115698687202  0.1226122534903951  0.20464875103127864  1.0000
  S   S2        1.0  0.8028185118337279  0.8773843262240464  0.7953511790390807  1.0000
  S   S3        1.0  0.22917532721324113  0.6111602120797314  0.4511421080941886  1.0000
  S   S4        1.0  0.7708207402376958  0.38883903414434673  0.5488588419255152  1.0000
  O   O1        1.0  0.659338918603048  0.8019413557975028  0.2778750628646804  1.0000
  O   O2        1.0  0.34066462843755124  0.1980792935139419  0.7221372072606798  1.0000
  O   O3        1.0  0.6037017021117422  0.5362872760467142  0.29452738490354596  1.0000
  O   O4        1.0  0.39629686236531125  0.4637106363684397  0.705473708730068  1.0000
  F   F1        1.0  0.7103616741374523  0.6236520013129336  0.00864019726882499  1.0000
  F   F2        1.0  0.2896421044102554  0.376363310859972  0.9913664802425259  1.0000
  F   F3        1.0  0.6744030943296553  0.371552685239692  0.03661893200255413  1.0000
  F   F4        1.0  0.3256129612996404  0.6284613240083061  0.9633851066807751  1.0000
