data_image0
_chemical_formula_structural       Cd2H32C40N12O8
_chemical_formula_sum              "Cd2 H32 C40 N12 O8"
_cell_length_a       7.728592374837915
_cell_length_b       10.096114027213908
_cell_length_c       12.447842697256416
_cell_angle_alpha    90.53964311415848
_cell_angle_beta     105.4235889176313
_cell_angle_gamma    93.04099376371268

_space_group_name_H-M_alt    "P 1"
_space_group_IT_number       1

loop_
  _space_group_symop_operation_xyz
  'x, y, z'

loop_
  _atom_site_type_symbol
  _atom_site_label
  _atom_site_symmetry_multiplicity
  _atom_site_fract_x
  _atom_site_fract_y
  _atom_site_fract_z
  _atom_site_occupancy
  Cd  Cd1       1.0  0.8069831101904655  0.9646284396572469  0.3722651488798263  1.0000
  Cd  Cd2       1.0  0.1930169761073373  0.03537081618460999  0.6277349011446914  1.0000
  H   H1        1.0  0.9466275463384264  0.0900325486405862  0.14333496134687346  1.0000
  H   H2        1.0  0.05337365216761471  0.9099637316137931  0.8566644453972002  1.0000
  H   H3        1.0  0.8211425265720749  0.9596568772306996  0.9341061105417907  1.0000
  H   H4        1.0  0.17885867126656052  0.040339403205578606  0.0658924927415327  1.0000
  H   H5        1.0  0.502802873823299  0.8318969719004271  0.14691844800483272  1.0000
  H   H6        1.0  0.49719207204961446  0.1681052576447257  0.8530799746485653  1.0000
  H   H7        1.0  0.6103113789641695  0.7753727335903305  0.8642255575397256  1.0000
  H   H8        1.0  0.3896860220783438  0.2246265209347769  0.13577324653734016  1.0000
  H   H9        1.0  0.40314371888145933  0.8075797986482554  0.8910843709623391  1.0000
  H   H10       1.0  0.5968562909435775  0.19241846502070103  0.10891565870783641  1.0000
  H   H11       1.0  0.3057911342302546  0.5775502503255509  0.8225768544426515  1.0000
  H   H12       1.0  0.6942090298751395  0.42244999732540833  0.17742482285770927  1.0000
  H   H13       1.0  0.7304750899151884  0.65350165250711  0.1239923712469349  1.0000
  H   H14       1.0  0.2695238097038555  0.3464995862036204  0.8760107120859357  1.0000
  H   H15       1.0  0.7713574551990021  0.6175925819164264  0.4317794938762987  1.0000
  H   H16       1.0  0.22864404919809544  0.38240766702956824  0.5682199942851511  1.0000
  H   H17       1.0  0.1022073295477171  0.8269872232265385  0.2613959121603102  1.0000
  H   H18       1.0  0.8977942533243777  0.17301401734665936  0.7386060067377399  1.0000
  H   H19       1.0  0.9770463378868542  0.4369301642359389  0.3514809987992961  1.0000
  H   H20       1.0  0.022955242983002215  0.5630710768829632  0.6485185097164958  1.0000
  H   H21       1.0  0.25234593049740545  0.47709220595150015  0.2743886838200638  1.0000
  H   H22       1.0  0.7476569933338055  0.522909035734834  0.7256118493998257  1.0000
  H   H23       1.0  0.3047757484243193  0.6415807996164561  0.23686826179202564  1.0000
  H   H24       1.0  0.6952245659569486  0.3584214331079281  0.7631302423740037  1.0000
  H   H25       1.0  0.1176892372059939  0.7319782722101493  0.054600661075618  1.0000
  H   H26       1.0  0.8823081651713381  0.26802098195114604  0.9453997499229556  1.0000
  H   H27       1.0  0.05217648749369631  0.3242613761959845  0.1417560809879106  1.0000
  H   H28       1.0  0.9478238268875715  0.6757408565283995  0.8582424231781259  1.0000
  H   H29       1.0  0.3737030851902928  0.5498489744819324  0.4978240432470641  1.0000
  H   H30       1.0  0.626294392992392  0.4501512720341694  0.5021755846451015  1.0000
  H   H31       1.0  0.1576638979401964  0.7155288671863788  0.5305864162685126  1.0000
  H   H32       1.0  0.8423349225364305  0.2844713800790544  0.4694134328669931  1.0000
  C   C1        1.0  0.8362266354773097  0.0172297675575876  0.11210032348192558  1.0000
  C   C2        1.0  0.16377210785914545  0.9827694877168441  0.8878987018384876  1.0000
  C   C3        1.0  0.7802686012597777  0.9511956099082187  0.01073135294316786  1.0000
  C   C4        1.0  0.21972887558808202  0.04880463697168841  0.9892666680274897  1.0000
  C   C5        1.0  0.607123137277476  0.8850009986657668  0.11834907788487933  1.0000
  C   C6        1.0  0.3928742637650303  0.1149982558593337  0.8816497261921936  1.0000
  C   C7        1.0  0.5375279760365005  0.7726547541178945  0.929104200010343  1.0000
  C   C8        1.0  0.4624707672999478  0.2273445011565371  0.07089482531007722  1.0000
  C   C9        1.0  0.5208085762763517  0.6326608272419989  0.9688962829272896  1.0000
  C   C10       1.0  0.4791941946093345  0.3673384300985206  0.031104209583915614  1.0000
  C   C11       1.0  0.39262616859867455  0.5437833653519918  0.9004259066144229  1.0000
  C   C12       1.0  0.6073753364658286  0.456216883412104  0.09957438500777728  1.0000
  C   C13       1.0  0.6282197352859882  0.5873414806631347  0.0691558716182641  1.0000
  C   C14       1.0  0.3717777448989352  0.4126587653072562  0.9308461666561597  1.0000
  C   C15       1.0  0.8685281033840084  0.6334958104974647  0.3836375966616501  1.0000
  C   C16       1.0  0.13147347882067348  0.36650543025763227  0.6163635187756425  1.0000
  C   C17       1.0  0.0356422902326727  0.746705937997632  0.2963172528604757  1.0000
  C   C18       1.0  0.964360710071297  0.2532962958616096  0.7036833007137558  1.0000
  C   C19       1.0  0.9688993681410452  0.5438436259404823  0.3461379579393622  1.0000
  C   C20       1.0  0.031103555022752995  0.4561576159277508  0.6538617718197768  1.0000
  C   C21       1.0  0.19565805649030923  0.5651964700252066  0.23065438751260806  1.0000
  C   C22       1.0  0.8043435250469598  0.43480477091178943  0.7693459244639413  1.0000
  C   C23       1.0  0.09791479141264862  0.5309478546402033  0.11057927386310237  1.0000
  C   C24       1.0  0.902085372025333  0.469052393192655  0.8894215999765009  1.0000
  C   C25       1.0  0.0661767262518751  0.6299647891946237  0.030842714777577405  1.0000
  C   C26       1.0  0.9338247781452155  0.3700354597513781  0.9691567733838652  1.0000
  C   C27       1.0  0.03113219074743511  0.4007177959220059  0.0788518663099609  1.0000
  C   C28       1.0  0.9688680478284795  0.599283444447565  0.9211474209624768  1.0000
  C   C29       1.0  0.4220172392876194  0.6486126280009898  0.5333086877736477  1.0000
  C   C30       1.0  0.577981580521595  0.35138761944634206  0.46669035790110763  1.0000
  C   C31       1.0  0.30208841562183153  0.7389352449233755  0.5511711660240834  1.0000
  C   C32       1.0  0.6979116720107967  0.26106401055467643  0.44883049092193517  1.0000
  C   C33       1.0  0.5400187063681231  0.8905927680943575  0.6238189315620204  1.0000
  C   C34       1.0  0.4599826464182755  0.10940549614202412  0.3761821228122527  1.0000
  C   C35       1.0  0.6595238492588463  0.7994473091068669  0.6020787321920407  1.0000
  C   C36       1.0  0.3404762363715435  0.20055194691689593  0.3979205143717195  1.0000
  C   C37       1.0  0.8600042930296966  0.8341738666993095  0.6257265290017813  1.0000
  C   C38       1.0  0.13999437316658003  0.16582439658412082  0.37427167250353927  1.0000
  C   C39       1.0  0.6027380248294778  0.022233750917322898  0.6855899484381638  1.0000
  C   C40       1.0  0.3972648218615618  0.9777664987780101  0.3144097609666261  1.0000
  N   N1        1.0  0.7275377611297813  0.9748221920406833  0.17860236007670238  1.0000
  N   N2        1.0  0.2724610586794328  0.025178055406655596  0.821396685598053  1.0000
  N   N3        1.0  0.6355332312782807  0.8673186259890855  0.01628226180262974  1.0000
  N   N4        1.0  0.3644668543521092  0.13268063003467742  0.9837169847611307  1.0000
  N   N5        1.0  0.9116179722380338  0.7593170863798946  0.35205779410650706  1.0000
  N   N6        1.0  0.08838502940076151  0.240685147115535  0.6479443663892326  1.0000
  N   N7        1.0  0.0738925961315147  0.6175393312504127  0.2915812799828288  1.0000
  N   N8        1.0  0.926110404172455  0.3824629026088219  0.7084192735914028  1.0000
  N   N9        1.0  0.5996867391592744  0.6783785683077285  0.5581026587286287  1.0000
  N   N10       1.0  0.4003119277044149  0.3216196947937958  0.44189634623744206  1.0000
  N   N11       1.0  0.362729039188693  0.859170873196206  0.5960299250712566  1.0000
  N   N12       1.0  0.6372697819553466  0.1408293738873283  0.4039707275250066  1.0000
  O   O1        1.0  0.9022583822977666  0.9349333672601006  0.5723886111317282  1.0000
  O   O2        1.0  0.09774304629397791  0.06506588933108759  0.42761166013612945  1.0000
  O   O3        1.0  0.9673930025356087  0.7645725010738715  0.6904708865004918  1.0000
  O   O4        1.0  0.0326057414682523  0.23542675401865412  0.30952894228067857  1.0000
  O   O5        1.0  0.5020789568551508  0.11908949777345158  0.6581016056997697  1.0000
  O   O6        1.0  0.49792246906694265  0.8809097595453539  0.3418954517250796  1.0000
  O   O7        1.0  0.74739110510086  0.021332360580949207  0.7616032203119616  1.0000
  O   O8        1.0  0.2526077925159385  0.9786688786754922  0.23839745263864387  1.0000
