data_image0
_chemical_formula_structural       Zr6H35C64O36F5
_chemical_formula_sum              "Zr6 H35 C64 O36 F5"
_cell_length_a       14.849287959347691
_cell_length_b       14.863356777471875
_cell_length_c       14.833650567549162
_cell_angle_alpha    59.937448062914854
_cell_angle_beta     59.855115257184615
_cell_angle_gamma    59.833256248167274

_space_group_name_H-M_alt    "P 1"
_space_group_IT_number       1

loop_
  _space_group_symop_operation_xyz
  'x, y, z'

loop_
  _atom_site_type_symbol
  _atom_site_label
  _atom_site_symmetry_multiplicity
  _atom_site_fract_x
  _atom_site_fract_y
  _atom_site_fract_z
  _atom_site_occupancy
  Zr  Zr1       1.0  0.883032822746891  0.38052810791353403  0.6173308747329428  1.0000
  Zr  Zr2       1.0  0.12227057312995983  0.617850995232537  0.3784526252601524  1.0000
  Zr  Zr3       1.0  0.12136722672877205  0.38087763339107283  0.6196993752824084  1.0000
  Zr  Zr4       1.0  0.8841086810067655  0.6170926168905736  0.37971361545121596  1.0000
  Zr  Zr5       1.0  0.8832302575738711  0.6178887070094561  0.6187192019811079  1.0000
  Zr  Zr6       1.0  0.12344280889615802  0.37720285692694944  0.3821733717406843  1.0000
  H   H1        1.0  0.9080084653714877  0.4086461971398451  0.7813528834286458  1.0000
  H   H2        1.0  0.9098302088228112  0.779770394671516  0.4051373971790113  1.0000
  H   H3        1.0  0.2842363100294636  0.4050419335220425  0.407115350107695  1.0000
  H   H4        1.0  0.9100729504140405  0.40432059244678703  0.40484116042246415  1.0000
  H   H5        1.0  0.5521728441748337  0.3962777209407733  0.8760420919633702  1.0000
  H   H6        1.0  0.5771732832770269  0.7197790268219534  0.9192651789515054  1.0000
  H   H7        1.0  0.6622233723311907  0.6022727077818005  0.9968564043776168  1.0000
  H   H8        1.0  0.4935670238580629  0.5946569966557219  0.16916286179050388  1.0000
  H   H9        1.0  0.4093593291469802  0.7115942474074473  0.09048586004059431  1.0000
  H   H10       1.0  0.8789214679765606  0.06737626124507311  0.6576174843331302  1.0000
  H   H11       1.0  0.24518960184715877  0.059465953104940225  0.2938601023539889  1.0000
  H   H12       1.0  0.13828124950784124  0.13912832388978566  0.23454274029992206  1.0000
  H   H13       1.0  0.14013293554367554  0.9650457402467866  0.2416504036208948  1.0000
  H   H14       1.0  0.24251353806062084  0.8846414678609309  0.30688725880946777  1.0000
  H   H15       1.0  0.6103684286158215  0.9302289796357  0.6226568686292424  1.0000
  H   H16       1.0  0.5096087849487958  0.8478684307149891  0.377193998043566  1.0000
  H   H17       1.0  0.5882532232911191  0.935467487845841  0.2687721193983493  1.0000
  H   H18       1.0  0.413105199987278  0.10153477704280797  0.281042885574422  1.0000
  H   H19       1.0  0.3368523660061271  0.013494455419369413  0.39362676703737515  1.0000
  H   H20       1.0  0.157523931634735  0.3600240856087566  0.07655043249343413  1.0000
  H   H21       1.0  0.8594126152429665  0.7695723229258039  0.021540436897815454  1.0000
  H   H22       1.0  0.7693423222957279  0.6904135481940729  0.10473014754014541  1.0000
  H   H23       1.0  0.7718961044285703  0.6921673230876806  0.9324377222404581  1.0000
  H   H24       1.0  0.8649728920620491  0.7675946337406857  0.8493274088147158  1.0000
  H   H25       1.0  0.808573448279425  0.26541114659207204  0.9329344860931671  1.0000
  H   H26       1.0  0.6502807765022568  0.2682068272570604  0.105229107147025  1.0000
  H   H27       1.0  0.810907663713252  0.9272353464030303  0.26576810458039557  1.0000
  H   H28       1.0  0.6521573176840149  0.09798865607550773  0.27311707840690497  1.0000
  H   H29       1.0  0.5750173177693939  0.6587811202664114  0.3665652203974972  1.0000
  H   H30       1.0  0.536529105830546  0.33270468738328435  0.759394160327645  1.0000
  H   H31       1.0  0.6189272408710806  0.25383331847896784  0.6683925350267258  1.0000
  H   H32       1.0  0.44540955660730913  0.261601230755943  0.6675337200413551  1.0000
  H   H33       1.0  0.36346111777286444  0.342216956730887  0.7564646699441225  1.0000
  H   H34       1.0  0.10673382751085819  0.7280459657986141  0.9988587863390848  1.0000
  H   H35       1.0  0.06298232906741658  0.05773262467899803  0.7211192300865862  1.0000
  C   C1        1.0  0.6952259405300225  0.503527151350255  0.7971617771531639  1.0000
  C   C2        1.0  0.0035557315758937597  0.7984320640344792  0.5023092689031046  1.0000
  C   C3        1.0  0.30102350827814217  0.49770525639934254  0.19377061151880076  1.0000
  C   C4        1.0  0.009519830105887115  0.19172157317724733  0.5000433185773687  1.0000
  C   C5        1.0  0.0004838444789853309  0.19352185638657451  0.8007819179137527  1.0000
  C   C6        1.0  0.6950230598104455  0.5041877596507547  0.503555617900659  1.0000
  C   C7        1.0  0.005303523853605571  0.7986471902743518  0.19059539376085163  1.0000
  C   C8        1.0  0.2973634038189557  0.5105132075890993  0.5021657308736848  1.0000
  C   C9        1.0  0.009540083574243907  0.5042115714618732  0.796474303850445  1.0000
  C   C10       1.0  0.30178711833756466  0.1933542995832199  0.5095487857478106  1.0000
  C   C11       1.0  0.011410211290069607  0.5037708092916375  0.19095445782271978  1.0000
  C   C12       1.0  0.6980808030774315  0.7988666236004677  0.5008326413066797  1.0000
  C   C13       1.0  0.5936710620931581  0.5044058419595245  0.8959751748079086  1.0000
  C   C14       1.0  0.3990156522470159  0.499248060274134  0.09175449361912062  1.0000
  C   C15       1.0  0.5584807341648242  0.5625585657611083  0.9642979167711018  1.0000
  C   C16       1.0  0.4351834854563848  0.4420726671382552  0.020367845263208992  1.0000
  C   C17       1.0  0.46500498396879664  0.5589207473470098  0.05900338578810244  1.0000
  C   C18       1.0  0.5290544239146868  0.44303273635380697  0.9265716804947884  1.0000
  C   C19       1.0  0.5832607414329729  0.6379256056467926  0.9829738150207064  1.0000
  C   C20       1.0  0.4776947824096284  0.6331037663022557  0.09081442954768462  1.0000
  C   C21       1.0  0.010067537034942106  0.09164183253528793  0.4994429416362678  1.0000
  C   C22       1.0  0.004692953504949883  0.8970256910739567  0.5039208630704408  1.0000
  C   C23       1.0  0.07942132828262767  0.04820622800514234  0.4132988510376876  1.0000
  C   C24       1.0  0.9340974698361036  0.9437861393370358  0.5893679058901922  1.0000
  C   C25       1.0  0.07668217837154169  0.9539089703356682  0.4167630453328358  1.0000
  C   C26       1.0  0.9363297432562092  0.03645100880457617  0.5886188487312795  1.0000
  C   C27       1.0  0.16675297112826826  0.06387407042137738  0.29924119710562275  1.0000
  C   C28       1.0  0.16565846131856418  0.9554239504050345  0.30469283518585416  1.0000
  C   C29       1.0  0.599103606564718  0.9002330049467134  0.5005987227479025  1.0000
  C   C30       1.0  0.4039607577184157  0.09551901017667334  0.5075029092710395  1.0000
  C   C31       1.0  0.5362529872894731  0.9423051633574104  0.4344242130591666  1.0000
  C   C32       1.0  0.4706101338578109  0.05295587558397601  0.5717237378642963  1.0000
  C   C33       1.0  0.4420066265470481  0.035979889668830395  0.4391819423959972  1.0000
  C   C34       1.0  0.5641191268327577  0.9588991363171219  0.569604934511453  1.0000
  C   C35       1.0  0.5225939953643959  0.9254099630099334  0.349819761998333  1.0000
  C   C36       1.0  0.4142982516796038  0.030189316969568853  0.3574009973882681  1.0000
  C   C37       1.0  0.016569052272544016  0.5098632269977658  0.08541818682952138  1.0000
  C   C38       1.0  0.01701611934151263  0.5081903850469018  0.8906156069880921  1.0000
  C   C39       1.0  0.9421263773701656  0.5936693807870342  0.030431087135717478  1.0000
  C   C40       1.0  0.09493055058210592  0.4265296493801713  0.9452657442719143  1.0000
  C   C41       1.0  0.9429855213351532  0.5924370524134943  0.9364883775078566  1.0000
  C   C42       1.0  0.09560120453257064  0.42639222017110257  0.0386964860874599  1.0000
  C   C43       1.0  0.843779539229445  0.699378459389635  0.032183836704327055  1.0000
  C   C44       1.0  0.845784730330585  0.6989991984923665  0.9248226213683921  1.0000
  C   C45       1.0  0.9988498787899687  0.09059841353742125  0.900782975085974  1.0000
  C   C46       1.0  0.9060460718506533  0.09516089724512261  0.9999416645162853  1.0000
  C   C47       1.0  0.08867308908293137  0.9939301048997464  0.8949970792390262  1.0000
  C   C48       1.0  0.8118413307573676  0.19227294129732542  0.006382243638626082  1.0000
  C   C49       1.0  0.7224371856430025  0.19334042069580462  0.10270392568958898  1.0000
  C   C50       1.0  0.002478223691604017  0.9005929289147332  0.08954164911962438  1.0000
  C   C51       1.0  0.09232044164960482  0.8989490023887186  0.9921885894967132  1.0000
  C   C52       1.0  0.9067939552682561  0.9974647779303684  0.09574168778373603  1.0000
  C   C53       1.0  0.8131393213803194  0.0016068133648943577  0.19365707631646248  1.0000
  C   C54       1.0  0.7233162117792916  0.0973065449847397  0.1971579494308954  1.0000
  C   C55       1.0  0.5903627730654151  0.5091604705603602  0.5080394853926719  1.0000
  C   C56       1.0  0.3929802961281794  0.5157128042258565  0.5056155760352113  1.0000
  C   C57       1.0  0.5389376905400669  0.43057863745286085  0.5863643462104946  1.0000
  C   C58       1.0  0.44452328226765303  0.596795043190923  0.4292905247886054  1.0000
  C   C59       1.0  0.44383537062418554  0.4344896746488016  0.5846186007599526  1.0000
  C   C60       1.0  0.5393198528320015  0.5943384464315074  0.42930455271660145  1.0000
  C   C61       1.0  0.5454186531365367  0.3252495185237193  0.6850781431330333  1.0000
  C   C62       1.0  0.43721293100101394  0.3302319146920071  0.6837041066479019  1.0000
  C   C63       1.0  0.19339457588209538  0.7959849401838  0.992159861234704  1.0000
  C   C64       1.0  0.1792111484921647  0.9882215344947269  0.7856961891763207  1.0000
  O   O1        1.0  0.7353573040446049  0.42680350310751447  0.7574723347789315  1.0000
  O   O2        1.0  0.07890928235006825  0.762579570048814  0.42271312109160414  1.0000
  O   O3        1.0  0.2629302911521024  0.5745975874237886  0.23239140393414456  1.0000
  O   O4        1.0  0.9332647689209069  0.23012384616030365  0.5778217817143838  1.0000
  O   O5        1.0  0.07516494977174644  0.23206508234546422  0.7669798863235754  1.0000
  O   O6        1.0  0.7366525375261972  0.5786299981594709  0.4251644884551028  1.0000
  O   O7        1.0  0.9292955797519938  0.7590350441926432  0.22965319104176984  1.0000
  O   O8        1.0  0.26132370456181764  0.4317690427062503  0.5783138667013147  1.0000
  O   O9        1.0  0.9294790686806208  0.5791691619276449  0.7614147973900173  1.0000
  O   O10       1.0  0.2629090090793724  0.22982215097633948  0.43324100885931927  1.0000
  O   O11       1.0  0.08417483324039664  0.42393312071279615  0.23361650434599573  1.0000
  O   O12       1.0  0.7379565226522754  0.7586928233274365  0.5771789955094632  1.0000
  O   O13       1.0  0.2605992987232568  0.2349890043187131  0.5849070375115346  1.0000
  O   O14       1.0  0.9315993960528747  0.5787790378641803  0.23170632725297235  1.0000
  O   O15       1.0  0.7368493943140567  0.7605609127139061  0.4232819830725703  1.0000
  O   O16       1.0  0.08178013661046162  0.4252365233830418  0.7588296971908121  1.0000
  O   O17       1.0  0.9253313517751139  0.23207671787098166  0.7596416442061268  1.0000
  O   O18       1.0  0.2602935080823556  0.5822628654401782  0.4226427077515709  1.0000
  O   O19       1.0  0.08191293466517638  0.7615283445768597  0.22848511467563537  1.0000
  O   O20       1.0  0.7364600448998718  0.4242153278794093  0.5776769214555699  1.0000
  O   O21       1.0  0.08490864213642618  0.23203597083413294  0.4220183014386336  1.0000
  O   O22       1.0  0.7363400598080787  0.5777357295807732  0.7610842113231796  1.0000
  O   O23       1.0  0.9273671291926749  0.7582984843657526  0.5781115916431504  1.0000
  O   O24       1.0  0.26408908361951  0.4185488003230162  0.23762597388763854  1.0000
  O   O25       1.0  0.9363446658163498  0.4306429812759804  0.4321349512633859  1.0000
  O   O26       1.0  0.20409622835806843  0.43124105206593544  0.4338430517091324  1.0000
  O   O27       1.0  0.9360869191815125  0.6998381308647341  0.4299625230622367  1.0000
  O   O28       1.0  0.9345564151853412  0.43211967278698193  0.7013185314717917  1.0000
  O   O29       1.0  0.051703966746508276  0.5490917559540096  0.5480614349632803  1.0000
  O   O30       1.0  0.853951453398217  0.5484143762213238  0.548444745738635  1.0000
  O   O31       1.0  0.05278707528815831  0.5468307074050857  0.3510312926273187  1.0000
  O   O32       1.0  0.051605437271980754  0.3502770558933364  0.5506323700448661  1.0000
  O   O33       1.0  0.18115180497591163  0.7078867862559121  0.9970146539688187  1.0000
  O   O34       1.0  0.2791649572713554  0.787948321923622  0.990638015862686  1.0000
  O   O35       1.0  0.14379594254977227  0.030155345422990445  0.698442240309987  1.0000
  O   O36       1.0  0.2773207698128745  0.947630109210543  0.7716223101252383  1.0000
  F   F1        1.0  0.3760024671270232  0.3833856496776633  0.041304356864273514  1.0000
  F   F2        1.0  0.8582134358565127  0.8982171390656436  0.6787928255439156  1.0000
  F   F3        1.0  0.4453170481574915  0.10525762159947047  0.6388518607026583  1.0000
  F   F4        1.0  0.17384069198791252  0.34102559396955473  0.9081827312015845  1.0000
  F   F5        1.0  0.40205624941012996  0.6828205703695719  0.3494769561095411  1.0000
