data_image0
_chemical_formula_structural       Er2H14C16S2O18
_chemical_formula_sum              "Er2 H14 C16 S2 O18"
_cell_length_a       6.349728443405005
_cell_length_b       8.539190047443281
_cell_length_c       10.579673964835441
_cell_angle_alpha    90.20948402474838
_cell_angle_beta     100.13131955965522
_cell_angle_gamma    107.70816591028641

_space_group_name_H-M_alt    "P 1"
_space_group_IT_number       1

loop_
  _space_group_symop_operation_xyz
  'x, y, z'

loop_
  _atom_site_type_symbol
  _atom_site_label
  _atom_site_symmetry_multiplicity
  _atom_site_fract_x
  _atom_site_fract_y
  _atom_site_fract_z
  _atom_site_occupancy
  Er  Er1       1.0  0.1547850723166562  0.2504941526068976  0.6182188965977532  1.0000
  Er  Er2       1.0  0.8452142471509704  0.7495043263815265  0.3817817342082607  1.0000
  H   H1        1.0  0.6172976835925468  0.4108303934756138  0.14403569875137381  1.0000
  H   H2        1.0  0.3827057939298087  0.5891779361371194  0.8559663589934203  1.0000
  H   H3        1.0  0.6578248651567407  0.3659732931590441  0.9188911134124497  1.0000
  H   H4        1.0  0.3421823355942806  0.6340362683348815  0.08111228307879513  1.0000
  H   H5        1.0  0.1838131113864918  0.15383014710621276  0.057193853787346406  1.0000
  H   H6        1.0  0.8161866819793887  0.8461732592816137  0.9428059056679815  1.0000
  H   H7        1.0  0.5231646072249702  0.08418899926147821  0.6778174241323001  1.0000
  H   H8        1.0  0.47682995349231305  0.9158057824087041  0.3221826931108396  1.0000
  H   H9        1.0  0.2937219395607188  0.95642663007029  0.6074092078238351  1.0000
  H   H10       1.0  0.706271017624246  0.04356815257475691  0.3925897973665329  1.0000
  H   H11       1.0  0.654067392964528  0.3580905310010395  0.7095223949872889  1.0000
  H   H12       1.0  0.34592824554022883  0.6419030225376975  0.2904768830638744  1.0000
  H   H13       1.0  0.5817673818769649  0.5090199906745101  0.6478396786761779  1.0000
  H   H14       1.0  0.41823517734029286  0.4909747994700313  0.35216032562313876  1.0000
  C   C1        1.0  0.023436816291287212  0.2237716729652704  0.20161746725962365  1.0000
  C   C2        1.0  0.9765598218565543  0.7762280351294565  0.7983828906856021  1.0000
  C   C3        1.0  0.868854817066392  0.30245378967184433  0.22804600723156201  1.0000
  C   C4        1.0  0.13114393439060024  0.6975471557284935  0.7719526863381105  1.0000
  C   C5        1.0  0.7374793782770296  0.35063718048435544  0.1238942476567431  1.0000
  C   C6        1.0  0.26252358308128265  0.649369915297463  0.8761086954471439  1.0000
  C   C7        1.0  0.7612247319746926  0.32608622858126074  0.9976272400557349  1.0000
  C   C8        1.0  0.23877930717109316  0.6739196390691193  0.002374863856175616  1.0000
  C   C9        1.0  0.9254184827482845  0.25730662127897136  0.973621307084251  1.0000
  C   C10       1.0  0.0745860693679462  0.7427004824270969  0.026378965933957915  1.0000
  C   C11       1.0  0.05421579298015902  0.20501775418505028  0.0760593245407222  1.0000
  C   C12       1.0  0.9457866394397171  0.7949881166649678  0.9239407217838078  1.0000
  C   C13       1.0  0.8465622271303204  0.3451713116038776  0.36232706131679043  1.0000
  C   C14       1.0  0.1534413221492201  0.6548296397709806  0.6376711862727478  1.0000
  C   C15       1.0  0.9850142247462585  0.2499446533024427  0.8440972131460642  1.0000
  C   C16       1.0  0.014979780734783862  0.7500525858805462  0.15590474899917695  1.0000
  S   S1        1.0  0.21083683564078368  0.16126733217614495  0.3226229634011304  1.0000
  S   S2        1.0  0.7891608771009332  0.838731150011917  0.6773756098175029  1.0000
  O   O1        1.0  0.08155889079493758  0.017890065044532805  0.3843315433044269  1.0000
  O   O2        1.0  0.9184367054440229  0.9821071820626985  0.6156677487551436  1.0000
  O   O3        1.0  0.30579544755223503  0.3022740596871857  0.4211967474558165  1.0000
  O   O4        1.0  0.6942012296677973  0.6977219570638271  0.5788026509463862  1.0000
  O   O5        1.0  0.3764605294606511  0.12654915011570722  0.2585428006439585  1.0000
  O   O6        1.0  0.6235313467432347  0.8734468628855583  0.7414560982037771  1.0000
  O   O7        1.0  0.8589305656588804  0.2429002177358158  0.4493181766061766  1.0000
  O   O8        1.0  0.14106926358559235  0.7570994995330764  0.5506796777715266  1.0000
  O   O9        1.0  0.8182550680848023  0.482110370490574  0.3825479566266736  1.0000
  O   O10       1.0  0.18175593084568228  0.5178930424218893  0.6174539139903743  1.0000
  O   O11       1.0  0.17276099733822997  0.22757703919824485  0.8373533418463099  1.0000
  O   O12       1.0  0.827233602451244  0.7724140511282231  0.16264581585381424  1.0000
  O   O13       1.0  0.8572811919987443  0.26926517444827175  0.7407959406489084  1.0000
  O   O14       1.0  0.14272024397164534  0.7307345396209828  0.2592039713161753  1.0000
  O   O15       1.0  0.3693050050865238  0.0743498503064757  0.6361074731914941  1.0000
  O   O16       1.0  0.6306884650688787  0.9256461683942592  0.36388970110517255  1.0000
  O   O17       1.0  0.5288025257029362  0.4076242071863734  0.6933508757282567  1.0000
  O   O18       1.0  0.47119470355973897  0.5923693542766133  0.3066457322372287  1.0000
