data_image0
_chemical_formula_structural       Er4H60C44O24
_chemical_formula_sum              "Er4 H60 C44 O24"
_cell_length_a       8.120625002028735
_cell_length_b       10.71410026008046
_cell_length_c       14.75185271506554
_cell_angle_alpha    90.00033009748029
_cell_angle_beta     90.00008683242717
_cell_angle_gamma    90.0002947914242

_space_group_name_H-M_alt    "P 1"
_space_group_IT_number       1

loop_
  _space_group_symop_operation_xyz
  'x, y, z'

loop_
  _atom_site_type_symbol
  _atom_site_label
  _atom_site_symmetry_multiplicity
  _atom_site_fract_x
  _atom_site_fract_y
  _atom_site_fract_z
  _atom_site_occupancy
  Er  Er1       1.0  0.5772241868690173  0.20060137912970083  0.501627822224954  1.0000
  Er  Er2       1.0  0.9227593012505366  0.7993997594089352  0.0016221926619409  1.0000
  Er  Er3       1.0  0.0772285230966574  0.29940197705309396  0.4983794137452549  1.0000
  Er  Er4       1.0  0.4227594057623065  0.7005937074499755  0.9983786102039005  1.0000
  H   H1        1.0  0.7316883007191562  0.8245664895151988  0.30309006121925813  1.0000
  H   H2        1.0  0.7683206425629903  0.17543144298311827  0.8030991350637677  1.0000
  H   H3        1.0  0.2316861748875283  0.6754318391030408  0.69690515854316  1.0000
  H   H4        1.0  0.268321861816446  0.3245735849451847  0.1969062273520947  1.0000
  H   H5        1.0  0.4086966916172088  0.7038752411193696  0.2690078529441564  1.0000
  H   H6        1.0  0.09130538562925489  0.29613542225559536  0.7690125378282744  1.0000
  H   H7        1.0  0.9086973328657278  0.7961172380171889  0.7309841256868381  1.0000
  H   H8        1.0  0.5913077184089488  0.20387545511652408  0.23099132054822039  1.0000
  H   H9        1.0  0.4686752997364323  0.8043377158314726  0.3579779296675554  1.0000
  H   H10       1.0  0.031333178587686895  0.1956708540225591  0.8579807886280192  1.0000
  H   H11       1.0  0.9686860917785224  0.6956596618363875  0.6420147771044711  1.0000
  H   H12       1.0  0.5313347242128615  0.3043388582590366  0.1420223416245179  1.0000
  H   H13       1.0  0.448526089359035  0.6182981442221234  0.44717514206652  1.0000
  H   H14       1.0  0.051461699154245394  0.38170553384044587  0.9471828627841248  1.0000
  H   H15       1.0  0.9485391426845524  0.8816963555409814  0.5528168699399885  1.0000
  H   H16       1.0  0.5514740401722803  0.11830612294438228  0.0528216401010795  1.0000
  H   H17       1.0  0.47572427280361745  0.5213676091946695  0.35235974176845264  1.0000
  H   H18       1.0  0.0242644871932924  0.4786362492853015  0.8523692006157475  1.0000
  H   H19       1.0  0.9757296300493081  0.9786260623078391  0.6476343266605652  1.0000
  H   H20       1.0  0.5242788870141766  0.021372502355028203  0.1476332458375893  1.0000
  H   H21       1.0  0.6914104188425227  0.6728196622272834  0.540791395452537  1.0000
  H   H22       1.0  0.808581796682205  0.327179920664193  0.0407938646629802  1.0000
  H   H23       1.0  0.19142222660911304  0.8271915776660845  0.4592017569580448  1.0000
  H   H24       1.0  0.3085963807032925  0.1728196627353213  0.9592040747843953  1.0000
  H   H25       1.0  0.7244007717038272  0.7885276622840108  0.456886258058077  1.0000
  H   H26       1.0  0.7755987417555731  0.21146589139563327  0.9568907434633402  1.0000
  H   H27       1.0  0.2244144797080594  0.7114734382241608  0.5431014989213311  1.0000
  H   H28       1.0  0.2756029867818198  0.2885307644946735  0.0431092019857076  1.0000
  H   H29       1.0  0.8887708256945926  0.6876853013912267  0.4905591746923008  1.0000
  H   H30       1.0  0.6112226229224262  0.3123085196732447  0.990562588139035  1.0000
  H   H31       1.0  0.3887839007778098  0.8123248344227677  0.5094348209312614  1.0000
  H   H32       1.0  0.1112322419894767  0.18768563436221797  0.0094358638430947  1.0000
  H   H33       1.0  0.8117991969624683  0.5350411334696972  0.1773107122175759  1.0000
  H   H34       1.0  0.6882130957534115  0.46495300014021274  0.6773155060591094  1.0000
  H   H35       1.0  0.3118006306989969  0.9649509712712002  0.8226866082871211  1.0000
  H   H36       1.0  0.1882126765598713  0.03504891817105  0.322683688312857  1.0000
  H   H37       1.0  0.6390316102743155  0.4821639960340178  0.239000407732334  1.0000
  H   H38       1.0  0.8609808515591624  0.5178240940329315  0.739009634595412  1.0000
  H   H39       1.0  0.13903473771448918  0.01782746537747929  0.760993322371064  1.0000
  H   H40       1.0  0.36098086328860995  0.98217846760442  0.260991116536033  1.0000
  H   H41       1.0  0.8409112715555693  0.4342108839321952  0.2712105835115963  1.0000
  H   H42       1.0  0.659100047179102  0.5657858620469226  0.771215774421954  1.0000
  H   H43       1.0  0.3409171020516197  0.0657822909273449  0.7287873830019292  1.0000
  H   H44       1.0  0.15910087349084986  0.9342168528491257  0.22878209606567879  1.0000
  H   H45       1.0  0.0104760241186526  0.6885945060436214  0.2435152630318242  1.0000
  H   H46       1.0  0.48953337175944966  0.3113982212400401  0.7435135665421342  1.0000
  H   H47       1.0  0.5104756085067379  0.8113964343652003  0.75648316080553  1.0000
  H   H48       1.0  0.9895332069690211  0.18859832792915646  0.2564811350756599  1.0000
  H   H49       1.0  0.043799596542626794  0.5873526596689017  0.337956762112384  1.0000
  H   H50       1.0  0.4561977439278238  0.4126380175027718  0.8379520714646702  1.0000
  H   H51       1.0  0.543807004119749  0.9126356094792598  0.6620437232815277  1.0000
  H   H52       1.0  0.9562089410353564  0.08736120292024911  0.1620412464754537  1.0000
  H   H53       1.0  0.9881646676935746  0.7461602343548606  0.3550902528102924  1.0000
  H   H54       1.0  0.5118333352294185  0.2538325109146768  0.8550865597680611  1.0000
  H   H55       1.0  0.48816786211154545  0.7538325518887702  0.6449099269662  1.0000
  H   H56       1.0  0.011841263440516099  0.24616405911341832  0.1449104531955783  1.0000
  H   H57       1.0  0.9386894181083179  0.0135024102950609  0.39366216085768707  1.0000
  H   H58       1.0  0.5613049963091967  0.9865027748086843  0.8936568264933413  1.0000
  H   H59       1.0  0.4386805548551607  0.48651540943634325  0.6063338539695593  1.0000
  H   H60       1.0  0.061282902073259  0.5135126291001199  0.1063538418239531  1.0000
  C   C1        1.0  0.7058226562214711  0.5972439721376119  0.4040016457220901  1.0000
  C   C2        1.0  0.7941705551045004  0.40275476166944196  0.9040076241100933  1.0000
  C   C3        1.0  0.2058304309728172  0.902757056617709  0.5959976196675497  1.0000
  C   C4        1.0  0.2941810233779591  0.0972512994986374  0.09599437056215979  1.0000
  C   C5        1.0  0.7862056016603205  0.6265135901680097  0.3089926574947127  1.0000
  C   C6        1.0  0.7137959691923115  0.3734815891143483  0.8089950567936269  1.0000
  C   C7        1.0  0.28620727920184663  0.8734793490354775  0.6910066752142967  1.0000
  C   C8        1.0  0.2137970470084838  0.12651856137100026  0.19100822629242492  1.0000
  C   C9        1.0  0.6743303171391587  0.7388035907474801  0.2770287246595373  1.0000
  C   C10       1.0  0.8256785546785963  0.2611922680781902  0.7770334598561917  1.0000
  C   C11       1.0  0.1743300816757056  0.7611917161933591  0.7229671249280898  1.0000
  C   C12       1.0  0.3256804893283984  0.2388092480670139  0.2229665275551724  1.0000
  C   C13       1.0  0.5033902668866759  0.7196735027681881  0.3207010935766732  1.0000
  C   C14       1.0  0.996607641799919  0.2803292362940014  0.8207067298250833  1.0000
  C   C15       1.0  0.003390042715920999  0.7803183435837081  0.6792905455171905  1.0000
  C   C16       1.0  0.4966117885010562  0.21967480705797723  0.17929882383173631  1.0000
  C   C17       1.0  0.5201485320333533  0.607288244106847  0.3847348564511677  1.0000
  C   C18       1.0  0.9798458579120818  0.392713136754125  0.8847416262868749  1.0000
  C   C19       1.0  0.0201612164977263  0.8927046003880436  0.6152601860937849  1.0000
  C   C20       1.0  0.47985644779815567  0.10729364188198079  0.11526187969373317  1.0000
  C   C21       1.0  0.7559267957580503  0.47127284257402374  0.44280737656574587  1.0000
  C   C22       1.0  0.7440443561477397  0.5287177991972953  0.9428111279661593  1.0000
  C   C23       1.0  0.25594175336939873  0.02871907057844679  0.5571932302791468  1.0000
  C   C24       1.0  0.2440732888424577  0.9712759104970204  0.0571888473172848  1.0000
  C   C25       1.0  0.756326585864613  0.6929145489095418  0.4770143907918936  1.0000
  C   C26       1.0  0.7436680570597928  0.307081964647942  0.9770185712203201  1.0000
  C   C27       1.0  0.25633596794727953  0.8070894750373157  0.5229822053892761  1.0000
  C   C28       1.0  0.2436789805082071  0.19291456788093334  0.0229833811249875  1.0000
  C   C29       1.0  0.7673543601899836  0.5128910698154598  0.2458857625541526  1.0000
  C   C30       1.0  0.7326568890955655  0.4871008083074742  0.7458906862062449  1.0000
  C   C31       1.0  0.26735945195455457  0.987103663240319  0.7541108428440566  1.0000
  C   C32       1.0  0.23265859303516834  0.012900348386963897  0.2541071896348015  1.0000
  C   C33       1.0  0.9679269689474665  0.6641242038459225  0.3119110897230756  1.0000
  C   C34       1.0  0.5320672212920954  0.33586726517709314  0.8119077565255566  1.0000
  C   C35       1.0  0.46793576943292686  0.8358666375042886  0.6880877173361597  1.0000
  C   C36       1.0  0.0320685487740207  0.16413218306110616  0.188086561867955  1.0000
  C   C37       1.0  0.6742846548416779  0.7506137902995463  0.17508087680415937  1.0000
  C   C38       1.0  0.8257153174444695  0.2493793922588523  0.6750930193558132  1.0000
  C   C39       1.0  0.17428708081749988  0.7493759163434605  0.8249075160441208  1.0000
  C   C40       1.0  0.32571022390013843  0.2506165239528784  0.3249157805241083  1.0000
  C   C41       1.0  0.834856498997773  0.06654084395044177  0.4229317720674217  1.0000
  C   C42       1.0  0.665128144177551  0.9334580400941732  0.9229195241689467  1.0000
  C   C43       1.0  0.3348447292856633  0.43346257439338837  0.5770838142927275  1.0000
  C   C44       1.0  0.1651075644859148  0.5665493648520936  0.0770912311075449  1.0000
  O   O1        1.0  0.6439512244806238  0.4002252554910442  0.4744628659966423  1.0000
  O   O2        1.0  0.8560237085369735  0.5997693711022476  0.9744758206298413  1.0000
  O   O3        1.0  0.1439690448626152  0.09977182504204755  0.5255274788411625  1.0000
  O   O4        1.0  0.3560348276623415  0.9002238379526871  0.025536450310205804  1.0000
  O   O5        1.0  0.9086957428211022  0.44570591022415584  0.4465953858965293  1.0000
  O   O6        1.0  0.5912901966351997  0.5542838282506892  0.9465848806878157  1.0000
  O   O7        1.0  0.4086923937798232  0.054299660187233215  0.5534283969001023  1.0000
  O   O8        1.0  0.0912943152022478  0.9457130245031562  0.0534054762924114  1.0000
  O   O9        1.0  0.8016468821727541  0.7976836340489654  0.137205785948801  1.0000
  O   O10       1.0  0.6983628378182372  0.20233724821938645  0.6372122020770448  1.0000
  O   O11       1.0  0.3016343124889289  0.7023392319687501  0.8627915261094685  1.0000
  O   O12       1.0  0.19834831899655112  0.297683376287182  0.3627903902355881  1.0000
  O   O13       1.0  0.5513850496708984  0.7108396193263148  0.1301467252477053  1.0000
  O   O14       1.0  0.9486406594438179  0.2891382728526111  0.6301564254591058  1.0000
  O   O15       1.0  0.051354622588704  0.7891356121424096  0.8698476655290506  1.0000
  O   O16       1.0  0.44860955661762597  0.2108431847145837  0.36985383311927916  1.0000
  O   O17       1.0  0.6990909296927299  0.014504541881549897  0.4382774754986372  1.0000
  O   O18       1.0  0.8009122270733116  0.9855028642184466  0.9382682703858549  1.0000
  O   O19       1.0  0.1990683914872236  0.48550115189031834  0.5617400307703733  1.0000
  O   O20       1.0  0.30089617447289635  0.5144966652354056  0.0617337861734271  1.0000
  O   O21       1.0  0.8559156478976604  0.18363804738978468  0.4403711910476318  1.0000
  O   O22       1.0  0.6440752002730079  0.8163665752557132  0.9403597918393487  1.0000
  O   O23       1.0  0.355893176780981  0.3163691856892044  0.559640345672058  1.0000
  O   O24       1.0  0.1440812349416376  0.6836444817414247  0.0596387439621537  1.0000
