data_image0
_chemical_formula_structural       Fe2H12C28N16O4
_chemical_formula_sum              "Fe2 H12 C28 N16 O4"
_cell_length_a       7.784348352909804
_cell_length_b       8.880640538540696
_cell_length_c       11.280224961299623
_cell_angle_alpha    89.9998761504674
_cell_angle_beta     101.59526072488545
_cell_angle_gamma    89.99674673648614

_space_group_name_H-M_alt    "P 1"
_space_group_IT_number       1

loop_
  _space_group_symop_operation_xyz
  'x, y, z'

loop_
  _atom_site_type_symbol
  _atom_site_label
  _atom_site_symmetry_multiplicity
  _atom_site_fract_x
  _atom_site_fract_y
  _atom_site_fract_z
  _atom_site_occupancy
  Fe  Fe1       1.0  0.9999913007365252  0.5000053574408341  0.9999986529055606  1.0000
  Fe  Fe2       1.0  0.500009754227314  4.413252554999972e-07  0.5000012431130259  1.0000
  H   H1        1.0  0.5577927522070069  0.39845323656341247  0.8548152944190621  1.0000
  H   H2        1.0  0.942250290114842  0.8983993619800473  0.6452070156160233  1.0000
  H   H3        1.0  0.44219789365945417  0.6015374521896959  0.14517984730284184  1.0000
  H   H4        1.0  0.0577390635276416  0.10160483934652832  0.3547826256105112  1.0000
  H   H5        1.0  0.3974877813339148  0.42653310001910677  0.7177516648026484  1.0000
  H   H6        1.0  0.1025471197083547  0.9264337322806571  0.7822643560166327  1.0000
  H   H7        1.0  0.6024923538210276  0.5734575890058339  0.28224732037870137  1.0000
  H   H8        1.0  0.8974317235550586  0.0735603349136227  0.21772912873141337  1.0000
  H   H9        1.0  0.41333875055181585  0.24663236187790724  0.7926684093241363  1.0000
  H   H10       1.0  0.0867172854898541  0.7465665018607126  0.7073094593344251  1.0000
  H   H11       1.0  0.5866413779934805  0.7533605792366488  0.20733234794565192  1.0000
  H   H12       1.0  0.9132694583742521  0.2534399516241592  0.2926762694620352  1.0000
  C   C1        1.0  0.18331643097933895  0.4420151098225134  0.2604785297028087  1.0000
  C   C2        1.0  0.31666230826260033  0.9420104993603291  0.2395268943360591  1.0000
  C   C3        1.0  0.8166768307580129  0.557986839311326  0.739518752264175  1.0000
  C   C4        1.0  0.6833492771081141  0.05798694511612011  0.7604827117034959  1.0000
  C   C5        1.0  0.34170358646606064  0.30977050485644514  0.4346403538785566  1.0000
  C   C6        1.0  0.15826416798697812  0.8097651738753556  0.0653612703615423  1.0000
  C   C7        1.0  0.6582936226177198  0.6902280660409232  0.5653539362223726  1.0000
  C   C8        1.0  0.8417395622748813  0.19022776662617252  0.9346436868656909  1.0000
  C   C9        1.0  0.19862715113780638  0.5524245001128064  0.4618620694538151  1.0000
  C   C10       1.0  0.30134434982448977  0.05243433939067902  0.038147068368502304  1.0000
  C   C11       1.0  0.8013740050707839  0.44757744881750483  0.5381292287396775  1.0000
  C   C12       1.0  0.6986921550757828  0.9475664825735991  0.9618651496114836  1.0000
  C   C13       1.0  0.2983630436122199  0.4159755897879975  0.8745658293541397  1.0000
  C   C14       1.0  0.20166598782146392  0.9159387071781566  0.6254502859289133  1.0000
  C   C15       1.0  0.701627585619299  0.5840241073238559  0.1254337425681697  1.0000
  C   C16       1.0  0.7983259458929269  0.08407225034847703  0.3745512421325686  1.0000
  C   C17       1.0  0.2470976475270987  0.43711063037305564  0.3856586688776247  1.0000
  C   C18       1.0  0.252859179227471  0.937090237612999  0.1143277366151239  1.0000
  C   C19       1.0  0.7528956269862874  0.5629003271203957  0.6143350688297176  1.0000
  C   C20       1.0  0.7471642249749026  0.0629072065574761  0.8856790961220113  1.0000
  C   C21       1.0  0.0817473827031563  0.6698864144551138  0.3980753792738484  1.0000
  C   C22       1.0  0.4182112001195861  0.16986313983121454  0.10192272295923742  1.0000
  C   C23       1.0  0.9182603009237766  0.33011891243877756  0.6019248138885374  1.0000
  C   C24       1.0  0.5818121981380246  0.8301162876206192  0.8980858819904755  1.0000
  C   C25       1.0  0.4255838106046071  0.36894866902752455  0.8059349866714173  1.0000
  C   C26       1.0  0.07444305809757171  0.868887954575939  0.6940818544443702  1.0000
  C   C27       1.0  0.5744028812688314  0.6310487760965771  0.1940649189980803  1.0000
  C   C28       1.0  0.9255449582723757  0.13110836446958982  0.30591469113346653  1.0000
  N   N1        1.0  0.1224310619581672  0.45193829178546  0.1572790360606504  1.0000
  N   N2        1.0  0.3775588349408779  0.9519439929080563  0.3427261512113375  1.0000
  N   N3        1.0  0.8775608816337553  0.5480704136516579  0.8427198338612811  1.0000
  N   N4        1.0  0.6224488226537803  0.048057955850353606  0.6572811303806745  1.0000
  N   N5        1.0  0.4132252436292917  0.19785779618935354  0.4691934557376527  1.0000
  N   N6        1.0  0.0867327753830054  0.6978606939132491  0.030815120417201997  1.0000
  N   N7        1.0  0.5867719293230566  0.8021464049314629  0.530810580891071  1.0000
  N   N8        1.0  0.9132526245619632  0.3021412554250987  0.9691792848121068  1.0000
  N   N9        1.0  0.9861534310727792  0.765809873456412  0.3560752242163119  1.0000
  N   N10       1.0  0.5138039032596923  0.26578391285260494  0.14391240156613352  1.0000
  N   N11       1.0  0.0138502952563115  0.23420333585327316  0.6439306189378939  1.0000
  N   N12       1.0  0.4862221761526584  0.7342090270716995  0.8560806225925431  1.0000
  N   N13       1.0  0.1930352315068973  0.4506188298809519  0.9287740858729309  1.0000
  N   N14       1.0  0.3069863073315986  0.9505922705438578  0.5712337801497469  1.0000
  N   N15       1.0  0.8069527779209481  0.5493898756583209  0.07122423173127862  1.0000
  N   N16       1.0  0.6930121735192645  0.0494186868122313  0.42877132659462097  1.0000
  O   O1        1.0  0.24179074537235584  0.5602257227092268  0.5740680615809239  1.0000
  O   O2        1.0  0.2581318944818208  0.06024890382774121  0.925907603096789  1.0000
  O   O3        1.0  0.7582143319287696  0.4397762261185464  0.4259273331347657  1.0000
  O   O4        1.0  0.7418993490440614  0.9397361536436223  0.0741083088117023  1.0000
