data_image0
_chemical_formula_structural       Cd2H36C46N4O12
_chemical_formula_sum              "Cd2 H36 C46 N4 O12"
_cell_length_a       6.579865527402193
_cell_length_b       12.326117148947166
_cell_length_c       13.857880113910424
_cell_angle_alpha    111.57128369160164
_cell_angle_beta     93.89385164684448
_cell_angle_gamma    102.16594692523151

_space_group_name_H-M_alt    "P 1"
_space_group_IT_number       1

loop_
  _space_group_symop_operation_xyz
  'x, y, z'

loop_
  _atom_site_type_symbol
  _atom_site_label
  _atom_site_symmetry_multiplicity
  _atom_site_fract_x
  _atom_site_fract_y
  _atom_site_fract_z
  _atom_site_occupancy
  Cd  Cd1       1.0  0.6930760465535428  0.6398100700307623  0.10089619211017714  1.0000
  Cd  Cd2       1.0  0.306923421887248  0.3601969809426961  0.8991029896052748  1.0000
  H   H1        1.0  0.517965947567177  0.8165772458634706  0.2859922118552872  1.0000
  H   H2        1.0  0.4820459659545547  0.1834206123445057  0.7140000669982525  1.0000
  H   H3        1.0  0.053079168061827865  0.4844652967273859  0.08022905749459139  1.0000
  H   H4        1.0  0.9469315500286583  0.5155398746744879  0.9197835968517009  1.0000
  H   H5        1.0  0.34304785472886573  0.46624634804143034  0.19215615349882847  1.0000
  H   H6        1.0  0.6569486748018674  0.5337480780782329  0.807848934098615  1.0000
  H   H7        1.0  0.9147601594730755  0.18221063055296577  0.24290168362546882  1.0000
  H   H8        1.0  0.08523472914649954  0.817796501347303  0.7571096402535173  1.0000
  H   H9        1.0  0.6250636535476914  0.19776685302961286  0.12581309838969898  1.0000
  H   H10       1.0  0.3749400978246982  0.8022429046762269  0.8741972065732211  1.0000
  H   H11       1.0  0.5919843464254338  0.2649995219867733  0.387280329807055  1.0000
  H   H12       1.0  0.40802450740876844  0.7349983981487896  0.6127226921172804  1.0000
  H   H13       1.0  0.6046505591208698  0.2913889611533591  0.5748889783615352  1.0000
  H   H14       1.0  0.39534597923720594  0.7086054540894224  0.42511249792440237  1.0000
  H   H15       1.0  0.0433352461904661  0.4187733864723384  0.5884620126067757  1.0000
  H   H16       1.0  0.956660258119612  0.5812156051492892  0.41153838995021613  1.0000
  H   H17       1.0  0.03530228413106338  0.40024172806131036  0.40289649905820096  1.0000
  H   H18       1.0  0.9646908574787644  0.599745470142011  0.5971017997346305  1.0000
  H   H19       1.0  0.8317993202159357  0.8681911769494521  0.048202604703895736  1.0000
  H   H20       1.0  0.16821107140664537  0.1318067024331242  0.9517917955046893  1.0000
  H   H21       1.0  0.14136346743685377  0.04675422414783982  0.08693243865035066  1.0000
  H   H22       1.0  0.8586408577747164  0.9532437138285986  0.9130617798308119  1.0000
  H   H23       1.0  0.47324532433287897  0.06419343918008741  0.19799262035772355  1.0000
  H   H24       1.0  0.5267559623767821  0.9358045346194073  0.8020036740466306  1.0000
  H   H25       1.0  0.16463057093876202  0.7295735942957792  0.21919469648651807  1.0000
  H   H26       1.0  0.8353596782683468  0.2704235758342151  0.7807995284663958  1.0000
  H   H27       1.0  0.838982315410135  0.8681218821331742  0.3670956940598344  1.0000
  H   H28       1.0  0.16101115495298757  0.1318788742542623  0.6328976371534407  1.0000
  H   H29       1.0  0.11854449854354238  0.021894267026539196  0.33959704411802943  1.0000
  H   H30       1.0  0.8814459474414206  0.9781065077809431  0.660392584920032  1.0000
  H   H31       1.0  0.0720203743343788  0.13508068382614624  0.4508882497300559  1.0000
  H   H32       1.0  0.9279663608779386  0.864921951695017  0.5491061903939423  1.0000
  H   H33       1.0  0.22615785191541002  0.9156668457647259  0.4505855739977917  1.0000
  H   H34       1.0  0.7738378126176002  0.08433206455750053  0.5494029006976857  1.0000
  H   H35       1.0  0.38212618493255224  0.06607293630683839  0.4942882587550839  1.0000
  H   H36       1.0  0.61786467880475  0.9339287490601648  0.5057045662360337  1.0000
  C   C1        1.0  0.6465666621064299  0.35172981406147136  0.028272280398169886  1.0000
  C   C2        1.0  0.3534336978141114  0.6482727200787792  0.9717326802847307  1.0000
  C   C3        1.0  0.8201447924248412  0.3414095428623511  0.09550235790078426  1.0000
  C   C4        1.0  0.17986229735009834  0.6585911186703016  0.9045036606582921  1.0000
  C   C5        1.0  0.0226228998770708  0.4169433955866709  0.11412518952590027  1.0000
  C   C6        1.0  0.9773829083933521  0.5830545690734539  0.8858827973708255  1.0000
  C   C7        1.0  0.1863984762972137  0.40673765602818435  0.17619500277391606  1.0000
  C   C8        1.0  0.8136069142208697  0.5932593980724264  0.8238097881697538  1.0000
  C   C9        1.0  0.14621414932790341  0.3222583513272782  0.22174112799472565  1.0000
  C   C10       1.0  0.8537905777467926  0.6777405167870683  0.7782627868001908  1.0000
  C   C11       1.0  0.9452321432141914  0.2459184053282115  0.20477936768538996  1.0000
  C   C12       1.0  0.05477252082356908  0.7540868094398905  0.7952280490973745  1.0000
  C   C13       1.0  0.7833954005617656  0.25572310369110346  0.14082646710549074  1.0000
  C   C14       1.0  0.2166090702290759  0.7442785020487579  0.8591841010675265  1.0000
  C   C15       1.0  0.31234219602364277  0.3300926165746176  0.384141721546463  1.0000
  C   C16       1.0  0.6876663561444544  0.6699143660864381  0.615864233120824  1.0000
  C   C17       1.0  0.47512773686970183  0.3010885965169692  0.4324725061330524  1.0000
  C   C18       1.0  0.524885368637591  0.6989183378479426  0.5675321403051966  1.0000
  C   C19       1.0  0.4799946639011878  0.31463173173926146  0.5366248112550946  1.0000
  C   C20       1.0  0.5200180114954874  0.6853743072937705  0.4633816950662036  1.0000
  C   C21       1.0  0.3223545399431771  0.3551629571530269  0.5929475929835915  1.0000
  C   C22       1.0  0.6776517072652123  0.6448358919620958  0.4070549227185791  1.0000
  C   C23       1.0  0.16410782630121903  0.3868187015540344  0.5439207218236745  1.0000
  C   C24       1.0  0.8358904725851913  0.6131729766424031  0.4560792023521215  1.0000
  C   C25       1.0  0.15900816856386507  0.3758102147497624  0.4403607711708869  1.0000
  C   C26       1.0  0.8409948015134389  0.6241913860601684  0.5596432512095715  1.0000
  C   C27       1.0  0.3136675561394853  0.35865526813497445  0.700474697745747  1.0000
  C   C28       1.0  0.6863248713482903  0.6413400755081967  0.29952117105008097  1.0000
  C   C29       1.0  0.980751081927707  0.8797687008961363  0.09484233617232012  1.0000
  C   C30       1.0  0.0192543368378679  0.12022831839843921  0.9051508985745469  1.0000
  C   C31       1.0  0.15281680586907948  0.9775008710453149  0.11671904368335356  1.0000
  C   C32       1.0  0.8471835734716107  0.02250163916578881  0.8832779721142497  1.0000
  C   C33       1.0  0.33804828913682167  0.9877498841740646  0.177873291995894  1.0000
  C   C34       1.0  0.6619525780550289  0.012247181241292504  0.8221205287177039  1.0000
  C   C35       1.0  0.34670601710758575  0.8978062417262506  0.21635048474272608  1.0000
  C   C36       1.0  0.6532941813444707  0.10219264422897112  0.7836446266090247  1.0000
  C   C37       1.0  0.1670273162588813  0.8010992276567492  0.1902645854649946  1.0000
  C   C38       1.0  0.832972032564747  0.19889785458245507  0.8097299120790493  1.0000
  C   C39       1.0  0.6917185466009386  0.9928555033167967  0.3345584783865049  1.0000
  C   C40       1.0  0.30828530135227783  0.007147866403123301  0.6654346016048576  1.0000
  C   C41       1.0  0.8440268748499731  0.9647273227937705  0.4040452895948972  1.0000
  C   C42       1.0  0.15597290055332988  0.035270659128059406  0.5959487925907039  1.0000
  C   C43       1.0  0.06899220843861538  0.03886652601277521  0.41667540586855256  1.0000
  C   C44       1.0  0.9309856746137015  0.9611334706505591  0.5833157195977134  1.0000
  C   C45       1.0  0.2224699219863808  0.011209380869807705  0.4867767327759579  1.0000
  C   C46       1.0  0.7775209399854576  0.9887923066725792  0.5132168144774524  1.0000
  N   N1        1.0  0.9897970261847463  0.7933095000053146  0.13151530558629085  1.0000
  N   N2        1.0  0.010200811332531118  0.20668759035621787  0.868476979738993  1.0000
  N   N3        1.0  0.5202367223124823  0.8980774774782603  0.2798698881259865  1.0000
  N   N4        1.0  0.47976632845644207  0.10191775492414479  0.7201234096436193  1.0000
  O   O1        1.0  0.6736826839182156  0.4423748853422894  0.9997493471697108  1.0000
  O   O2        1.0  0.32631895044497133  0.5576303543719946  0.00025653422474654537  1.0000
  O   O3        1.0  0.4735896888788388  0.27100628241164765  0.9965692374764782  1.0000
  O   O4        1.0  0.5264027634107434  0.7290054157763279  0.003447818200001474  1.0000
  O   O5        1.0  0.46411103937249015  0.332475761558456  0.7463202310620002  1.0000
  O   O6        1.0  0.5358759150488552  0.6675241820201093  0.2536827231922059  1.0000
  O   O7        1.0  0.1593952531483254  0.3850788871198816  0.7462483961106298  1.0000
  O   O8        1.0  0.8406063988695393  0.6149263308406319  0.2537502626608229  1.0000
  O   O9        1.0  0.3173031385162233  0.3134313899820711  0.2805224097098885  1.0000
  O   O10       1.0  0.6827061418976683  0.6865674298361241  0.719480196855997  1.0000
  O   O11       1.0  0.7176992629715073  0.0934368521265796  0.33040126150938676  1.0000
  O   O12       1.0  0.2823044406479979  0.9065565793143479  0.6695972459827784  1.0000
