data_image0
_chemical_formula_structural       Zn4H48C96N8O24
_chemical_formula_sum              "Zn4 H48 C96 N8 O24"
_cell_length_a       13.117648019918295
_cell_length_b       13.235829509949163
_cell_length_c       22.36158032600036
_cell_angle_alpha    89.9999894717731
_cell_angle_beta     89.99998519720978
_cell_angle_gamma    103.2930708173047

_space_group_name_H-M_alt    "P 1"
_space_group_IT_number       1

loop_
  _space_group_symop_operation_xyz
  'x, y, z'

loop_
  _atom_site_type_symbol
  _atom_site_label
  _atom_site_symmetry_multiplicity
  _atom_site_fract_x
  _atom_site_fract_y
  _atom_site_fract_z
  _atom_site_occupancy
  Zn  Zn1       1.0  0.2264308792006701  0.12809501575520696  0.8280653331546122  1.0000
  Zn  Zn2       1.0  0.7735690513641627  0.871905642100465  0.3280652586506535  1.0000
  Zn  Zn3       1.0  0.2540501108224261  0.15550041267463402  0.9547840121900183  1.0000
  Zn  Zn4       1.0  0.74594957557197  0.8444994139862985  0.4547839448363435  1.0000
  H   H1        1.0  0.11159029912203514  0.9759800550779261  0.7350817062517624  1.0000
  H   H2        1.0  0.8884096820166005  0.024020643051286997  0.2350821542503071  1.0000
  H   H3        1.0  0.10441594705517325  0.9654710626898506  0.6234661612541645  1.0000
  H   H4        1.0  0.8955848582556807  0.0345296887309274  0.12346615982949063  1.0000
  H   H5        1.0  0.3168530438134311  0.2677255442436177  0.6183270116990303  1.0000
  H   H6        1.0  0.6831471760764597  0.7322759807648679  0.11832651885868026  1.0000
  H   H7        1.0  0.3145184028105205  0.26663677397983315  0.731069490920291  1.0000
  H   H8        1.0  0.6854808170464037  0.7333639209395243  0.2310689976097394  1.0000
  H   H9        1.0  0.4741980460398167  0.11538568959822021  0.4510177238820746  1.0000
  H   H10       1.0  0.5258031693315032  0.8846141485896906  0.951017670706975  1.0000
  H   H11       1.0  0.48118574380558937  0.12649272981283838  0.3385127046193333  1.0000
  H   H12       1.0  0.5188147692931793  0.8735071521561011  0.8385126537090601  1.0000
  H   H13       1.0  0.9693990050626622  0.1396967909915929  0.332595822366102  1.0000
  H   H14       1.0  0.030601336006355968  0.8603023172305341  0.8325958463866387  1.0000
  H   H15       1.0  0.9636238590263201  0.12991540463603707  0.44467868883276673  1.0000
  H   H16       1.0  0.03637735979278733  0.8700844362974676  0.9446787109157103  1.0000
  H   H17       1.0  0.3161388739825312  0.30880057348435486  0.16729448618365694  1.0000
  H   H18       1.0  0.6838600300661068  0.691198596438717  0.6672930887518904  1.0000
  H   H19       1.0  0.32533699255791493  0.30911291545567815  0.05456721113812792  1.0000
  H   H20       1.0  0.6746615598346677  0.690887850963591  0.5545667095161309  1.0000
  H   H21       1.0  0.1697455627601058  0.9997890491969201  0.04567380653272581  1.0000
  H   H22       1.0  0.8302558730784282  0.0002109645560679004  0.5456738041109832  1.0000
  H   H23       1.0  0.1536336263037867  0.9863531679153044  0.15754157290043486  1.0000
  H   H24       1.0  0.8463660465131964  0.0136460111794676  0.657542013781921  1.0000
  H   H25       1.0  0.239420978969214  0.44381215757942977  0.7799135303009951  1.0000
  H   H26       1.0  0.7605771003612743  0.5561869586173316  0.2799130450349595  1.0000
  H   H27       1.0  0.23359548090205343  0.6297192236466101  0.766506149748395  1.0000
  H   H28       1.0  0.7664043078970904  0.3702806845624949  0.2665056839073047  1.0000
  H   H29       1.0  0.2653964895689497  0.4853297798758973  0.9699649418574839  1.0000
  H   H30       1.0  0.7346033638165532  0.5146708165194196  0.4699644650351688  1.0000
  H   H31       1.0  0.2313419396054569  0.8017753654788179  0.8114859668744078  1.0000
  H   H32       1.0  0.7686585881931904  0.1982245281960999  0.31148596667905804  1.0000
  H   H33       1.0  0.2567922031169657  0.842771982404059  0.0017761955199518007  1.0000
  H   H34       1.0  0.7432069662049016  0.1572280355185853  0.5017761890540913  1.0000
  H   H35       1.0  0.2672116237751466  0.6582225614218871  0.014742193610075604  1.0000
  H   H36       1.0  0.7327883019588339  0.34177745583279767  0.5147417213632155  1.0000
  H   H37       1.0  0.9030384565796792  0.1266630676973151  0.8141024945524084  1.0000
  H   H38       1.0  0.09696113108367391  0.873336043586903  0.3141025217392369  1.0000
  H   H39       1.0  0.7491846156953766  0.153422017682594  0.016007748404874206  1.0000
  H   H40       1.0  0.2508156598459975  0.8465795516429468  0.5160077407761465  1.0000
  H   H41       1.0  0.9354955134604451  0.13875932896462467  0.0048189016413431015  1.0000
  H   H42       1.0  0.06450441767081827  0.8612406925880833  0.5048184732605351  1.0000
  H   H43       1.0  0.7331657339911644  0.1373866692629946  0.7668714978249657  1.0000
  H   H44       1.0  0.2668348180734838  0.8626132437357156  0.2668710534168995  1.0000
  H   H45       1.0  0.5468797627671333  0.15008290361002  0.7778998014789099  1.0000
  H   H46       1.0  0.45312060805090926  0.8499162283022057  0.27790067200326274  1.0000
  H   H47       1.0  0.5790661555394718  0.16252447375973125  0.9689176038152144  1.0000
  H   H48       1.0  0.42093446187978145  0.8374761280369681  0.4689175861518678  1.0000
  C   C1        1.0  0.1562479045878007  0.03891535669647791  0.7076637455323296  1.0000
  C   C2        1.0  0.843751916215602  0.961084576998637  0.2076640979207555  1.0000
  C   C3        1.0  0.15246946706331238  0.033210409121430494  0.645495063068559  1.0000
  C   C4        1.0  0.8475311510179606  0.9667895564484253  0.14549541426516305  1.0000
  C   C5        1.0  0.21139283401188172  0.11601186611008528  0.6129289300112293  1.0000
  C   C6        1.0  0.7886073888139219  0.8839896612363631  0.11292885192403905  1.0000
  C   C7        1.0  0.2706689386216182  0.20199690898289188  0.6429352974266183  1.0000
  C   C8        1.0  0.7293309173878127  0.7980030527479016  0.14293523765214647  1.0000
  C   C9        1.0  0.2700510057588942  0.2016843717823065  0.7049962064138031  1.0000
  C   C10       1.0  0.7299482282793333  0.7983163344300763  0.2049956993166121  1.0000
  C   C11       1.0  0.11810969723467928  0.11758867676261528  0.5189096427211767  1.0000
  C   C12       1.0  0.8818919284087627  0.8824121248921131  0.018909997960165008  1.0000
  C   C13       1.0  0.12477035906159978  0.12511616040012535  0.45297959668204885  1.0000
  C   C14       1.0  0.8752317939546966  0.8748844581953745  0.9529799391670655  1.0000
  C   C15       1.0  0.2205141601586077  0.12604750716476323  0.42329251050137645  1.0000
  C   C16       1.0  0.7794863068284171  0.8739523380839171  0.9232919731090381  1.0000
  C   C17       1.0  0.31205048720511996  0.1198564070641055  0.45525044205565035  1.0000
  C   C18       1.0  0.6879493741833967  0.8801441957042613  0.9552508121569833  1.0000
  C   C19       1.0  0.3096850361771572  0.1134102210022263  0.52116975501842  1.0000
  C   C20       1.0  0.6903173517014592  0.8865905846216293  0.021169244246948406  1.0000
  C   C21       1.0  0.40505046857596455  0.12027386055443395  0.42515283056232545  1.0000
  C   C22       1.0  0.5949499973990982  0.8797259838883988  0.9251527675125789  1.0000
  C   C23       1.0  0.4089938572421659  0.12660469402378277  0.36259419230990647  1.0000
  C   C24       1.0  0.5910066427586427  0.8733951775148296  0.8625941305450983  1.0000
  C   C25       1.0  0.3200119818012296  0.1324573194996859  0.3301304823749903  1.0000
  C   C26       1.0  0.6799883606085967  0.8675417897901666  0.8301308550508681  1.0000
  C   C27       1.0  0.22438412509619343  0.1321949239927847  0.35970442802734953  1.0000
  C   C28       1.0  0.7756169646926593  0.8678041774357721  0.8597043390844521  1.0000
  C   C29       1.0  0.1322015494845985  0.1370733425170059  0.32768567799380593  1.0000
  C   C30       1.0  0.8677980307908723  0.8629257628840034  0.8276855757078894  1.0000
  C   C31       1.0  0.039630734773929484  0.1370136999391178  0.35792907519606854  1.0000
  C   C32       1.0  0.9603697677643765  0.8629861736201858  0.8579285117736294  1.0000
  C   C33       1.0  0.03606145087484689  0.1312627954307715  0.4205843076350676  1.0000
  C   C34       1.0  0.96393995629721  0.8687378322482219  0.9205841902428067  1.0000
  C   C35       1.0  0.13378489747444886  0.1412470765650085  0.2616737957278375  1.0000
  C   C36       1.0  0.866216245633552  0.8587520673232873  0.7616732469403475  1.0000
  C   C37       1.0  0.32577029699814364  0.1383177577423851  0.26422190188288414  1.0000
  C   C38       1.0  0.6742300812594733  0.8616813800942037  0.7642222760655247  1.0000
  C   C39       1.0  0.23543361637103993  0.1467599988212669  0.17025046392382145  1.0000
  C   C40       1.0  0.764566049533698  0.8532391747690653  0.6702503782348403  1.0000
  C   C41       1.0  0.28342936835343824  0.23895240684088748  0.14167868214322255  1.0000
  C   C42       1.0  0.7165704883394638  0.7610475554341817  0.6416786137466846  1.0000
  C   C43       1.0  0.28914510434713486  0.239366197145678  0.07959094103171793  1.0000
  C   C44       1.0  0.710855549579854  0.760633796969266  0.5795899791495034  1.0000
  C   C45       1.0  0.20166197213595888  0.0658680390767401  0.07448934985338702  1.0000
  C   C46       1.0  0.7983373328849337  0.9341327236613991  0.5744896974426015  1.0000
  C   C47       1.0  0.19287124301116162  0.0589616191261371  0.13640402685936692  1.0000
  C   C48       1.0  0.8071284413027227  0.9410375691239777  0.6364039251756071  1.0000
  C   C49       1.0  0.25324403821414165  0.3420361296763089  0.8835430621686489  1.0000
  C   C50       1.0  0.7467558621763712  0.6579645041505983  0.38354256786865204  1.0000
  C   C51       1.0  0.2532609271510608  0.45468759910453127  0.8760950135447207  1.0000
  C   C52       1.0  0.7467380385783072  0.5453122566909058  0.3760945315495052  1.0000
  C   C53       1.0  0.2443762940709177  0.49570726731489145  0.8181407001089486  1.0000
  C   C54       1.0  0.7556221149637279  0.5042933849438782  0.3181397740603417  1.0000
  C   C55       1.0  0.24080567468489278  0.5980659841865615  0.8109757271224753  1.0000
  C   C56       1.0  0.7591933264629631  0.4019338998137485  0.3109752589100766  1.0000
  C   C57       1.0  0.24527803716507882  0.6644738661262507  0.8612883568645207  1.0000
  C   C58       1.0  0.7547215248339396  0.3355252247206336  0.3612878965774088  1.0000
  C   C59       1.0  0.25509832506445207  0.6234114255983484  0.9199514752347543  1.0000
  C   C60       1.0  0.7449023189875487  0.376589197406865  0.41995145913704607  1.0000
  C   C61       1.0  0.25904143734471313  0.5180559756062166  0.925761892929238  1.0000
  C   C62       1.0  0.7409576766186773  0.4819446349867462  0.4257614187242426  1.0000
  C   C63       1.0  0.2390038738426909  0.769246006629956  0.8556174643999132  1.0000
  C   C64       1.0  0.7609958664886559  0.2307538629826951  0.3556170146099832  1.0000
  C   C65       1.0  0.242344038310783  0.8318373470283901  0.9055200160839266  1.0000
  C   C66       1.0  0.7576560253741035  0.16816405358906655  0.40552046802314134  1.0000
  C   C67       1.0  0.25339400199855777  0.7914402233283937  0.9634108275496377  1.0000
  C   C68       1.0  0.7466056797037975  0.2085595995961213  0.4634103823495297  1.0000
  C   C69       1.0  0.25944025684785277  0.6897176896400907  0.9703047997904197  1.0000
  C   C70       1.0  0.7405595963527954  0.3102829066080232  0.47030434439174246  1.0000
  C   C71       1.0  0.2344977258641237  0.9423867466677012  0.8986287266701684  1.0000
  C   C72       1.0  0.7655014028567919  0.05761387567714848  0.3986291895009872  1.0000
  C   C73       1.0  0.03937349429259739  0.12265027081303259  0.902041782821826  1.0000
  C   C74       1.0  0.9606269842526128  0.8773495836398053  0.40204167956625997  1.0000
  C   C75       1.0  0.9279929982028744  0.13049211992029802  0.9084281156657713  1.0000
  C   C76       1.0  0.07200653815673519  0.8695069505091128  0.4084276998314779  1.0000
  C   C77       1.0  0.867755562651773  0.13200247065425688  0.8578310700200692  1.0000
  C   C78       1.0  0.1322449399398024  0.8679974029474662  0.3578306452833005  1.0000
  C   C79       1.0  0.7629157344368591  0.1413250921755917  0.8623034804492351  1.0000
  C   C80       1.0  0.23708476572192433  0.8586747794888223  0.3623039353405846  1.0000
  C   C81       1.0  0.719283831274353  0.1488436595392244  0.9206374642390859  1.0000
  C   C82       1.0  0.2807168124045346  0.8511569631688686  0.42063746618812575  1.0000
  C   C83       1.0  0.783007928209983  0.14722722613336  0.9719245324161252  1.0000
  C   C84       1.0  0.21699192410968482  0.8527733694131996  0.47192409658526224  1.0000
  C   C85       1.0  0.8851248109979079  0.13877995829528794  0.9660506111800732  1.0000
  C   C86       1.0  0.11487486926854013  0.8612198634857721  0.46605063699361454  1.0000
  C   C87       1.0  0.6992888270441994  0.1427034019060684  0.8110535295114476  1.0000
  C   C88       1.0  0.30071170098965166  0.8572964919561484  0.3110535277802243  1.0000
  C   C89       1.0  0.5968830375419001  0.15029300553796787  0.81682727900499  1.0000
  C   C90       1.0  0.4031176625995271  0.8497076621330422  0.3168272626878022  1.0000
  C   C91       1.0  0.5537289609496766  0.15775343102331624  0.8744269676111431  1.0000
  C   C92       1.0  0.44627170786306175  0.8422472116996647  0.37442739280844983  1.0000
  C   C93       1.0  0.6141611245059834  0.1571799770405136  0.9251452031946176  1.0000
  C   C94       1.0  0.3858396919690675  0.8428214200247126  0.42514519023027486  1.0000
  C   C95       1.0  0.4411636984804088  0.16259896761085457  0.8806926331628805  1.0000
  C   C96       1.0  0.5588373798927933  0.8374001247270472  0.3806930419453921  1.0000
  N   N1        1.0  0.21426379682628036  0.1213644166130763  0.7366666063424322  1.0000
  N   N2        1.0  0.7857360082025334  0.878635504520233  0.2366665292720428  1.0000
  N   N3        1.0  0.2124975192301903  0.11485705359011432  0.5487684377949906  1.0000
  N   N4        1.0  0.78750332670878  0.8851437301841258  0.04876880694354922  1.0000
  N   N5        1.0  0.23107890509302814  0.14216986518927396  0.2344798248184788  1.0000
  N   N6        1.0  0.7689220775577608  0.8578285141677922  0.7344797379726844  1.0000
  N   N7        1.0  0.249986079859866  0.1541657761831985  0.04679809636800772  1.0000
  N   N8        1.0  0.7500123015103096  0.8458342172914399  0.5467980136783555  1.0000
  O   O1        1.0  0.037456487980016086  0.1155257035921267  0.5473825918140421  1.0000
  O   O2        1.0  0.9625441834649207  0.884474304472917  0.04738248749186623  1.0000
  O   O3        1.0  0.3858512435321657  0.1076055446102586  0.5517999640159206  1.0000
  O   O4        1.0  0.6141496007580682  0.8923952378510478  0.05179991127124592  1.0000
  O   O5        1.0  0.05688783415738637  0.14426336736353557  0.23069745755464782  1.0000
  O   O6        1.0  0.9431123870863086  0.8557350086838228  0.7306977919128248  1.0000
  O   O7        1.0  0.4054468628034939  0.13935039700329807  0.23522170932482578  1.0000
  O   O8        1.0  0.594553706475416  0.8606495297036858  0.7352216484179908  1.0000
  O   O9        1.0  0.4086018635821063  0.1752372108681826  0.9332211227528833  1.0000
  O   O10       1.0  0.5913987732525212  0.8247634063896073  0.43322108081851257  1.0000
  O   O11       1.0  0.3867905974246496  0.15151121503083687  0.8329580867046007  1.0000
  O   O12       1.0  0.6132082165187923  0.8484878831385957  0.33295848609187584  1.0000
  O   O13       1.0  0.07176377211715847  0.11065353485059859  0.8493531971902046  1.0000
  O   O14       1.0  0.9282359716213617  0.8893463374752955  0.3493526503045886  1.0000
  O   O15       1.0  0.09314478089603988  0.12923501437753515  0.949791981416752  1.0000
  O   O16       1.0  0.906854908213532  0.870764814445586  0.44979188697431755  1.0000
  O   O17       1.0  0.24358569389522697  0.9968178748913487  0.9461271549010921  1.0000
  O   O18       1.0  0.7564139972073816  0.003181955518883201  0.4461280722396312  1.0000
  O   O19       1.0  0.21860808922154004  0.973377552255812  0.8461887830703819  1.0000
  O   O20       1.0  0.7813913057419766  0.02662076882134561  0.3461892468938573  1.0000
  O   O21       1.0  0.26161495973876464  0.3093447013515984  0.9365509448203828  1.0000
  O   O22       1.0  0.7383832096443042  0.6906551233109467  0.4365504482105323  1.0000
  O   O23       1.0  0.2432224840490135  0.2873935300077973  0.8360821984486936  1.0000
  O   O24       1.0  0.7567772669076117  0.7126063480661029  0.33608169667299154  1.0000
