data_image0
_chemical_formula_structural       CdH20C26N4O10
_chemical_formula_sum              "Cd1 H20 C26 N4 O10"
_cell_length_a       7.872825139607299
_cell_length_b       8.835744047318952
_cell_length_c       9.710783436443307
_cell_angle_alpha    78.275038151284
_cell_angle_beta     77.66255799116283
_cell_angle_gamma    74.27621793274679

_space_group_name_H-M_alt    "P 1"
_space_group_IT_number       1

loop_
  _space_group_symop_operation_xyz
  'x, y, z'

loop_
  _atom_site_type_symbol
  _atom_site_label
  _atom_site_symmetry_multiplicity
  _atom_site_fract_x
  _atom_site_fract_y
  _atom_site_fract_z
  _atom_site_occupancy
  Cd  Cd1       1.0  0.9999964544592359  0.5000045453586995  0.4999997539805319  1.0000
  H   H1        1.0  0.4295897715054123  0.998386971119992  0.2391155004603433  1.0000
  H   H2        1.0  0.5704173457888545  0.0016319082462529972  0.7608827528546483  1.0000
  H   H3        1.0  0.2254165339900211  0.8276777470880959  0.14065789694194558  1.0000
  H   H4        1.0  0.7745928592393767  0.1723182026864977  0.859331219142433  1.0000
  H   H5        1.0  0.6866745656297084  0.48272652287233364  0.042350361848434694  1.0000
  H   H6        1.0  0.3133226254584187  0.5172661368395596  0.9576517800799988  1.0000
  H   H7        1.0  0.869009101055752  0.38533339939213834  0.9219252064233313  1.0000
  H   H8        1.0  0.13098937685288797  0.6146592833267804  0.07807774363293868  1.0000
  H   H9        1.0  0.6724582999834253  0.1539614725777128  0.3663348607383909  1.0000
  H   H10       1.0  0.3275313944085878  0.8460396782716942  0.6336730097486978  1.0000
  H   H11       1.0  0.2849592424784788  0.6954654502130142  0.3554165716031575  1.0000
  H   H12       1.0  0.7150403398592999  0.3045378567730524  0.6445809531494503  1.0000
  H   H13       1.0  0.3371652975102393  0.20909978949747912  0.4534381347855003  1.0000
  H   H14       1.0  0.6628234922384095  0.7909048542993349  0.5465660918858715  1.0000
  H   H15       1.0  0.6115033978324433  0.6638567806481321  0.25431505485723693  1.0000
  H   H16       1.0  0.38849448743950893  0.3361430383123505  0.7456865519620876  1.0000
  H   H17       1.0  0.1727203569015785  0.286902583106759  0.9971245373621541  1.0000
  H   H18       1.0  0.827279954786782  0.7130878958593531  0.0028857590457675207  1.0000
  H   H19       1.0  0.1922801000961415  0.3273111408930305  0.16486029688963547  1.0000
  H   H20       1.0  0.8077154008098474  0.6726876714811143  0.8351491263059359  1.0000
  C   C1        1.0  0.943502962257014  0.9255375631994912  0.14131169127630727  1.0000
  C   C2        1.0  0.05650545973375639  0.07445717378433162  0.8586768040321431  1.0000
  C   C3        1.0  0.12420103754146068  0.9043969111286928  0.08007131354625585  1.0000
  C   C4        1.0  0.8758079875448885  0.09559549722352763  0.9199196109726699  1.0000
  C   C5        1.0  0.8168427938572478  0.02388802715857001  0.05813340086053392  1.0000
  C   C6        1.0  0.18316495486748594  0.9761091657965724  0.9418578015040991  1.0000
  C   C7        1.0  0.8299605785558768  0.4667324257481696  0.0011405941513516278  1.0000
  C   C8        1.0  0.17003690004595032  0.5332590951158666  0.9988637896356564  1.0000
  C   C9        1.0  0.5889420124112307  0.27569509522757585  0.35756041839449887  1.0000
  C   C10       1.0  0.4110490249376539  0.7243059767570874  0.642444151207094  1.0000
  C   C11       1.0  0.6654081708148708  0.40525667577772856  0.2995438501349668  1.0000
  C   C12       1.0  0.33458482662055633  0.5947419632426546  0.7004588205382731  1.0000
  C   C13       1.0  0.37519040051681424  0.5780711746983516  0.3502725153878785  1.0000
  C   C14       1.0  0.6248016746659532  0.42193581581527445  0.6497296519498404  1.0000
  C   C15       1.0  0.4052517445916663  0.3050312162658529  0.4061275437804496  1.0000
  C   C16       1.0  0.5947357583364691  0.6949734045239355  0.5938758747630857  1.0000
  C   C17       1.0  0.5565413539281746  0.5597113301961871  0.2954677354419388  1.0000
  C   C18       1.0  0.44345916112116146  0.4402884329065842  0.7045313786197267  1.0000
  C   C19       1.0  0.9009096487724404  0.8410918042827265  0.2927302441848809  1.0000
  C   C20       1.0  0.09909550870198555  0.1589102012041863  0.7072624824043032  1.0000
  C   C21       1.0  0.8648218765084151  0.3741360342819249  0.2564052244557118  1.0000
  C   C22       1.0  0.13517429766361028  0.6258603221209075  0.7436014916836766  1.0000
  C   C23       1.0  0.619231379039782  0.06231359947670261  0.10549234980688739  1.0000
  C   C24       1.0  0.3807837188897595  0.9376850231761082  0.8945076229861892  1.0000
  C   C25       1.0  0.127116742999533  0.3742287179569601  0.07118010278054497  1.0000
  C   C26       1.0  0.8728800483021641  0.6257652843463292  0.9288280153159859  1.0000
  N   N1        1.0  0.3006565477746292  0.45374353291603603  0.4028768619871598  1.0000
  N   N2        1.0  0.6993374734605953  0.5462610501012508  0.5971244336755461  1.0000
  N   N3        1.0  0.9336850448540307  0.39730040990174603  0.11663413528582815  1.0000
  N   N4        1.0  0.06631341902051693  0.6026922982851208  0.8833698420237752  1.0000
  O   O1        1.0  0.8310364595423888  0.9208861608178297  0.3910738684852291  1.0000
  O   O2        1.0  0.1689833754756833  0.0791193590214192  0.6089146392888907  1.0000
  O   O3        1.0  0.9516798639874863  0.6884598711770168  0.30144723094466025  1.0000
  O   O4        1.0  0.0483158859569528  0.3115433158520844  0.6985458149177717  1.0000
  O   O5        1.0  0.9596835570918498  0.3231826856075771  0.3525087432663696  1.0000
  O   O6        1.0  0.04030715064106253  0.6768196016287792  0.6474966662366483  1.0000
  O   O7        1.0  0.5171058723186165  0.17872358891153797  0.050079457634318154  1.0000
  O   O8        1.0  0.48290089086670207  0.8212917235643787  0.9499195768618874  1.0000
  O   O9        1.0  0.5593009105077088  0.9567506139774339  0.2147024029391673  1.0000
  O   O10       1.0  0.4407051725278778  0.043257513781959724  0.7852961394128143  1.0000
