data_image0
_chemical_formula_structural       Ag4H32C24I4N8
_chemical_formula_sum              "Ag4 H32 C24 I4 N8"
_cell_length_a       4.4809088640292885
_cell_length_b       7.1082916970916825
_cell_length_c       26.305309360081804
_cell_angle_alpha    90.0003548295253
_cell_angle_beta     90.00004999115157
_cell_angle_gamma    89.99960636698658

_space_group_name_H-M_alt    "P 1"
_space_group_IT_number       1

loop_
  _space_group_symop_operation_xyz
  'x, y, z'

loop_
  _atom_site_type_symbol
  _atom_site_label
  _atom_site_symmetry_multiplicity
  _atom_site_fract_x
  _atom_site_fract_y
  _atom_site_fract_z
  _atom_site_occupancy
  Ag  Ag1       1.0  0.697763055472251  0.21821339439878784  0.2325617777161  1.0000
  Ag  Ag2       1.0  0.8022846856918945  0.7817750906213518  0.7325408991243165  1.0000
  Ag  Ag3       1.0  0.30227128363191724  0.7181982667305606  0.2674505938820886  1.0000
  Ag  Ag4       1.0  0.19774929120872997  0.28182114424861743  0.7674484354187996  1.0000
  H   H1        1.0  0.27864121534585  0.5152499287186103  0.1698761666810071  1.0000
  H   H2        1.0  0.2214065099698672  0.4847480008992021  0.6698626411541327  1.0000
  H   H3        1.0  0.7214645331113304  0.0151921795777312  0.3301278136579313  1.0000
  H   H4        1.0  0.7785091921314163  0.9848121596004518  0.8301271014537761  1.0000
  H   H5        1.0  0.8724382669963758  0.10638062018063009  0.12019389102803052  1.0000
  H   H6        1.0  0.6276076685980884  0.8936114355137051  0.6201830500677873  1.0000
  H   H7        1.0  0.12764416473800108  0.6063275030274725  0.37981141298039484  1.0000
  H   H8        1.0  0.37231796010878065  0.3936756761371782  0.8798133520400953  1.0000
  H   H9        1.0  0.7415493964695514  0.18282599714294892  0.028528035792234605  1.0000
  H   H10       1.0  0.7584567163912226  0.8171587536481653  0.5285159539816036  1.0000
  H   H11       1.0  0.25857683047188834  0.6827571128638825  0.4714774219002891  1.0000
  H   H12       1.0  0.24139387346678384  0.31725055763477866  0.9714780135246244  1.0000
  H   H13       1.0  0.929066654874454  0.655004438996812  0.1048507835261034  1.0000
  H   H14       1.0  0.5709257783599426  0.34498452239199645  0.6048418577075836  1.0000
  H   H15       1.0  0.0710442554619632  0.1549366100650786  0.39515385792721247  1.0000
  H   H16       1.0  0.42892450614183997  0.8450907655981295  0.8951525459073225  1.0000
  H   H17       1.0  0.9786641592663874  0.6004491348268672  0.039405015398017405  1.0000
  H   H18       1.0  0.5213686926579087  0.39952878096687516  0.5393950386034021  1.0000
  H   H19       1.0  0.021447349580910203  0.10038271714110891  0.4606033178890385  1.0000
  H   H20       1.0  0.47851446883591103  0.899626161134151  0.9606013754257745  1.0000
  H   H21       1.0  0.10690612812643963  0.9338969083661225  0.05033262485577691  1.0000
  H   H22       1.0  0.39313535555723433  0.0660889856265143  0.5503194680397812  1.0000
  H   H23       1.0  0.893183868921632  0.43383498125758996  0.44967675896910464  1.0000
  H   H24       1.0  0.6067737810757095  0.5661757663974641  0.9496686725859079  1.0000
  H   H25       1.0  0.4476970494286547  0.8126011246445375  0.0410842492340322  1.0000
  H   H26       1.0  0.0523199208459104  0.1873649048283212  0.5410719577550722  1.0000
  H   H27       1.0  0.5523920466863216  0.31253520566499304  0.4589248907252781  1.0000
  H   H28       1.0  0.9475633365425155  0.6874757112795249  0.9589187076192971  1.0000
  H   H29       1.0  0.3422469596009067  0.8822782971047618  0.1034066973429404  1.0000
  H   H30       1.0  0.15778762782917974  0.11768887300428328  0.6033939285827614  1.0000
  H   H31       1.0  0.6578502988379357  0.3822135974082742  0.396603723157213  1.0000
  H   H32       1.0  0.8421120157332782  0.6178130605439948  0.8965958364241331  1.0000
  C   C1        1.0  0.3102958271032392  0.48553451296537986  0.08749353485055879  1.0000
  C   C2        1.0  0.18970757685789857  0.5144605021382205  0.587483857674826  1.0000
  C   C3        1.0  0.6898248471404713  0.9854669145705942  0.4125060688544337  1.0000
  C   C4        1.0  0.8101351755400117  0.014536118809374398  0.9125087409453981  1.0000
  C   C5        1.0  0.38366724684066605  0.44181404589555473  0.138050599918671  1.0000
  C   C6        1.0  0.11637613591839371  0.5581636058625463  0.6380303365094945  1.0000
  C   C7        1.0  0.6164293583556812  0.9417627196665848  0.3619614608951167  1.0000
  C   C8        1.0  0.883557636268364  0.058247829337013016  0.861958168336308  1.0000
  C   C9        1.0  0.7119702377863035  0.21609500117453706  0.1105077111408193  1.0000
  C   C10       1.0  0.7880511858826864  0.7839109453328065  0.6104932936073767  1.0000
  C   C11       1.0  0.28813553884526755  0.7160441845648863  0.3895008546631473  1.0000
  C   C12       1.0  0.21183324430382558  0.28396479910612976  0.8894968055099853  1.0000
  C   C13       1.0  0.6381212459145545  0.25793597775941624  0.0603517038058712  1.0000
  C   C14       1.0  0.8619092948850237  0.7420423213822642  0.5603372322047946  1.0000
  C   C15       1.0  0.3619840718117047  0.7578632524697111  0.4396508636736555  1.0000
  C   C16       1.0  0.13796889928475764  0.2421480559962603  0.9396539232420764  1.0000
  C   C17       1.0  0.0958719854023187  0.6402865232383023  0.0744449501765061  1.0000
  C   C18       1.0  0.40414262658752165  0.3596927781064919  0.5744327682884247  1.0000
  C   C19       1.0  0.904234623057299  0.1402114460183697  0.4255630830412755  1.0000
  C   C20       1.0  0.5957275816946889  0.8598115215984165  0.9255605244594136  1.0000
  C   C21       1.0  0.2571953811912806  0.8286112441014379  0.0670090309389479  1.0000
  C   C22       1.0  0.24283488080103416  0.17137354833819532  0.5669964047325351  1.0000
  C   C23       1.0  0.7429069294344331  0.3285426242365191  0.43299900075400904  1.0000
  C   C24       1.0  0.7570485521198691  0.6714678181995384  0.9329938483237257  1.0000
  I   I1        1.0  0.8048630206492221  0.8286592100338623  0.21042999905957774  1.0000
  I   I2        1.0  0.6951691824249765  0.1713598198470407  0.7104234357990864  1.0000
  I   I3        1.0  0.19516341170684373  0.32863815295043963  0.2895879166983875  1.0000
  I   I4        1.0  0.3048771643788228  0.6713872902787229  0.7895732797692929  1.0000
  N   N1        1.0  0.4390336885410875  0.39215279533032543  0.048759081448025696  1.0000
  N   N2        1.0  0.0609854843023143  0.6078161882150114  0.5487457380422427  1.0000
  N   N3        1.0  0.561081315063909  0.8920934938310268  0.4512471772482058  1.0000
  N   N4        1.0  0.93888302399818  0.10792290987406973  0.9512489490601369  1.0000
  N   N5        1.0  0.5840201692294898  0.3082809318975207  0.149393843907589  1.0000
  N   N6        1.0  0.9160189605138029  0.6917172855101087  0.6493857557200684  1.0000
  N   N7        1.0  0.4160622791811051  0.8082218191024568  0.35061186600906075  1.0000
  N   N8        1.0  0.083917809883026  0.19178926643740374  0.8506140420099301  1.0000
