data_image0
_chemical_formula_structural       AlH15C24N6O6
_chemical_formula_sum              "Al1 H15 C24 N6 O6"
_cell_length_a       3.9289715085341226
_cell_length_b       15.788681116970109
_cell_length_c       15.947640071064663
_cell_angle_alpha    59.473551833027166
_cell_angle_beta     91.22671488161606
_cell_angle_gamma    87.37320556048466

_space_group_name_H-M_alt    "P 1"
_space_group_IT_number       1

loop_
  _space_group_symop_operation_xyz
  'x, y, z'

loop_
  _atom_site_type_symbol
  _atom_site_label
  _atom_site_symmetry_multiplicity
  _atom_site_fract_x
  _atom_site_fract_y
  _atom_site_fract_z
  _atom_site_occupancy
  Al  Al1       1.0  0.9931658477389576  0.49628565168519867  0.501246428760318  1.0000
  H   H1        1.0  0.6670146490682638  0.9552332251349329  0.1491986125965781  1.0000
  H   H2        1.0  0.7261020007170202  0.3935430701348253  0.9585536254175016  1.0000
  H   H3        1.0  0.7841305606413369  0.14783203444098092  0.3900796421014834  1.0000
  H   H4        1.0  0.19617371860906727  0.4788509400819408  0.25755370906764347  1.0000
  H   H5        1.0  0.2038701079911789  0.39780388110933274  0.15694792430860366  1.0000
  H   H6        1.0  0.24033199816985026  0.2577187374871031  0.7651917309789912  1.0000
  H   H7        1.0  0.23526270798488017  0.1612211623386912  0.9476418139367202  1.0000
  H   H8        1.0  0.18353729957894427  0.7694461648484959  0.474292417562744  1.0000
  H   H9        1.0  0.1949997912631503  0.9534693654812897  0.39076169902730135  1.0000
  H   H10       1.0  0.7981124364285748  0.6905256599361563  0.26987549081189866  1.0000
  H   H11       1.0  0.8765431586325931  0.8018135325455307  0.1700477888461123  1.0000
  H   H12       1.0  0.9231083797801319  0.26643949350813767  0.5303833018791553  1.0000
  H   H13       1.0  0.037375055410365135  0.16832234823748846  0.5158936875790874  1.0000
  H   H14       1.0  0.8708187038068826  0.5286997131561932  0.7002045647793339  1.0000
  H   H15       1.0  0.9580903488141104  0.5171555671476826  0.8118377519652145  1.0000
  C   C1        1.0  0.4565492560564904  0.6495743917914962  0.4207007343597626  1.0000
  C   C2        1.0  0.5005927020924544  0.41773793795314873  0.428814968653903  1.0000
  C   C3        1.0  0.5112913615881354  0.4249441144739309  0.6524123526574004  1.0000
  C   C4        1.0  0.44345388976657313  0.7581205670733199  0.3633088196396984  1.0000
  C   C5        1.0  0.5080828804375983  0.3755623679692377  0.7593976814391825  1.0000
  C   C6        1.0  0.5085572984285561  0.36364839024046364  0.37594401790892823  1.0000
  C   C7        1.0  0.5848469072388623  0.8098616574651061  0.2700335982508619  1.0000
  C   C8        1.0  0.5656653358809294  0.9134187178973079  0.22130716203817263  1.0000
  C   C9        1.0  0.6525212449917747  0.4155926854156888  0.8134637916198035  1.0000
  C   C10       1.0  0.6243353761731996  0.3637281371525418  0.9153895702724175  1.0000
  C   C11       1.0  0.6860082085697313  0.2695031819831897  0.4145430535451808  1.0000
  C   C12       1.0  0.6609575253250951  0.2214387220374832  0.3607577230278025  1.0000
  C   C13       1.0  0.3328310323653198  0.40754571217610913  0.28414611023315217  1.0000
  C   C14       1.0  0.3343498555389459  0.36284655094029006  0.22872040523545695  1.0000
  C   C15       1.0  0.3539530197669407  0.2851322536512058  0.8089492113222152  1.0000
  C   C16       1.0  0.3487924560662989  0.231972472897546  0.9094302768796895  1.0000
  C   C17       1.0  0.2961498563050853  0.811234773565097  0.40391895778810066  1.0000
  C   C18       1.0  0.3002308055222684  0.91282921736385  0.3578567462348021  1.0000
  C   C19       1.0  0.4349561276697854  0.9642407677436182  0.26501922504044023  1.0000
  C   C20       1.0  0.4466580542416878  0.07256710382557689  0.21277920895520452  1.0000
  C   C21       1.0  0.48129921040846574  0.27277546459354335  0.962957332787049  1.0000
  C   C22       1.0  0.4706535208407558  0.2182114814400435  0.07030132836431596  1.0000
  C   C23       1.0  0.49336611854959506  0.2675157427656814  0.2690379721627991  1.0000
  C   C24       1.0  0.4792278225298788  0.21510567779126435  0.21439352917202115  1.0000
  N   N1        1.0  0.4485116820906896  0.1201552976848959  0.11491093426814565  1.0000
  N   N2        1.0  0.48543205276622814  0.2693944708238831  0.1166916846300552  1.0000
  N   N3        1.0  0.4609476386379542  0.11658788731237729  0.2661053586720855  1.0000
  N   N4        1.0  0.7201187109620832  0.7626273413039828  0.22452830984794053  1.0000
  N   N5        1.0  0.8589920152954278  0.22215302618391766  0.5041925846262957  1.0000
  N   N6        1.0  0.7978022872323365  0.5047732031149438  0.7691424664438531  1.0000
  O   O1        1.0  0.2860620596290104  0.4034526683969091  0.6080790975099577  1.0000
  O   O2        1.0  0.23456035121304109  0.6071848126547933  0.48411563794580564  1.0000
  O   O3        1.0  0.2525638309655989  0.4817187365188929  0.40852548629829505  1.0000
  O   O4        1.0  0.737256648032435  0.4871685878607082  0.6075110458534001  1.0000
  O   O5        1.0  0.7424629212218078  0.39880168141559835  0.4930371899823458  1.0000
  O   O6        1.0  0.6956006306625823  0.6015354198046126  0.40478488063414636  1.0000
