data_image0
_chemical_formula_structural       Ca2H12C12N4Cl4O2
_chemical_formula_sum              "Ca2 H12 C12 N4 Cl4 O2"
_cell_length_a       3.9202074194860628
_cell_length_b       8.08318562101616
_cell_length_c       15.09791225443585
_cell_angle_alpha    90.00001194491385
_cell_angle_beta     96.85846234608148
_cell_angle_gamma    89.99976677158556

_space_group_name_H-M_alt    "P 1"
_space_group_IT_number       1

loop_
  _space_group_symop_operation_xyz
  'x, y, z'

loop_
  _atom_site_type_symbol
  _atom_site_label
  _atom_site_symmetry_multiplicity
  _atom_site_fract_x
  _atom_site_fract_y
  _atom_site_fract_z
  _atom_site_occupancy
  Ca  Ca1       1.0  0.5455567400728754  0.0751159033963944  0.1397222912829292  1.0000
  Ca  Ca2       1.0  0.5455615794627989  0.9248836985484701  0.639723220740244  1.0000
  H   H1        1.0  0.4001341397534901  0.4745303482230696  0.08734900727082362  1.0000
  H   H2        1.0  0.4001448415702741  0.52546828806733  0.5873487487104186  1.0000
  H   H3        1.0  0.47709438516753994  0.6863701980094917  0.9707335198327913  1.0000
  H   H4        1.0  0.47709782425005903  0.3136296765987651  0.4707315374633723  1.0000
  H   H5        1.0  0.6341428908539798  0.592851187548945  0.823355574271794  1.0000
  H   H6        1.0  0.6341378464311094  0.4071483108189041  0.32335334655883236  1.0000
  H   H7        1.0  0.5940182075500147  0.08968576396857487  0.9184929272929524  1.0000
  H   H8        1.0  0.5940295633352122  0.9103138539228368  0.41849256570864674  1.0000
  H   H9        1.0  0.9095289451759072  0.29747599472376146  0.6591071396679524  1.0000
  H   H10       1.0  0.9095266090963534  0.702525356513952  0.1591063469017442  1.0000
  H   H11       1.0  0.9230371191757175  0.47288456150896246  0.7288324669594389  1.0000
  H   H12       1.0  0.9230362281263355  0.5271155537883061  0.22883103798080381  1.0000
  C   C1        1.0  0.5963085866947537  0.5021926722200475  0.8747387157025344  1.0000
  C   C2        1.0  0.5963130572216286  0.49781063465448466  0.3747361200094304  1.0000
  C   C3        1.0  0.6230261386918345  0.33208396669731843  0.8595134502740294  1.0000
  C   C4        1.0  0.6230317974462097  0.6679168059062234  0.3595128939728269  1.0000
  C   C5        1.0  0.5714020215680551  0.22269646681872493  0.9286186246206471  1.0000
  C   C6        1.0  0.5714093622365227  0.7772994893318953  0.4286194542142426  1.0000
  C   C7        1.0  0.4651233980458046  0.4378887751330253  0.0218267297003862  1.0000
  C   C8        1.0  0.4651337758832881  0.5621109407485535  0.5218251403201748  1.0000
  C   C9        1.0  0.6973086255991917  0.2588726395890076  0.7732040011878498  1.0000
  C   C10       1.0  0.697313667047233  0.7411267111557435  0.2732027712042324  1.0000
  C   C11       1.0  0.5090580651219555  0.5555467414467897  0.9568472807192024  1.0000
  C   C12       1.0  0.5090604390334194  0.44445306314655403  0.4568466039305221  1.0000
  N   N1        1.0  0.5007035457643668  0.2738209963066112  0.008990849971219501  1.0000
  N   N2        1.0  0.5007125626315486  0.7261798798418866  0.508989235863929  1.0000
  N   N3        1.0  0.8475429671615018  0.35307172387243924  0.7162162960160074  1.0000
  N   N4        1.0  0.8475436715105718  0.6469322497056067  0.21621625136029374  1.0000
  Cl  Cl1       1.0  0.013690087739895803  0.8970312350447002  0.0559606001244219  1.0000
  Cl  Cl2       1.0  0.013694057309159301  0.1029681665988349  0.555962747502555  1.0000
  Cl  Cl3       1.0  0.08133479891555603  0.2633231242484797  0.2147659021714929  1.0000
  Cl  Cl4       1.0  0.08135147652198782  0.736674968715093  0.7147671683261905  1.0000
  O   O1        1.0  0.6164208501761693  0.1105809355085583  0.7559491966719989  1.0000
  O   O2        1.0  0.6164221122892003  0.8894210453575866  0.2559491925531958  1.0000
