data_image0
_chemical_formula_structural       Ba2H28C20O26
_chemical_formula_sum              "Ba2 H28 C20 O26"
_cell_length_a       6.595942412639866
_cell_length_b       6.662334005353068
_cell_length_c       19.15514238000743
_cell_angle_alpha    89.99996691461779
_cell_angle_beta     90.00010010275408
_cell_angle_gamma    116.15542351364589

_space_group_name_H-M_alt    "P 1"
_space_group_IT_number       1

loop_
  _space_group_symop_operation_xyz
  'x, y, z'

loop_
  _atom_site_type_symbol
  _atom_site_label
  _atom_site_symmetry_multiplicity
  _atom_site_fract_x
  _atom_site_fract_y
  _atom_site_fract_z
  _atom_site_occupancy
  Ba  Ba1       1.0  0.6043247757204567  0.4175939052624215  0.7499997841917289  1.0000
  Ba  Ba2       1.0  0.3956754347631772  0.5824054112080148  0.2499992442155231  1.0000
  H   H1        1.0  0.11757710453503728  0.5771620833874636  0.6224594569668864  1.0000
  H   H2        1.0  0.1175717527631477  0.5771588641093715  0.8775397849041577  1.0000
  H   H3        1.0  0.8824246115545478  0.42284057744718934  0.37754061554652185  1.0000
  H   H4        1.0  0.8824246809225754  0.42283879842612027  0.12245976555515625  1.0000
  H   H5        1.0  0.7417976127806228  0.8835559600935455  0.5049360803716707  1.0000
  H   H6        1.0  0.7417974262632611  0.8835561569741867  0.9950645176210383  1.0000
  H   H7        1.0  0.25820183850992606  0.11644503768278719  0.4950645141942472  1.0000
  H   H8        1.0  0.25819976022543756  0.11644317774340608  0.004935554891346798  1.0000
  H   H9        1.0  0.6744723585592282  0.030566587824516493  0.627127357844145  1.0000
  H   H10       1.0  0.6744684871457594  0.030566709334273405  0.8728728556636933  1.0000
  H   H11       1.0  0.32553087592499697  0.9694327103995588  0.37287271467006616  1.0000
  H   H12       1.0  0.3255317233421095  0.9694326071367667  0.12712773890262943  1.0000
  H   H13       1.0  0.47084393991723766  0.08606580901823688  0.6140550830072724  1.0000
  H   H14       1.0  0.4708408984048874  0.086064259238043  0.885944996257066  1.0000
  H   H15       1.0  0.5291592945669804  0.9139334892058455  0.38594498950693873  1.0000
  H   H16       1.0  0.5291615768820108  0.9139367202913176  0.11405507625674716  1.0000
  H   H17       1.0  0.15022213524028422  0.5385815819763096  0.7500001568491752  1.0000
  H   H18       1.0  0.8497780752475849  0.4614177344947237  0.2500004377171478  1.0000
  H   H19       1.0  0.0383026391183563  0.2759642390399222  0.7499996285091297  1.0000
  H   H20       1.0  0.9616968121693715  0.7240367587360054  0.2499999219507457  1.0000
  H   H21       1.0  0.4542814622494546  0.8406498022127451  0.7092101259259916  1.0000
  H   H22       1.0  0.45427941806799754  0.8406481704053659  0.7907892637361652  1.0000
  H   H23       1.0  0.5457210130374435  0.15935117731662268  0.2907899465878144  1.0000
  H   H24       1.0  0.5457215452200188  0.15935281824737757  0.2092108087771861  1.0000
  H   H25       1.0  0.06832257243286924  0.9797373370458047  0.7098312382618911  1.0000
  H   H26       1.0  0.06831976569397101  0.9797373860677466  0.7901678898751141  1.0000
  H   H27       1.0  0.9316806556555902  0.020265314665465394  0.2901688342519647  1.0000
  H   H28       1.0  0.9316796855937568  0.020263611708180897  0.20983166058476133  1.0000
  C   C1        1.0  0.926260039550968  0.633523148114321  0.5412877581830811  1.0000
  C   C2        1.0  0.9262581508123875  0.63351997277978  0.9587119590255565  1.0000
  C   C3        1.0  0.07374318853749161  0.3664795035969559  0.4587123143307819  1.0000
  C   C4        1.0  0.07373979487221752  0.3664776806323288  0.041287591434205184  1.0000
  C   C5        1.0  0.8565856155192363  0.5866749995966456  0.47063726227924707  1.0000
  C   C6        1.0  0.8565844221569562  0.586674830554351  0.029363069045793087  1.0000
  C   C7        1.0  0.14341534776878714  0.4133259890560978  0.5293628102341044  1.0000
  C   C8        1.0  0.14341201153158775  0.4133228319815387  0.9706375255195706  1.0000
  C   C9        1.0  0.06670597650087726  0.5444526390958444  0.5680437701826901  1.0000
  C   C10       1.0  0.06670243105076416  0.5444494523858339  0.9319570140364274  1.0000
  C   C11       1.0  0.9332949867871391  0.45554834955689943  0.4319563023306612  1.0000
  C   C12       1.0  0.9332947618365143  0.45554652884496966  0.06804410258236257  1.0000
  C   C13       1.0  0.8726147174239713  0.7760146405926419  0.5928623894720955  1.0000
  C   C14       1.0  0.8726125433385974  0.7760147792312965  0.9071377877209057  1.0000
  C   C15       1.0  0.1273869986656138  0.223988020242011  0.40713768304130565  1.0000
  C   C16       1.0  0.12738540234600748  0.22398287418081245  0.09286176273886326  1.0000
  C   C17       1.0  0.705196290020723  0.6599022298605987  0.429531798054583  1.0000
  C   C18       1.0  0.7051945661827548  0.6599004201293257  0.07046790473747677  1.0000
  C   C19       1.0  0.2948046732658868  0.3400987587919461  0.570467752405747  1.0000
  C   C20       1.0  0.2948018675043755  0.3400972424063652  0.9295321677748587  1.0000
  O   O1        1.0  0.9026600721463822  0.7550889398092906  0.6567355881626253  1.0000
  O   O2        1.0  0.9026590581925262  0.755092373874973  0.8432646114977795  1.0000
  O   O3        1.0  0.09734164394319579  0.24491372102536246  0.343264484350783  1.0000
  O   O4        1.0  0.0973403930980226  0.2449086239013525  0.15673598306813824  1.0000
  O   O5        1.0  0.8079473693980856  0.9206115068199096  0.569955712322162  1.0000
  O   O6        1.0  0.8079453192095302  0.9206116630088061  0.9300449177769675  1.0000
  O   O7        1.0  0.19205359388993773  0.0793894818328411  0.43004436019118925  1.0000
  O   O8        1.0  0.1920518672791616  0.079387671708794  0.06995515473541757  1.0000
  O   O9        1.0  0.6702327966812974  0.8290230607582456  0.4521283129468897  1.0000
  O   O10       1.0  0.670233215429846  0.8290228967736366  0.04787289962861509  1.0000
  O   O11       1.0  0.3297666546092515  0.1709779370180797  0.5478722816190282  1.0000
  O   O12       1.0  0.3297654830591484  0.1709764288207793  0.9521276949372458  1.0000
  O   O13       1.0  0.6185030196362575  0.5639147396900555  0.37428030019761127  1.0000
  O   O14       1.0  0.6185008418360239  0.5639113001080958  0.12571937041946055  1.0000
  O   O15       1.0  0.38149794365317286  0.4360862489628942  0.6257202943687614  1.0000
  O   O16       1.0  0.3814963446512607  0.43608803460930545  0.8742801800399032  1.0000
  O   O17       1.0  0.5630093332120722  0.067731391699418  0.6518825527277554  1.0000
  O   O18       1.0  0.5630053343004704  0.0677281407556265  0.8481175858804303  1.0000
  O   O19       1.0  0.43699389487639445  0.932271260011859  0.3481175197861005  1.0000
  O   O20       1.0  0.43699714098643466  0.9322728387737411  0.1518824866333758  1.0000
  O   O21       1.0  0.0006719267859551713  0.404665271626591  0.7500016919501388  1.0000
  O   O22       1.0  0.9993275308989453  0.5953323726623407  0.249998380563106  1.0000
  O   O23       1.0  0.4233926248712975  0.7387371051563033  0.7499996961692046  1.0000
  O   O24       1.0  0.5766083384167189  0.26126388349644  0.2500003763441469  1.0000
  O   O25       1.0  0.1439925864771894  0.0788680744890229  0.7499991588659254  1.0000
  O   O26       1.0  0.8560083768080062  0.9211329141633227  0.24999986954137643  1.0000
