data_image0
_chemical_formula_structural       Zn4H32C56I12N20O16
_chemical_formula_sum              "Zn4 H32 C56 I12 N20 O16"
_cell_length_a       8.269296694662037
_cell_length_b       14.224943695469777
_cell_length_c       16.405284057863124
_cell_angle_alpha    90.00006970402333
_cell_angle_beta     89.99985608753425
_cell_angle_gamma    90.00049222870078

_space_group_name_H-M_alt    "P 1"
_space_group_IT_number       1

loop_
  _space_group_symop_operation_xyz
  'x, y, z'

loop_
  _atom_site_type_symbol
  _atom_site_label
  _atom_site_symmetry_multiplicity
  _atom_site_fract_x
  _atom_site_fract_y
  _atom_site_fract_z
  _atom_site_occupancy
  Zn  Zn1       1.0  0.6419381875386918  0.797128528532305  0.09607050220711244  1.0000
  Zn  Zn2       1.0  0.35807201237632574  0.29713160192870447  0.9039312225821237  1.0000
  Zn  Zn3       1.0  0.8580730532436717  0.7971312084953439  0.5960743821041491  1.0000
  Zn  Zn4       1.0  0.1419153793068659  0.2971247041297644  0.4039224661993971  1.0000
  H   H1        1.0  0.8628358341912872  0.3417476667335749  0.9191756169033102  1.0000
  H   H2        1.0  0.13716668112290617  0.8417521843686516  0.08082919889441342  1.0000
  H   H3        1.0  0.6371693237745221  0.3417534905897384  0.4191784268411853  1.0000
  H   H4        1.0  0.3628247270797829  0.8417597172958865  0.5808166359030411  1.0000
  H   H5        1.0  0.003804450830294601  0.2703781990229217  0.9644064616855845  1.0000
  H   H6        1.0  0.9961965751777414  0.7703759201149581  0.03560108868865092  1.0000
  H   H7        1.0  0.49618812283549835  0.27038101910687123  0.46440371665932656  1.0000
  H   H8        1.0  0.503797182947416  0.770385050849093  0.5355904233005264  1.0000
  H   H9        1.0  0.5436337773213326  0.8934199667390317  0.812578509677238  1.0000
  H   H10       1.0  0.45633374491031026  0.3934145643544156  0.18743174587391565  1.0000
  H   H11       1.0  0.9563552929140614  0.8933987493205108  0.3125707607230269  1.0000
  H   H12       1.0  0.0436618093258474  0.3934027406993295  0.6874224274456823  1.0000
  H   H13       1.0  0.683538263812224  0.0456560700436555  0.8873904991887047  1.0000
  H   H14       1.0  0.3164393945973885  0.5456495214873129  0.11261685566140053  1.0000
  H   H15       1.0  0.8164608939936497  0.04563895376112011  0.38737559686965295  1.0000
  H   H16       1.0  0.18355787980392788  0.5456434385572351  0.6126079853653013  1.0000
  H   H17       1.0  0.35266257066707857  0.679009301321365  0.9626574291173002  1.0000
  H   H18       1.0  0.6473403700134668  0.17901931421239686  0.03735250000075041  1.0000
  H   H19       1.0  0.1473472466139967  0.6790093563666916  0.4626621003694354  1.0000
  H   H20       1.0  0.8526556935396528  0.17900379335249988  0.5373453906079678  1.0000
  H   H21       1.0  0.32433115528592543  0.7631032425907947  0.8106131553933695  1.0000
  H   H22       1.0  0.6756584659315407  0.2631137365085721  0.18939692545768597  1.0000
  H   H23       1.0  0.17566998380617355  0.7630902403692518  0.3106130409994635  1.0000
  H   H24       1.0  0.8243498685554796  0.2630922919273147  0.6893915540813469  1.0000
  H   H25       1.0  0.8828168965119545  0.1243764950675441  0.9859244249218126  1.0000
  H   H26       1.0  0.11719059194776803  0.6243743591166577  0.014074616073017406  1.0000
  H   H27       1.0  0.6172026112263894  0.12436854340116811  0.4859119319662783  1.0000
  H   H28       1.0  0.3828242254995472  0.6243647356972559  0.5140682128204406  1.0000
  H   H29       1.0  0.8908375653662547  0.004633876526710902  0.12041442989489334  1.0000
  H   H30       1.0  0.10918552405163949  0.5046362404711716  0.8795830831305766  1.0000
  H   H31       1.0  0.6091852369473261  0.004637288775811  0.6204065403566974  1.0000
  H   H32       1.0  0.39082092231818427  0.5046265012782883  0.3795757336893432  1.0000
  C   C1        1.0  0.7234461652703389  0.6102809126677615  0.10636057669525202  1.0000
  C   C2        1.0  0.2765482199318826  0.11028916231287408  0.8936477865162833  1.0000
  C   C3        1.0  0.7765538656322022  0.6102847533966269  0.606361757209058  1.0000
  C   C4        1.0  0.22343931049749705  0.11028532140060322  0.39362710009019264  1.0000
  C   C5        1.0  0.8275522324031216  0.5218959736645488  0.10467404312034742  1.0000
  C   C6        1.0  0.17244186231021527  0.0219008180830258  0.8953323941393097  1.0000
  C   C7        1.0  0.6724414995992518  0.5218970790362789  0.6046773283658171  1.0000
  C   C8        1.0  0.3275574323239425  0.0218961975804461  0.39531447949114124  1.0000
  C   C9        1.0  0.9274466945009507  0.49871831843036324  0.17092739382870556  1.0000
  C   C10       1.0  0.07254772586706082  0.9987131796915634  0.829085792182852  1.0000
  C   C11       1.0  0.5725438797754164  0.4987088954681553  0.6709242635168595  1.0000
  C   C12       1.0  0.4274662617827047  0.9987247112432487  0.32906149232008647  1.0000
  C   C13       1.0  0.0046201547424900005  0.4111140487246559  0.1761247967096154  1.0000
  C   C14       1.0  0.9953716130471479  0.9111174587920986  0.8238779195260124  1.0000
  C   C15       1.0  0.49536845896098924  0.41111407038221875  0.6761285069398968  1.0000
  C   C16       1.0  0.5046390297435578  0.9111195459640412  0.3238711615090325  1.0000
  C   C17       1.0  0.9888776868614925  0.3486379626443322  0.11102213664841545  1.0000
  C   C18       1.0  0.011122904074802901  0.8486482347882712  0.8889832012143519  1.0000
  C   C19       1.0  0.5111204101789611  0.34864277128846066  0.6110224668160387  1.0000
  C   C20       1.0  0.4888910641602067  0.8486342871063998  0.3889743372863849  1.0000
  C   C21       1.0  0.9074770626820765  0.37317078529488873  0.038008180349635316  1.0000
  C   C22       1.0  0.09252044978147468  0.8731757118221921  0.9619986748384692  1.0000
  C   C23       1.0  0.5925196043065312  0.37317373178947827  0.5380099904213796  1.0000
  C   C24       1.0  0.4074766991462582  0.873176983165088  0.4619852831037507  1.0000
  C   C25       1.0  0.8220956251748532  0.45959283103478304  0.03862619822358941  1.0000
  C   C26       1.0  0.1778923626778592  0.9595979355124129  0.9613746835590863  1.0000
  C   C27       1.0  0.6778915030915941  0.45959596778644846  0.5386362060830694  1.0000
  C   C28       1.0  0.3220880198428874  0.9595990167818942  0.46136650433837206  1.0000
  C   C29       1.0  0.1080818086869684  0.3839237662148848  0.2492643745085133  1.0000
  C   C30       1.0  0.8919055910990111  0.8839293187523724  0.7507435632966524  1.0000
  C   C31       1.0  0.39190441368128154  0.3839210432567485  0.7492647055039402  1.0000
  C   C32       1.0  0.6081228927084082  0.8839278233994818  0.2507346985561442  1.0000
  C   C33       1.0  0.4130655873518521  0.7405610776107849  0.9388745540599434  1.0000
  C   C34       1.0  0.5869320917840355  0.24056538904134328  0.06113703207898882  1.0000
  C   C35       1.0  0.0869407145861985  0.7405535569133121  0.4388741553697174  1.0000
  C   C36       1.0  0.9130642196529735  0.2405518198827395  0.5611282875192034  1.0000
  C   C37       1.0  0.4006194158752551  0.7802280553343622  0.8622026444179911  1.0000
  C   C38       1.0  0.5993690142731224  0.28023088707616484  0.13780660956346946  1.0000
  C   C39       1.0  0.09938299558398002  0.7802126245182635  0.3622010665249179  1.0000
  C   C40       1.0  0.9006320380023782  0.28021608904018075  0.637800872974623  1.0000
  C   C41       1.0  0.5679743770919002  0.8639769667337162  0.9371849290412302  1.0000
  C   C42       1.0  0.43200675510562553  0.36397508163845055  0.06282691933395773  1.0000
  C   C43       1.0  0.9320206531903921  0.8639659377664942  0.43717771161400537  1.0000
  C   C44       1.0  0.0679822458380741  0.3639685355206623  0.5628170692360259  1.0000
  C   C45       1.0  0.6770486077649593  0.9321862715319541  0.9698046485770891  1.0000
  C   C46       1.0  0.3229362054475118  0.43218248548812005  0.030203895830943815  1.0000
  C   C47       1.0  0.8229481579787148  0.9321767957821337  0.46979342435418675  1.0000
  C   C48       1.0  0.1770547943287255  0.4321771981046894  0.5301943951468504  1.0000
  C   C49       1.0  0.8236340159050924  0.0576829120643154  0.9969425449230658  1.0000
  C   C50       1.0  0.17636627226596602  0.5576804194649795  0.0030585616899259007  1.0000
  C   C51       1.0  0.6763780428065543  0.05767411766633051  0.4969308511190323  1.0000
  C   C52       1.0  0.3236391750018299  0.5576702328074461  0.5030507497311875  1.0000
  C   C53       1.0  0.8284936418605966  0.9971290694785536  0.06270954861127363  1.0000
  C   C54       1.0  0.17151396713988734  0.49712983238551806  0.9372908568018307  1.0000
  C   C55       1.0  0.671518179774161  0.9971273760456398  0.5627006396936169  1.0000
  C   C56       1.0  0.32848942903407174  0.49712098079921657  0.43728330767456225  1.0000
  I   I1        1.0  0.6975322788179454  0.5001200602602296  0.9308699689803536  1.0000
  I   I2        1.0  0.3024638824899029  0.0001243622538354  0.0691379637961447  1.0000
  I   I3        1.0  0.8024622025682008  0.5001256391433914  0.4308708702306846  1.0000
  I   I4        1.0  0.1975279128194387  0.000127219089471  0.5691157278931487  1.0000
  I   I5        1.0  0.9768670968941322  0.6011305044144849  0.2608003049717952  1.0000
  I   I6        1.0  0.023138725029440404  0.1011322923287352  0.7392014692839057  1.0000
  I   I7        1.0  0.5231166983144034  0.6011288152459641  0.7608043309930823  1.0000
  I   I8        1.0  0.4768951700977908  0.10113468444468773  0.23919744326783401  1.0000
  I   I9        1.0  0.0968561685254059  0.2142733879807892  0.11918356487836235  1.0000
  I   I10       1.0  0.9031372071693083  0.714272202671694  0.880822259347973  1.0000
  I   I11       1.0  0.40313896648773107  0.21426769310313895  0.6191802745112159  1.0000
  I   I12       1.0  0.5968568278061852  0.7142757884826807  0.38081762545630243  1.0000
  N   N1        1.0  0.9069516625896129  0.3140472340258427  0.9718284109800168  1.0000
  N   N2        1.0  0.0930464480514104  0.8140499373552359  0.02817736596949061  1.0000
  N   N3        1.0  0.5930479020316496  0.31404946819004204  0.47182925092307243  1.0000
  N   N4        1.0  0.4069441625470063  0.8140554360213628  0.5281655538931036  1.0000
  N   N5        1.0  0.5161627954745142  0.7936879014975775  0.9854410856356426  1.0000
  N   N6        1.0  0.4838290181571948  0.2936871403955336  0.014567387975304803  1.0000
  N   N7        1.0  0.9838418268564624  0.7936810556353676  0.48544012977790646  1.0000
  N   N8        1.0  0.016157242107659904  0.29367852030151204  0.5145567623085441  1.0000
  N   N9        1.0  0.5005641888941736  0.8578100779222454  0.8623863991837557  1.0000
  N   N10       1.0  0.49941287337907886  0.35781011144812425  0.13762308920715335  1.0000
  N   N11       1.0  0.9994284597674225  0.8577945740863913  0.3623812264156286  1.0000
  N   N12       1.0  0.0005848804732124999  0.35779890126140396  0.6376154614492651  1.0000
  N   N13       1.0  0.72665272114844  0.015601322650766698  0.9393630379792062  1.0000
  N   N14       1.0  0.273333666183916  0.5155971767528484  0.060643479219997715  1.0000
  N   N15       1.0  0.7733479458454511  0.0155883353150159  0.43935165487300065  1.0000
  N   N16       1.0  0.226663836092861  0.5155883709928801  0.5606335279157408  1.0000
  N   N17       1.0  0.738168968697373  0.9188698234234778  0.04473398507939661  1.0000
  N   N18       1.0  0.2618294014113829  0.41886754507194013  0.9552686327627671  1.0000
  N   N19       1.0  0.7618340197879049  0.9188640318638548  0.5447290228960854  1.0000
  N   N20       1.0  0.2381655592815193  0.4188592766633406  0.4552583560447873  1.0000
  O   O1        1.0  0.7971059621011846  0.6897055352689493  0.09382642411918603  1.0000
  O   O2        1.0  0.20290258234934558  0.18970523859805868  0.9061754450352884  1.0000
  O   O3        1.0  0.7029073016575039  0.6897026920047156  0.5938322451975184  1.0000
  O   O4        1.0  0.2970939870094824  0.18970597290050514  0.4061653570408269  1.0000
  O   O5        1.0  0.5760087450239694  0.6020423512560812  0.12060519340293044  1.0000
  O   O6        1.0  0.42398746803456083  0.10204751783205523  0.8793983979214135  1.0000
  O   O7        1.0  0.9239843270384471  0.6020426864788248  0.620606846258646  1.0000
  O   O8        1.0  0.076004630057966  0.10203663765376798  0.3793815061285458  1.0000
  O   O9        1.0  0.031158780883373503  0.3358171019988988  0.30367690305701006  1.0000
  O   O10       1.0  0.9688179140403294  0.8358197849128146  0.6963261593055707  1.0000
  O   O11       1.0  0.4688179269269597  0.33581609567015397  0.8036793091361578  1.0000
  O   O12       1.0  0.5312010931101341  0.8358165729793116  0.1963219246419002  1.0000
  O   O13       1.0  0.2534831649746039  0.4080817235485553  0.2514765462452219  1.0000
  O   O14       1.0  0.7465108040038259  0.9080878971182429  0.7485341327402398  1.0000
  O   O15       1.0  0.24650594871192774  0.4080768532012015  0.7514758018911397  1.0000
  O   O16       1.0  0.7535170431947619  0.9080885492680654  0.24853000068999634  1.0000
