data_image0
_chemical_formula_structural       La4H44C24O28
_chemical_formula_sum              "La4 H44 C24 O28"
_cell_length_a       8.54635080348116
_cell_length_b       9.817068854967172
_cell_length_c       13.337586602489257
_cell_angle_alpha    87.02105600020721
_cell_angle_beta     75.4699026562492
_cell_angle_gamma    75.35468996383469

_space_group_name_H-M_alt    "P 1"
_space_group_IT_number       1

loop_
  _space_group_symop_operation_xyz
  'x, y, z'

loop_
  _atom_site_type_symbol
  _atom_site_label
  _atom_site_symmetry_multiplicity
  _atom_site_fract_x
  _atom_site_fract_y
  _atom_site_fract_z
  _atom_site_occupancy
  La  La1       1.0  0.2583215334414959  0.9954429426332821  0.9828284304541269  1.0000
  La  La2       1.0  0.7416823615510921  0.004561525748847798  0.017176550515301883  1.0000
  La  La3       1.0  0.4224994627184771  0.8797350313995334  0.646548667665769  1.0000
  La  La4       1.0  0.5774939811457857  0.12026414905709264  0.35345214492644317  1.0000
  H   H1        1.0  0.6715980317897134  0.6589488509243323  0.14535702009536777  1.0000
  H   H2        1.0  0.32841388589505277  0.3410535045801878  0.8546347914933746  1.0000
  H   H3        1.0  0.529418552359509  0.7541716299323226  0.2531276071509012  1.0000
  H   H4        1.0  0.470596676128288  0.245819155606064  0.7468731196371508  1.0000
  H   H5        1.0  0.48714256678718476  0.6013706098570779  0.20860356498135954  1.0000
  H   H6        1.0  0.5128769475650329  0.3986222795223212  0.7913904155658003  1.0000
  H   H7        1.0  0.7800377717800302  0.37579620586167545  0.14808724953232394  1.0000
  H   H8        1.0  0.21996688505748102  0.6241977232057037  0.8519127599112295  1.0000
  H   H9        1.0  0.7393022121188295  0.38820296283945044  0.02402265301917338  1.0000
  H   H10       1.0  0.2606984625245162  0.6117962287843922  0.9759785301023384  1.0000
  H   H11       1.0  0.8762844373651648  0.4843749016743643  0.05178119155657156  1.0000
  H   H12       1.0  0.1237143970999455  0.5156263952741823  0.9482209494941856  1.0000
  H   H13       1.0  0.06342920150103744  0.3518560251205897  0.8238912278349204  1.0000
  H   H14       1.0  0.9365837644488552  0.6481463491040528  0.17611316573456992  1.0000
  H   H15       1.0  0.916505138348832  0.2574650143772245  0.8153208917898596  1.0000
  H   H16       1.0  0.0835029587174959  0.7425457761019912  0.18468094648891048  1.0000
  H   H17       1.0  0.002768451678960604  0.349684471655813  0.7045654128958034  1.0000
  H   H18       1.0  0.9972429768466853  0.6503231651387366  0.2954375234117208  1.0000
  H   H19       1.0  0.9439183000369268  0.7022426018807195  0.6124139708726305  1.0000
  H   H20       1.0  0.056070274943770856  0.29776499483048013  0.3875842864288614  1.0000
  H   H21       1.0  0.9626579341611502  0.6413848147145698  0.7367613486175841  1.0000
  H   H22       1.0  0.03733008237099974  0.35861646244854467  0.2632379829985609  1.0000
  H   H23       1.0  0.08815973249215162  0.5390581583176796  0.6236781388335544  1.0000
  H   H24       1.0  0.9118280104379293  0.46094416771789065  0.37631819696141383  1.0000
  H   H25       1.0  0.9137211383561166  0.10614839638620309  0.5222510349047411  1.0000
  H   H26       1.0  0.08627627920670738  0.8938497316777612  0.4777461978513315  1.0000
  H   H27       1.0  0.8829291195049153  0.11094292805698557  0.6601787014095919  1.0000
  H   H28       1.0  0.11707314995023678  0.8890552040800086  0.3398162743208459  1.0000
  H   H29       1.0  0.7622538772880533  0.24592630556578138  0.5944432893039533  1.0000
  H   H30       1.0  0.23774265266911243  0.7540707670440268  0.4055533718551771  1.0000
  H   H31       1.0  0.7153019200048191  0.6661902728563618  0.9080854339201493  1.0000
  H   H32       1.0  0.2846936197322378  0.3338099645784495  0.09191576161937581  1.0000
  H   H33       1.0  0.7011207321765696  0.507081576529515  0.8539577183104611  1.0000
  H   H34       1.0  0.2988726937801971  0.4929218151024485  0.14604143933712518  1.0000
  H   H35       1.0  0.5418468991010384  0.5964282755345279  0.9606013524576866  1.0000
  H   H36       1.0  0.4581537661304154  0.40357091710084336  0.03940058187737349  1.0000
  H   H37       1.0  0.24184638082366663  0.04356344727720799  0.219875670763372  1.0000
  H   H38       1.0  0.7581521791231085  0.9564346893915284  0.7801266318379375  1.0000
  H   H39       1.0  0.05229639449409261  0.10404371739815589  0.2133664626655687  1.0000
  H   H40       1.0  0.94770070149098  0.89595125544367  0.7866346877088192  1.0000
  H   H41       1.0  0.7297347592773137  0.7693650540201914  0.4570911693962074  1.0000
  H   H42       1.0  0.27026079836724637  0.2306309722392753  0.5429116810879435  1.0000
  H   H43       1.0  0.6872341226708585  0.635310586127474  0.523795597185682  1.0000
  H   H44       1.0  0.3127608868532974  0.3646833287246379  0.4762044190278374  1.0000
  C   C1        1.0  0.45003795900431964  0.7858947874696581  0.11277564767644316  1.0000
  C   C2        1.0  0.549970267079587  0.21410336139126673  0.8872251457277968  1.0000
  C   C3        1.0  0.5387440414930751  0.6925373797200364  0.18459169549397808  1.0000
  C   C4        1.0  0.4612693665565216  0.3074597182722485  0.8154053294244861  1.0000
  C   C5        1.0  0.9778098040275935  0.260459112937319  0.029431115954572807  1.0000
  C   C6        1.0  0.022191712078253555  0.7395453483506172  0.9705712374599145  1.0000
  C   C7        1.0  0.8357586362650764  0.38643910397675524  0.06529718094949291  1.0000
  C   C8        1.0  0.1642423317203666  0.6135632459038262  0.9347023381943629  1.0000
  C   C9        1.0  0.1682109434559251  0.1583201283989268  0.7384471153318869  1.0000
  C   C10       1.0  0.8317924034162587  0.8416822285758413  0.26155503136691044  1.0000
  C   C11       1.0  0.029820200002511437  0.2877093315623468  0.7715136497696236  1.0000
  C   C12       1.0  0.9701893883449061  0.7123004105569064  0.2284902444671458  1.0000
  C   C13       1.0  0.16810360538502062  0.7219975717025093  0.649533150752184  1.0000
  C   C14       1.0  0.8318899043624273  0.27800160167337395  0.35046240334516915  1.0000
  C   C15       1.0  0.03362423391234872  0.6455942732848214  0.6562118612924053  1.0000
  C   C16       1.0  0.966366492496185  0.3544101651830829  0.3437854290468181  1.0000
  C   C17       1.0  0.6895038607498448  0.052715724330916196  0.6072627834985128  1.0000
  C   C18       1.0  0.3104974740402328  0.9472813574095934  0.39273537670273834  1.0000
  C   C19       1.0  0.8212036405083651  0.1328318906242814  0.5964622487319957  1.0000
  C   C20       1.0  0.17879682549983042  0.8671641336390009  0.4035338374452023  1.0000
  C   C21       1.0  0.5383538501641354  0.6965441354271816  0.81530535917895  1.0000
  C   C22       1.0  0.46163380805899124  0.30345819971220306  0.1846977375379808  1.0000
  C   C23       1.0  0.6308151240809466  0.6102204201176914  0.8879685949811602  1.0000
  C   C24       1.0  0.3691816145113762  0.38977981985266996  0.1120331631222768  1.0000
  O   O1        1.0  0.5059075591847774  0.8924624885676095  0.07234277044677379  1.0000
  O   O2        1.0  0.49409858985009686  0.10753460129206617  0.9276561375830426  1.0000
  O   O3        1.0  0.3231697347171192  0.7629768742631882  0.09095976191005659  1.0000
  O   O4        1.0  0.6768387932045029  0.23702022269068118  0.9090417736746943  1.0000
  O   O5        1.0  0.9458873373867575  0.13814954559416037  0.030601957168244123  1.0000
  O   O6        1.0  0.054117208340684946  0.8618528139161724  0.9694007520944795  1.0000
  O   O7        1.0  0.1267667853913466  0.2707434150855478  0.9990877698579652  1.0000
  O   O8        1.0  0.8732374208508419  0.7292600003779837  0.0009172020784333404  1.0000
  O   O9        1.0  0.218961886035494  0.0713596966337704  0.8048788274885652  1.0000
  O   O10       1.0  0.7810426596919483  0.9286426628765554  0.19512388177415121  1.0000
  O   O11       1.0  0.2355952315023586  0.1322455093075874  0.6420180257334209  1.0000
  O   O12       1.0  0.7644000243044857  0.8677515688589423  0.35798408257020486  1.0000
  O   O13       1.0  0.13364846768281774  0.8341067699147472  0.7064787491814571  1.0000
  O   O14       1.0  0.8663459296702811  0.16589345891528498  0.2935173765128382  1.0000
  O   O15       1.0  0.31134672446960826  0.6793366048133718  0.5891881577169116  1.0000
  O   O16       1.0  0.6886419710330428  0.3206625604433384  0.410806648551862  1.0000
  O   O17       1.0  0.6146315282604746  0.0551878066368801  0.53522189113081  1.0000
  O   O18       1.0  0.38536402088846694  0.9448124297863886  0.46477855319515987  1.0000
  O   O19       1.0  0.6493463360792123  0.9835088392297487  0.6897082803602714  1.0000
  O   O20       1.0  0.3506541299289765  0.01648718503353311  0.31028780581692667  1.0000
  O   O21       1.0  0.44226779591636506  0.8198203544947232  0.8441225075421812  1.0000
  O   O22       1.0  0.5577333627967178  0.18018937392174905  0.15588045360136957  1.0000
  O   O23       1.0  0.5550660023317918  0.6501988717298558  0.7252254836894565  1.0000
  O   O24       1.0  0.4449050137534415  0.34980239320073986  0.27478324994353187  1.0000
  O   O25       1.0  0.16813395776574677  0.06332146907128329  0.1706630985149218  1.0000
  O   O26       1.0  0.8318666801463196  0.936681935750961  0.8293379320890679  1.0000
  O   O27       1.0  0.6912896913213232  0.7328235578280695  0.5285258089152549  1.0000
  O   O28       1.0  0.3087104060496983  0.2671693162707527  0.4714779509480138  1.0000
