data_image0
_chemical_formula_structural       Ag4H24C28N20
_chemical_formula_sum              "Ag4 H24 C28 N20"
_cell_length_a       6.638074559031228
_cell_length_b       9.606411767471043
_cell_length_c       12.538218701928471
_cell_angle_alpha    106.26859040979777
_cell_angle_beta     89.99965328676653
_cell_angle_gamma    90.00007804866988

_space_group_name_H-M_alt    "P 1"
_space_group_IT_number       1

loop_
  _space_group_symop_operation_xyz
  'x, y, z'

loop_
  _atom_site_type_symbol
  _atom_site_label
  _atom_site_symmetry_multiplicity
  _atom_site_fract_x
  _atom_site_fract_y
  _atom_site_fract_z
  _atom_site_occupancy
  Ag  Ag1       1.0  0.33378552533842054  0.600352169688513  0.2843581425330868  1.0000
  Ag  Ag2       1.0  0.8337831157894727  0.39964715824535796  0.21564021437037434  1.0000
  Ag  Ag3       1.0  0.6662151370592398  0.3996467122829088  0.7156404631855222  1.0000
  Ag  Ag4       1.0  0.16621453368553324  0.6003549769008599  0.7843590889064558  1.0000
  H   H1        1.0  0.31526045560433147  0.2914419162836523  0.7862694264490813  1.0000
  H   H2        1.0  0.8152601724508274  0.7085586519438036  0.7137301995089657  1.0000
  H   H3        1.0  0.6847402067883054  0.7085591347847852  0.21373044193386895  1.0000
  H   H4        1.0  0.18473747702841337  0.291444567279818  0.2862685386567847  1.0000
  H   H5        1.0  0.2730411400135396  0.30197140694794916  0.6537050655367196  1.0000
  H   H6        1.0  0.7730393397692267  0.6980291717261835  0.8462946995761769  1.0000
  H   H7        1.0  0.7269610288355253  0.6980296444343709  0.3462956004725868  1.0000
  H   H8        1.0  0.22695680324086712  0.30197079495133744  0.15370493629647086  1.0000
  H   H9        1.0  0.18485618602703371  0.8364661277396124  0.43316790528277943  1.0000
  H   H10       1.0  0.6848595186093005  0.1635332373577754  0.06683174010228748  1.0000
  H   H11       1.0  0.8151399569782994  0.1635349236434465  0.5668327607364603  1.0000
  H   H12       1.0  0.31514114377564084  0.8364623923814206  0.9331685609495677  1.0000
  H   H13       1.0  0.43070883359912665  0.7931012558570101  0.7404850707569465  1.0000
  H   H14       1.0  0.9307085682801954  0.20689711439352004  0.7595121143969263  1.0000
  H   H15       1.0  0.5692918288030383  0.20689762580033738  0.2595127373328268  1.0000
  H   H16       1.0  0.06929661346769932  0.7931061073417139  0.24049300478709768  1.0000
  H   H17       1.0  0.4567935977458221  0.0596134773887584  0.8118737332764566  1.0000
  H   H18       1.0  0.9567910398123729  0.9403848867218727  0.6881241635362015  1.0000
  H   H19       1.0  0.5432085711085294  0.9403843205050677  0.18812543755075237  1.0000
  H   H20       1.0  0.0432096225664935  0.059617249680243796  0.31187833025100525  1.0000
  H   H21       1.0  0.2224352610328069  0.10252193924174688  0.5020101708786696  1.0000
  H   H22       1.0  0.7224366538257527  0.8974786516395313  0.9979889633940856  1.0000
  H   H23       1.0  0.7775638948898874  0.8974791124550091  0.49799129276443194  1.0000
  H   H24       1.0  0.2775625021199772  0.1025202297039343  0.0020080470693315984  1.0000
  C   C1        1.0  0.33643427507038143  0.0995351080348073  0.6628183204870053  1.0000
  C   C2        1.0  0.8364374892267392  0.9004654546390328  0.837180438048797  1.0000
  C   C3        1.0  0.6635633743961479  0.900464858956596  0.3371821130119912  1.0000
  C   C4        1.0  0.1635646796276191  0.0995323432547934  0.1628187327784119  1.0000
  C   C5        1.0  0.273882687527653  0.638777045921344  0.5445646131724047  1.0000
  C   C6        1.0  0.7738850284969487  0.36122244846664836  0.9554357142710613  1.0000
  C   C7        1.0  0.7261134554779362  0.36122292107024373  0.45543582032907887  1.0000
  C   C8        1.0  0.22611563387317088  0.6387786041721311  0.044568142256068144  1.0000
  C   C9        1.0  0.2475697354150412  0.8846003306009819  0.5157008668930557  1.0000
  C   C10       1.0  0.7475727808012068  0.11540350786353318  0.9843004773461813  1.0000
  C   C11       1.0  0.7524264075855244  0.11540180548762181  0.4843008292727688  1.0000
  C   C12       1.0  0.25242938802508524  0.8845986294805993  0.01570440932505326  1.0000
  C   C13       1.0  0.3798344974782922  0.860975534342181  0.6890526645202469  1.0000
  C   C14       1.0  0.8798350264441767  0.13902393382996786  0.8109473137153529  1.0000
  C   C15       1.0  0.6201631519882298  0.1390244326492223  0.3109477689787497  1.0000
  C   C16       1.0  0.12016714237761053  0.8609782038282319  0.18905837058471767  1.0000
  C   C17       1.0  0.39616047124189185  0.010432830843541296  0.7291020312868923  1.0000
  C   C18       1.0  0.896164606351853  0.9895644641915453  0.7708966304689822  1.0000
  C   C19       1.0  0.603832658846862  0.9895649670514075  0.2708971395552097  1.0000
  C   C20       1.0  0.10384057541907768  0.010436587190398  0.22910403553535724  1.0000
  C   C21       1.0  0.2658872577161588  0.0342002630799598  0.5545023236977754  1.0000
  C   C22       1.0  0.7658878690392115  0.9657927266236612  0.9454958373656408  1.0000
  C   C23       1.0  0.7341118982120847  0.965796450736832  0.44549741224547995  1.0000
  C   C24       1.0  0.2341112868988233  0.03420073339056979  0.05450160576668139  1.0000
  C   C25       1.0  0.30215136426332384  0.7949994679482585  0.5824718614870504  1.0000
  C   C26       1.0  0.8021568435543217  0.20499893379696488  0.9175249497462729  1.0000
  C   C27       1.0  0.697843272290598  0.2049994140239093  0.417526744241492  1.0000
  C   C28       1.0  0.1978483382261373  0.7949999481738885  0.0824736559648898  1.0000
  N   N1        1.0  0.28242333045150764  0.5545741820094605  0.43873239938544367  1.0000
  N   N2        1.0  0.7824227525082178  0.4454284118073558  0.06126682435500188  1.0000
  N   N3        1.0  0.7175773319453641  0.44542795313638084  0.5612669038864269  1.0000
  N   N4        1.0  0.21757640342269718  0.554575892435693  0.9387337415836965  1.0000
  N   N5        1.0  0.22976552431434533  0.5535477637332775  0.6105001530983429  1.0000
  N   N6        1.0  0.7297657618932049  0.44645174094291906  0.8894987244984589  1.0000
  N   N7        1.0  0.7702336316178844  0.4464511185523961  0.389499250251589  1.0000
  N   N8        1.0  0.27023339403954344  0.5535449725598055  0.11050021381596047  1.0000
  N   N9        1.0  0.34859735940516856  0.2502545481652874  0.7030684617947641  1.0000
  N   N10       1.0  0.8485962166628481  0.7497438433447172  0.7969313868815816  1.0000
  N   N11       1.0  0.6514017965225563  0.7497443344344532  0.29693173918400356  1.0000
  N   N12       1.0  0.15140293927335344  0.2502572074098381  0.20306768387501248  1.0000
  N   N13       1.0  0.21159182385913058  0.4166437961796063  0.543744862980418  1.0000
  N   N14       1.0  0.7115900664765106  0.5833557126795553  0.9562532768902655  1.0000
  N   N15       1.0  0.7884103449991997  0.5833561701831016  0.45625397525346045  1.0000
  N   N16       1.0  0.2884090894694822  0.41664208427243915  0.04374350105540259  1.0000
  N   N17       1.0  0.242542644395968  0.41721812882752823  0.44098572027480987  1.0000
  N   N18       1.0  0.7425423579528853  0.5827823060741368  0.0590131698740066  1.0000
  N   N19       1.0  0.7574595244620995  0.5827829219266575  0.5590133504768245  1.0000
  N   N20       1.0  0.2574567979875583  0.41721982875782965  0.9409853357715077  1.0000
