data_image0
_chemical_formula_structural       H28Pb2C20N8O12
_chemical_formula_sum              "H28 Pb2 C20 N8 O12"
_cell_length_a       8.190947322934266
_cell_length_b       8.444834335261499
_cell_length_c       11.290671961560642
_cell_angle_alpha    81.53240020491933
_cell_angle_beta     77.9827981448773
_cell_angle_gamma    66.43752546922805

_space_group_name_H-M_alt    "P 1"
_space_group_IT_number       1

loop_
  _space_group_symop_operation_xyz
  'x, y, z'

loop_
  _atom_site_type_symbol
  _atom_site_label
  _atom_site_symmetry_multiplicity
  _atom_site_fract_x
  _atom_site_fract_y
  _atom_site_fract_z
  _atom_site_occupancy
  H   H1        1.0  0.9232065154907828  0.9989519489206842  0.7838580921321139  1.0000
  H   H2        1.0  0.07679191502994341  0.001044977345443999  0.2161416566378521  1.0000
  H   H3        1.0  0.9214015989799478  0.21124663268968646  0.7727853975317417  1.0000
  H   H4        1.0  0.0785998176228873  0.7887462007930635  0.22721867457160982  1.0000
  H   H5        1.0  0.9841417145161983  0.0709706552059473  0.9026282735346882  1.0000
  H   H6        1.0  0.01585372319780736  0.929024736563974  0.09737742981253923  1.0000
  H   H7        1.0  0.30846740486744306  0.18458762260894454  0.784093384645594  1.0000
  H   H8        1.0  0.6915259628443025  0.8154101542210695  0.2159168675832603  1.0000
  H   H9        1.0  0.6084383756967  0.27577304557379273  0.8806345283132587  1.0000
  H   H10       1.0  0.3915596895794593  0.7242406547622764  0.11936459457940171  1.0000
  H   H11       1.0  0.5089339300608843  0.12058214468893877  0.9008522331914436  1.0000
  H   H12       1.0  0.49107343578542384  0.8794230180198994  0.0991346362183378  1.0000
  H   H13       1.0  0.6742131833725792  0.09622747795793166  0.9886090013796508  1.0000
  H   H14       1.0  0.32579379221243704  0.9037788552966717  0.01138048149164207  1.0000
  H   H15       1.0  0.15232016913877544  0.28360958623524357  0.026843555132273902  1.0000
  H   H16       1.0  0.8476838695179436  0.7163795263562702  0.9731568886822474  1.0000
  H   H17       1.0  0.19310309078291246  0.8171263531896357  0.6356187722050279  1.0000
  H   H18       1.0  0.8069001504897171  0.18286793479386174  0.3643813178204099  1.0000
  H   H19       1.0  0.5702349507183017  0.36891983566464853  0.1367878589818545  1.0000
  H   H20       1.0  0.4297749105451913  0.6310889133824771  0.863204467368732  1.0000
  H   H21       1.0  0.012139601081386779  0.1899779334362961  0.4749399147376252  1.0000
  H   H22       1.0  0.9878605874284857  0.8100212873055456  0.5250655335245611  1.0000
  H   H23       1.0  0.8332808531034104  0.15896587567925022  0.5551955316985301  1.0000
  H   H24       1.0  0.16671710361386974  0.8410358954080762  0.44481093139096833  1.0000
  H   H25       1.0  0.6600219866644108  0.5376440271170608  0.3011013784374655  1.0000
  H   H26       1.0  0.33997841345494345  0.46235702266488227  0.6988923415967889  1.0000
  H   H27       1.0  0.4728954245881525  0.7026897978896186  0.3428061608012385  1.0000
  H   H28       1.0  0.5271074514399173  0.29732126416381277  0.6571933033468867  1.0000
  Pb  Pb1       1.0  0.7177346383105955  0.5598054787944661  0.5461579781525928  1.0000
  Pb  Pb2       1.0  0.2822778996688769  0.44020026537234697  0.4538430520200478  1.0000
  C   C1        1.0  0.9936778522198467  0.07583989388310637  0.8036548242425212  1.0000
  C   C2        1.0  0.0063183869558756  0.9241595414071638  0.19634682286833544  1.0000
  C   C3        1.0  0.18520684566835396  0.013194481981585697  0.742897639369204  1.0000
  C   C4        1.0  0.8147881849228681  0.9868049146345682  0.2571050967274147  1.0000
  C   C5        1.0  0.32141419636153057  0.0735100950661334  0.7401458513953115  1.0000
  C   C6        1.0  0.6785890018165478  0.9264878258714543  0.259859223001726  1.0000
  C   C7        1.0  0.472745548523271  0.965089560678315  0.6642459754017055  1.0000
  C   C8        1.0  0.5272469199701108  0.0349070895745172  0.3357609853242565  1.0000
  C   C9        1.0  0.656252436107657  0.9672069615096601  0.6257959782901139  1.0000
  C   C10       1.0  0.34374664565199  0.03279852252722289  0.37421349667164355  1.0000
  C   C11       1.0  0.558452985441079  0.19137745144183063  0.9487811215326262  1.0000
  C   C12       1.0  0.4415481925538955  0.808624848881344  0.05121323946379161  1.0000
  C   C13       1.0  0.4143332946869621  0.29044848105517923  0.04443766431982249  1.0000
  C   C14       1.0  0.5856591152810182  0.709567446997269  0.9555701579253438  1.0000
  C   C15       1.0  0.23061730371969696  0.3233394902931294  0.07385565412253209  1.0000
  C   C16       1.0  0.7694023211151515  0.6766410301136717  0.9261323923617512  1.0000
  C   C17       1.0  0.1668926117410692  0.4205818983554933  0.17721769475894433  1.0000
  C   C18       1.0  0.8330930621872665  0.5794125093318953  0.8227835048499659  1.0000
  C   C19       1.0  0.9843650492990579  0.48120118609614326  0.2543001448482299  1.0000
  C   C20       1.0  0.015631214679089622  0.5187846399954379  0.7456894793191894  1.0000
  N   N1        1.0  0.4318024655010292  0.8461521082252117  0.622547670056278  1.0000
  N   N2        1.0  0.5682008776058752  0.15384848172744367  0.37745535768296173  1.0000
  N   N3        1.0  0.2594989320558909  0.8757396009637259  0.6726187836237686  1.0000
  N   N4        1.0  0.7405037781042267  0.12426240746277975  0.32738155649551  1.0000
  N   N5        1.0  0.30236270567660034  0.44896035355265695  0.20897116484069758  1.0000
  N   N6        1.0  0.6976401075341344  0.5510315546652007  0.7910247872474871  1.0000
  N   N7        1.0  0.4488705553452661  0.36992439136965766  0.12769281597052637  1.0000
  N   N8        1.0  0.5511206734876238  0.630074297177245  0.8722982044317932  1.0000
  O   O1        1.0  0.7744691140472783  0.8439535877083698  0.5643210721276404  1.0000
  O   O2        1.0  0.2255288231615395  0.15605460931216436  0.4356856781349308  1.0000
  O   O3        1.0  0.6857408114615353  0.09186521624294389  0.6558709225402739  1.0000
  O   O4        1.0  0.31425436141154256  0.9081404410210111  0.3441356347837328  1.0000
  O   O5        1.0  0.9726581578372305  0.5416652656443687  0.3549493113883885  1.0000
  O   O6        1.0  0.02734273437770443  0.4583409155609813  0.6450447328981569  1.0000
  O   O7        1.0  0.8559087482006049  0.46827572242963095  0.21552741532888578  1.0000
  O   O8        1.0  0.14407751414930917  0.5317080891929322  0.7844799984118681  1.0000
  O   O9        1.0  0.8763662778131619  0.23197103055576204  0.4882444730211973  1.0000
  O   O10       1.0  0.12363583577013057  0.7680231361109194  0.51175847301716  1.0000
  O   O11       1.0  0.5432249474681612  0.5769067664706353  0.3617990976513711  1.0000
  O   O12       1.0  0.4567734271741415  0.4231058459623752  0.6381956447526207  1.0000
