data_image0
_chemical_formula_structural       Cd2H40C28N8O12
_chemical_formula_sum              "Cd2 H40 C28 N8 O12"
_cell_length_a       9.27850542546509
_cell_length_b       9.27850288056006
_cell_length_c       10.980040412013478
_cell_angle_alpha    73.97550525583394
_cell_angle_beta     73.97547851178608
_cell_angle_gamma    82.68452119204589

_space_group_name_H-M_alt    "P 1"
_space_group_IT_number       1

loop_
  _space_group_symop_operation_xyz
  'x, y, z'

loop_
  _atom_site_type_symbol
  _atom_site_label
  _atom_site_symmetry_multiplicity
  _atom_site_fract_x
  _atom_site_fract_y
  _atom_site_fract_z
  _atom_site_occupancy
  Cd  Cd1       1.0  0.4419285163548354  0.5580723644318013  0.2500002563936973  1.0000
  Cd  Cd2       1.0  0.5580727967303432  0.4419287241182275  0.7499994709428675  1.0000
  H   H1        1.0  0.3915153523684651  0.3149432406380441  0.18980008119546443  1.0000
  H   H2        1.0  0.6850562995164182  0.6084846578036859  0.31019999752264477  1.0000
  H   H3        1.0  0.6084849123735481  0.6850567146769181  0.81020015789376  1.0000
  H   H4        1.0  0.3149439652255951  0.3915152975112762  0.6898002415665869  1.0000
  H   H5        1.0  0.3453717159611784  0.43472935341436175  0.06270557499571075  1.0000
  H   H6        1.0  0.5652710452837084  0.6546278851002398  0.4372944344878888  1.0000
  H   H7        1.0  0.6546274297765109  0.5652705933822162  0.9372958393326059  1.0000
  H   H8        1.0  0.4347292194583047  0.3453720702147223  0.5627058046013359  1.0000
  H   H9        1.0  0.06605444037720791  0.5823599801145392  0.26448523810607566  1.0000
  H   H10       1.0  0.4176390266959515  0.9339477357205934  0.23551276547198094  1.0000
  H   H11       1.0  0.9339480640854845  0.4176399939495496  0.73551356044738  1.0000
  H   H12       1.0  0.582362282965164  0.0660533494047186  0.7644851419797689  1.0000
  H   H13       1.0  0.851452636526318  0.7225458766776427  0.4316197529662914  1.0000
  H   H14       1.0  0.2774543918439464  0.1485475217006424  0.0683791980003505  1.0000
  H   H15       1.0  0.14854867484682896  0.2774552101600278  0.5683790644278586  1.0000
  H   H16       1.0  0.7225459435592259  0.8514513088976443  0.9316203776024421  1.0000
  H   H17       1.0  0.2612037537480489  0.6632486204663479  0.5429388105636475  1.0000
  H   H18       1.0  0.33675252950722273  0.738795016514068  0.9570609765806989  1.0000
  H   H19       1.0  0.7387963679596083  0.3367535825696208  0.4570618455560335  1.0000
  H   H20       1.0  0.6632467592648226  0.2612026825615104  0.042940020717161104  1.0000
  H   H21       1.0  0.05101380625720963  0.7891828974250997  0.673185117222836  1.0000
  H   H22       1.0  0.21081663545540863  0.9489840945906207  0.8268153265208865  1.0000
  H   H23       1.0  0.9489841446789029  0.2108181604327015  0.3268154060037673  1.0000
  H   H24       1.0  0.7891826533166296  0.051013604484957384  0.17318567077697367  1.0000
  H   H25       1.0  0.8684978320805857  0.7424312499858985  0.6813506516571761  1.0000
  H   H26       1.0  0.2575690652772948  0.1315004175558698  0.8186493382271532  1.0000
  H   H27       1.0  0.131500189516693  0.2575686831552275  0.3186492080829879  1.0000
  H   H28       1.0  0.7424302234947505  0.8684972815197085  0.1813516590707137  1.0000
  H   H29       1.0  0.8396686146541941  0.9673000596557983  0.5045261599336895  1.0000
  H   H30       1.0  0.0326992923684912  0.1603281189103711  0.9954762883740071  1.0000
  H   H31       1.0  0.16032716893442972  0.032699856448559196  0.49547605028465797  1.0000
  H   H32       1.0  0.9672999257423882  0.8396707048818828  0.004525372410284832  1.0000
  H   H33       1.0  0.889134946345223  0.020623478711051697  0.6287925687185236  1.0000
  H   H34       1.0  0.979376532795584  0.1108630447667096  0.8712101233575636  1.0000
  H   H35       1.0  0.11086195795975584  0.9793764476240483  0.3712093762031471  1.0000
  H   H36       1.0  0.020622759400517107  0.889134657733585  0.12879269382512598  1.0000
  H   H37       1.0  0.5262589633835049  0.0995812780706089  0.5820816421643896  1.0000
  H   H38       1.0  0.900418681068473  0.4737409991798954  0.9179188746179036  1.0000
  H   H39       1.0  0.4737401806421531  0.9004186670136178  0.4179188622215121  1.0000
  H   H40       1.0  0.09958143892715302  0.526261202143715  0.08208087155936986  1.0000
  C   C1        1.0  0.07734116812428478  0.6223288590174222  0.344988956466345  1.0000
  C   C2        1.0  0.3776671264806312  0.9226603600838107  0.15500991408637785  1.0000
  C   C3        1.0  0.9226604327416297  0.3776677358029588  0.655010846751729  1.0000
  C   C4        1.0  0.622333208922548  0.07733847051447638  0.8449896615164147  1.0000
  C   C5        1.0  0.9690729964364949  0.6915490357549601  0.42695720936674764  1.0000
  C   C6        1.0  0.3084502559960996  0.0309243536455952  0.07304350779055106  1.0000
  C   C7        1.0  0.030926147589163105  0.3084509093292667  0.5730432950191611  1.0000
  C   C8        1.0  0.6915502275775154  0.9690722343687526  0.9269583806090221  1.0000
  C   C9        1.0  0.18202090232055212  0.6608340880892457  0.48698068034989433  1.0000
  C   C10       1.0  0.33916679131979083  0.8179776113968202  0.013019556386424757  1.0000
  C   C11       1.0  0.8179781693319157  0.3391669799992982  0.5130195775800315  1.0000
  C   C12       1.0  0.6608335457954128  0.18202122091381767  0.9869809291587825  1.0000
  C   C13       1.0  0.9693242813142788  0.7978575938605773  0.6153072426850557  1.0000
  C   C14       1.0  0.20214286154903502  0.030673328183901602  0.8846928545839955  1.0000
  C   C15       1.0  0.0306737402829995  0.2021423392805488  0.38469261705511554  1.0000
  C   C16       1.0  0.7978575479393585  0.9693243811224119  0.11530787741718737  1.0000
  C   C17       1.0  0.9324454882499541  0.9615391419395749  0.5506849812425328  1.0000
  C   C18       1.0  0.038462148423441506  0.06755209106793102  0.9493149709904142  1.0000
  C   C19       1.0  0.06755246097413453  0.0384619142058682  0.44931463204165556  1.0000
  C   C20       1.0  0.9615393800692831  0.9324456267567667  0.050684585771683985  1.0000
  C   C21       1.0  0.4849339939522181  0.19953427776250982  0.3858143974603506  1.0000
  C   C22       1.0  0.8004663572008042  0.5150655844977977  0.11418548016106903  1.0000
  C   C23       1.0  0.5150661243313837  0.8004679218487424  0.6141844387745009  1.0000
  C   C24       1.0  0.1995350265455329  0.48493437933554867  0.8858135836890637  1.0000
  C   C25       1.0  0.5053361935548965  0.07182174926809638  0.4985216437230163  1.0000
  C   C26       1.0  0.9281801131383816  0.4946648047625926  0.0014784913330600342  1.0000
  C   C27       1.0  0.49466399710189546  0.9281793273388389  0.5014774389678178  1.0000
  C   C28       1.0  0.07182225000197918  0.5053374187348538  0.9985216341932667  1.0000
  N   N1        1.0  0.20952693503604547  0.6036278105617825  0.383632744115232  1.0000
  N   N2        1.0  0.39637205680240584  0.790474382418239  0.11636705385023294  1.0000
  N   N3        1.0  0.7904754987654812  0.3963732882189888  0.6163667179246629  1.0000
  N   N4        1.0  0.6036282803127976  0.209524449892406  0.8836334316949672  1.0000
  N   N5        1.0  0.037078457116734916  0.7144096494163961  0.5167522514169389  1.0000
  N   N6        1.0  0.2855903663041062  0.9629201601121267  0.9832478977444336  1.0000
  N   N7        1.0  0.9629206145357332  0.2855914186721478  0.4832480065129871  1.0000
  N   N8        1.0  0.7144089224679392  0.0370775389634446  0.01675309955343352  1.0000
  O   O1        1.0  0.4694085200191935  0.172738277519052  0.283656656270459  1.0000
  O   O2        1.0  0.8272636126022024  0.5305907482938393  0.21634481870165698  1.0000
  O   O3        1.0  0.530590765328796  0.8272594181318099  0.7163425211425786  1.0000
  O   O4        1.0  0.17274001942495693  0.46940924285041763  0.7836573543247736  1.0000
  O   O5        1.0  0.4836515947143738  0.3316810711987727  0.4038448976510479  1.0000
  O   O6        1.0  0.6683204478097127  0.5163484122046569  0.09615561193167808  1.0000
  O   O7        1.0  0.5163485959424179  0.6683200054081553  0.5961541850397865  1.0000
  O   O8        1.0  0.3316820600770356  0.4836515652841414  0.9038450065065998  1.0000
  O   O9        1.0  0.3333053749697754  0.411075205973205  0.15922773363070766  1.0000
  O   O10       1.0  0.5889244667071054  0.6666949501263275  0.34077227379066233  1.0000
  O   O11       1.0  0.6666948897722379  0.5889247493417641  0.8407725054585169  1.0000
  O   O12       1.0  0.41107579803490785  0.3333050051886346  0.6592279652985623  1.0000
