data_image0
_chemical_formula_structural       Na2Cd2H44C42S6N6O10
_chemical_formula_sum              "Na2 Cd2 H44 C42 S6 N6 O10"
_cell_length_a       10.358689866659912
_cell_length_b       11.443238109160013
_cell_length_c       11.4378870967381
_cell_angle_alpha    91.24041869189917
_cell_angle_beta     106.61023073121748
_cell_angle_gamma    107.72074586544137

_space_group_name_H-M_alt    "P 1"
_space_group_IT_number       1

loop_
  _space_group_symop_operation_xyz
  'x, y, z'

loop_
  _atom_site_type_symbol
  _atom_site_label
  _atom_site_symmetry_multiplicity
  _atom_site_fract_x
  _atom_site_fract_y
  _atom_site_fract_z
  _atom_site_occupancy
  Na  Na1       1.0  0.7901759553431873  0.6272407214410977  0.26682888827179607  1.0000
  Na  Na2       1.0  0.2098245312627469  0.3727584933553629  0.7331690441066528  1.0000
  Cd  Cd1       1.0  0.031848492908835645  0.7544424632988296  0.9764121604244312  1.0000
  Cd  Cd2       1.0  0.9681509701984864  0.24555675430682555  0.023587248100383786  1.0000
  H   H1        1.0  0.22489981890264937  0.7422134638059673  0.640367092182558  1.0000
  H   H2        1.0  0.775100997979493  0.2577866761180374  0.359632693716172  1.0000
  H   H3        1.0  0.4685368476386883  0.8857348239910506  0.748284111955826  1.0000
  H   H4        1.0  0.531462294386273  0.11426624380070648  0.25171611925456017  1.0000
  H   H5        1.0  0.6593360985004253  0.084960374772642  0.7646882009875853  1.0000
  H   H6        1.0  0.34066505703069794  0.9150406897032682  0.23531256633116027  1.0000
  H   H7        1.0  0.6155348983066488  0.2402302382928525  0.6240839783614904  1.0000
  H   H8        1.0  0.3844655974931399  0.7597717518172543  0.375916630222811  1.0000
  H   H9        1.0  0.37685015502541563  0.20104275345599373  0.46957758956757095  1.0000
  H   H10       1.0  0.6231499770070954  0.7989583138291109  0.5304246538975406  1.0000
  H   H11       1.0  0.1324396828045593  0.06329509347718701  0.3694929940608703  1.0000
  H   H12       1.0  0.8675607954286092  0.9367041218949126  0.6305058104178514  1.0000
  H   H13       1.0  0.8913313297977085  0.0202265675425011  0.29942548303525046  1.0000
  H   H14       1.0  0.10866848033135305  0.9797735740394201  0.700574034809307  1.0000
  H   H15       1.0  0.9476281042369479  0.9473253117124758  0.19105019154073943  1.0000
  H   H16       1.0  0.0523717142648863  0.05267482929381371  0.8089484542035451  1.0000
  H   H17       1.0  0.6915230085161354  0.9337531921411113  0.1083443471747074  1.0000
  H   H18       1.0  0.3084778167387796  0.06624694720725441  0.891654566623757  1.0000
  H   H19       1.0  0.6565167500304696  0.8569828511755729  0.23585956447679732  1.0000
  H   H20       1.0  0.34348341549310385  0.1430182138069895  0.7641391905872227  1.0000
  H   H21       1.0  0.5250616583735237  0.7526750389404736  0.9765669354168909  1.0000
  H   H22       1.0  0.4749388114868722  0.24732417700725762  0.023432741162103792  1.0000
  H   H23       1.0  0.5784004869253039  0.6184143375753662  0.9786769306397788  1.0000
  H   H24       1.0  0.42159996618956797  0.38158487952364334  0.021324490139761586  1.0000
  H   H25       1.0  0.3652298695636347  0.5791162073585383  0.047961567471873016  1.0000
  H   H26       1.0  0.6347709305729764  0.4208839337167376  0.9520399626274028  1.0000
  H   H27       1.0  0.45392177394401056  0.7063404611709103  0.16597268387287303  1.0000
  H   H28       1.0  0.5460787218557783  0.2936615289391966  0.8340279247114283  1.0000
  H   H29       1.0  0.44492683238958347  0.5899503270991814  0.32439304212855546  1.0000
  H   H30       1.0  0.5550729693667122  0.41004981505837895  0.6756073478162749  1.0000
  H   H31       1.0  0.35858058263464443  0.44273641640673844  0.23277842257161305  1.0000
  H   H32       1.0  0.641420234247505  0.5572637235172664  0.7672213633271243  1.0000
  H   H33       1.0  0.5830596313743684  0.38698408880699736  0.3254458336445723  1.0000
  H   H34       1.0  0.41694016200915474  0.6130160539262021  0.6745554284005238  1.0000
  H   H35       1.0  0.4985342645446309  0.4138064439171813  0.435459805539459  1.0000
  H   H36       1.0  0.5014645220858114  0.5861937004739417  0.5645411884514644  1.0000
  H   H37       1.0  0.7518554627418155  0.47875723478023247  0.597093734379783  1.0000
  H   H38       1.0  0.24814669954238866  0.5212438280377611  0.40290730099313526  1.0000
  H   H39       1.0  0.8139121827515724  0.44620427388171896  0.47336508925745596  1.0000
  H   H40       1.0  0.1860879743992356  0.5537967916764828  0.5266345379068369  1.0000
  H   H41       1.0  0.002424448173307808  0.6026832073457555  0.639603703598965  1.0000
  H   H42       1.0  0.9975770627523347  0.39731878053079583  0.36039630093924313  1.0000
  H   H43       1.0  0.8952080927513321  0.7024597823104273  0.6166717991299109  1.0000
  H   H44       1.0  0.1047920727722413  0.29754128267212815  0.383326955934109  1.0000
  C   C1        1.0  0.07518539791837514  0.788879084274264  0.493919767060234  1.0000
  C   C2        1.0  0.9248154273365401  0.2111210550741021  0.5060791467382303  1.0000
  C   C3        1.0  0.2047601448354044  0.8130314595829448  0.5824528611958115  1.0000
  C   C4        1.0  0.795240672046738  0.1869686803410602  0.4175469247029185  1.0000
  C   C5        1.0  0.3137471412045728  0.9283235703987103  0.5980692571890033  1.0000
  C   C6        1.0  0.6862530243190007  0.07167749458385228  0.40192949787501686  1.0000
  C   C7        1.0  0.4491063027851326  0.9550214726914065  0.6875711115257063  1.0000
  C   C8        1.0  0.5508934989711705  0.044978669466154  0.312429278419124  1.0000
  C   C9        1.0  0.5550347410048175  0.0658205629993702  0.6968679990647644  1.0000
  C   C10       1.0  0.44496541614599044  0.9341805025588243  0.3031316280995285  1.0000
  C   C11       1.0  0.5290893158631035  0.1546562700421106  0.6172986133710909  1.0000
  C   C12       1.0  0.4709108412877041  0.8453447955160909  0.38270101379320215  1.0000
  C   C13       1.0  0.3974743440042515  0.1327021162648307  0.5311171244264017  1.0000
  C   C14       1.0  0.6025248063934753  0.8672989509512873  0.4688822346837114  1.0000
  C   C15       1.0  0.2867903204699402  0.019319713625975496  0.5187331977180065  1.0000
  C   C16       1.0  0.7132098366808677  0.9806813519322259  0.4812664294462863  1.0000
  C   C17       1.0  0.1515020265988055  0.9932126194674565  0.4289386921231682  1.0000
  C   C18       1.0  0.8484991456778559  0.0067884438571824  0.5710603309950316  1.0000
  C   C19       1.0  0.04699255386221791  0.880963868406859  0.41702102230850363  1.0000
  C   C20       1.0  0.9530089738089559  0.11903811831842148  0.5829772380291587  1.0000
  C   C21       1.0  0.8778364444748092  0.9316636962659008  0.24976867472138062  1.0000
  C   C22       1.0  0.12216336565425218  0.06833644531602089  0.7502308431231698  1.0000
  C   C23       1.0  0.724131039084078  0.8719869560318685  0.17504104142029325  1.0000
  C   C24       1.0  0.27586843239600267  0.1280122609981476  0.8249574950042488  1.0000
  C   C25       1.0  0.5692200848548339  0.6911886480209191  0.03672339099127701  1.0000
  C   C26       1.0  0.4307807236545429  0.30881149247872486  0.963277267007726  1.0000
  C   C27       1.0  0.4702630190956185  0.634764337999421  0.11098017506051149  1.0000
  C   C28       1.0  0.5297381364355046  0.3652367264764962  0.8890205922582268  1.0000
  C   C29       1.0  0.4628146438077607  0.5130943462109414  0.2783601141156354  1.0000
  C   C30       1.0  0.5371855049702816  0.48690671992289236  0.7216403851489305  1.0000
  C   C31       1.0  0.555949733769637  0.45777072242968575  0.3716564406655537  1.0000
  C   C32       1.0  0.4440514133887207  0.5422303426218634  0.6283451987534576  1.0000
  C   C33       1.0  0.7889527564363165  0.5178270537995502  0.5204722769211687  1.0000
  C   C34       1.0  0.2110483990948069  0.48217401067636706  0.4795284903975769  1.0000
  C   C35       1.0  0.9201098274315811  0.6293695844303285  0.5720019586230337  1.0000
  C   C36       1.0  0.07989032134646121  0.3706314817035051  0.42799854064153214  1.0000
  C   C37       1.0  0.07490323443305874  0.5428712189890135  0.15405070774687604  1.0000
  C   C38       1.0  0.9250958900252828  0.4571270740647292  0.8459477193579303  1.0000
  C   C39       1.0  0.2396546206702937  0.672360392509745  0.8437314732091753  1.0000
  C   C40       1.0  0.7603464670576088  0.3276379006819781  0.15627272260562114  1.0000
  C   C41       1.0  0.840777637469337  0.9390817200066973  0.8866014381232291  1.0000
  C   C42       1.0  0.1592204551176124  0.0609165764318718  0.1133993372282163  1.0000
  S   S1        1.0  0.07554523592771288  0.6808813282249986  0.19594530560767254  1.0000
  S   S2        1.0  0.9244545742013486  0.31911881335692266  0.8040542122368778  1.0000
  S   S3        1.0  0.2647539116967367  0.80572060472106  0.9182219752995663  1.0000
  S   S4        1.0  0.7352465071059838  0.1942758387912065  0.08177938557494  1.0000
  S   S5        1.0  0.8098182666225072  0.7973884353343835  0.8297177806554857  1.0000
  S   S6        1.0  0.19017811679510294  0.20260801538519502  0.1702833801025818  1.0000
  N   N1        1.0  0.07996176164155597  0.4443632812466659  0.1274804503699301  1.0000
  N   N2        1.0  0.9200377441506831  0.5556387093700863  0.8725181459596529  1.0000
  N   N3        1.0  0.2246472293039901  0.5782278858478307  0.788544957632425  1.0000
  N   N4        1.0  0.7753514978960042  0.42176948668345915  0.21145859275428344  1.0000
  N   N5        1.0  0.862913757870146  0.041823187731530695  0.9260170329842553  1.0000
  N   N6        1.0  0.13708701632708647  0.9581741791813768  0.0739835651097138  1.0000
  O   O1        1.0  0.9685332495047662  0.6757589061378368  0.4697854757443879  1.0000
  O   O2        1.0  0.031467567377383404  0.3242412337861751  0.5302143101543422  1.0000
  O   O3        1.0  0.9129049769823682  0.8468229968375314  0.3351349789844776  1.0000
  O   O4        1.0  0.08709449449771968  0.1531762201924849  0.6648635574400643  1.0000
  O   O5        1.0  0.711573733481991  0.7571004876097261  0.11246365760836596  1.0000
  O   O6        1.0  0.2884270834001512  0.24289965231427865  0.8875361282903642  1.0000
  O   O7        1.0  0.5341540555783125  0.5591147489438554  0.19057135470981726  1.0000
  O   O8        1.0  0.4658464234759378  0.4408872423175224  0.8094309980750297  1.0000
  O   O9        1.0  0.6829014851398867  0.5566759131019907  0.4359884682252683  1.0000
  O   O10       1.0  0.3170976568850676  0.44332515468976635  0.5640117629851176  1.0000
