data_image0
_chemical_formula_structural       Ca4H16C20N8O20
_chemical_formula_sum              "Ca4 H16 C20 N8 O20"
_cell_length_a       6.400651421896503
_cell_length_b       9.85196416100197
_cell_length_c       10.891816464765663
_cell_angle_alpha    90.00007371298032
_cell_angle_beta     104.02416496330328
_cell_angle_gamma    89.99997147956

_space_group_name_H-M_alt    "P 1"
_space_group_IT_number       1

loop_
  _space_group_symop_operation_xyz
  'x, y, z'

loop_
  _atom_site_type_symbol
  _atom_site_label
  _atom_site_symmetry_multiplicity
  _atom_site_fract_x
  _atom_site_fract_y
  _atom_site_fract_z
  _atom_site_occupancy
  Ca  Ca1       1.0  0.08820570773367112  0.5562830921514533  0.1719478535938066  1.0000
  Ca  Ca2       1.0  0.4117936035446021  0.056284376870401304  0.32805167530442253  1.0000
  Ca  Ca3       1.0  0.9117945669884335  0.44371602893752277  0.8280522234320742  1.0000
  Ca  Ca4       1.0  0.5882050608789484  0.9437157592447111  0.6719481789521283  1.0000
  H   H1        1.0  0.5361636201639683  0.6247251621405354  0.11294592413449321  1.0000
  H   H2        1.0  0.9638362268031244  0.12472347006577422  0.3870550094588197  1.0000
  H   H3        1.0  0.46383504425944017  0.37527598900059905  0.8870539301226119  1.0000
  H   H4        1.0  0.0361640594052233  0.875275651023877  0.6129459872999306  1.0000
  H   H5        1.0  0.3592781321630909  0.6057895010728345  0.9821122062164136  1.0000
  H   H6        1.0  0.1407226545314018  0.10579042597858296  0.5178876388615309  1.0000
  H   H7        1.0  0.6407205322604526  0.39421063504227766  0.017887648040137098  1.0000
  H   H8        1.0  0.8592776316766759  0.8942107251631057  0.48211335789833504  1.0000
  H   H9        1.0  0.7880362324495422  0.6851479107486824  0.5551348249721002  1.0000
  H   H10       1.0  0.7119586343072939  0.1851484192914015  0.9448646259444475  1.0000
  H   H11       1.0  0.211957578106535  0.3148501953133832  0.44486252150795746  1.0000
  H   H12       1.0  0.28804165190036457  0.8148557769283614  0.0551363708170811  1.0000
  H   H13       1.0  0.7616139087078012  0.6004387551459305  0.3311984185992785  1.0000
  H   H14       1.0  0.7383859333274573  0.10043885181232073  0.16880156866605492  1.0000
  H   H15       1.0  0.2383847442296414  0.39956036594248456  0.6688005159238487  1.0000
  H   H16       1.0  0.2616159631793096  0.89956026927721  0.8311996508625796  1.0000
  C   C1        1.0  0.7345182329616405  0.32441356549635003  0.2864510305474468  1.0000
  C   C2        1.0  0.7654831244653196  0.8244102507519173  0.21354666556251808  1.0000
  C   C3        1.0  0.2654852738436873  0.6755845405670443  0.7135504117505109  1.0000
  C   C4        1.0  0.23451552847212298  0.17558887033650455  0.786452268960602  1.0000
  C   C5        1.0  0.7276876289941755  0.3979939035362251  0.40356381313547024  1.0000
  C   C6        1.0  0.7723121557064873  0.897994475670373  0.09643833944907948  1.0000
  C   C7        1.0  0.27231104691575325  0.6020052175535398  0.5964369608534028  1.0000
  C   C8        1.0  0.2276865202031644  0.10200667547142934  0.9035624345409019  1.0000
  C   C9        1.0  0.6916439963196055  0.23237022098997076  0.5920128826857294  1.0000
  C   C10       1.0  0.8083605884010227  0.7323661602752694  0.9079934749580759  1.0000
  C   C11       1.0  0.308354668103945  0.7676299151251417  0.40798697157082847  1.0000
  C   C12       1.0  0.19163967483456903  0.2676349908650835  0.09200568233603691  1.0000
  C   C13       1.0  0.7665182530621164  0.5794978947888936  0.5263195474373533  1.0000
  C   C14       1.0  0.7334782525066925  0.0795004680658593  0.9736800105526698  1.0000
  C   C15       1.0  0.23347397016788554  0.42050122630064396  0.4736794157391273  1.0000
  C   C16       1.0  0.26652686459622993  0.9205037281535624  0.026321654518497394  1.0000
  C   C17       1.0  0.72450232496562  0.36094148453180014  0.5274535854228121  1.0000
  C   C18       1.0  0.7754973482141809  0.8609415893702989  0.9725485657807769  1.0000
  C   C19       1.0  0.27549636243068687  0.6390566215326031  0.4725481082983762  1.0000
  C   C20       1.0  0.224504548292451  0.13905854674525392  0.027452653748405005  1.0000
  N   N1        1.0  0.7530056330793045  0.4756475949445545  0.602146230485161  1.0000
  N   N2        1.0  0.7469923414130337  0.9756465855180139  0.897851224898453  1.0000
  N   N3        1.0  0.24698979926116496  0.5243525411701101  0.39785225849875877  1.0000
  N   N4        1.0  0.2530079218224158  0.024355580648361307  0.10214793239622111  1.0000
  N   N5        1.0  0.7531782922535086  0.5368413418257844  0.40757782342878096  1.0000
  N   N6        1.0  0.7468232117031874  0.03684132415384772  0.09242507615933698  1.0000
  N   N7        1.0  0.24682037217031902  0.46315676423728297  0.5924220308266612  1.0000
  N   N8        1.0  0.2531802951018634  0.9631588119615913  0.9075763661397291  1.0000
  O   O1        1.0  0.7738117594635197  0.39194215871179244  0.19552868462119483  1.0000
  O   O2        1.0  0.7261912704395854  0.8919440652249834  0.30447574634231245  1.0000
  O   O3        1.0  0.22619013704324692  0.6080569623777379  0.8044725349074326  1.0000
  O   O4        1.0  0.2738089927962762  0.10805505586332491  0.6955234109506918  1.0000
  O   O5        1.0  0.749242470167303  0.2309868180705621  0.7118137739418416  1.0000
  O   O6        1.0  0.7507572036272024  0.7309866623560242  0.7881854757493798  1.0000
  O   O7        1.0  0.2507562057424906  0.769013318045218  0.28818700004758574  1.0000
  O   O8        1.0  0.2492430481222812  0.2690134737576387  0.21181276181130224  1.0000
  O   O9        1.0  0.6007091122746714  0.13087367693965754  0.5269370325725404  1.0000
  O   O10       1.0  0.8992873794285501  0.6308747551863262  0.9730625816783771  1.0000
  O   O11       1.0  0.399291173933534  0.8691264591760088  0.47306396418676405  1.0000
  O   O12       1.0  0.1007096632101963  0.36912639595425395  0.026936130075974105  1.0000
  O   O13       1.0  0.7082847339836108  0.1947135448479501  0.2865430324357092  1.0000
  O   O14       1.0  0.7917118734967731  0.6947173261754713  0.21345753226525233  1.0000
  O   O15       1.0  0.29171717400939917  0.8052855762422556  0.7134591068257876  1.0000
  O   O16       1.0  0.20828679092677757  0.3052828099396408  0.7865423219912985  1.0000
  O   O17       1.0  0.3824798260616902  0.6072870136392795  0.0749409945021213  1.0000
  O   O18       1.0  0.11751947145125997  0.1072875256050523  0.425058590250174  1.0000
  O   O19       1.0  0.6175188383618533  0.39271312247583273  0.9250588597544294  1.0000
  O   O20       1.0  0.8824808147569457  0.8927126105106213  0.5749424065091305  1.0000
