data_image0
_chemical_formula_structural       Zn4H64C80N8O16
_chemical_formula_sum              "Zn4 H64 C80 N8 O16"
_cell_length_a       9.684013446559364
_cell_length_b       14.98737749739971
_cell_length_c       20.131636839000166
_cell_angle_alpha    89.99998536866975
_cell_angle_beta     90.00000091584434
_cell_angle_gamma    93.5670897883788

_space_group_name_H-M_alt    "P 1"
_space_group_IT_number       1

loop_
  _space_group_symop_operation_xyz
  'x, y, z'

loop_
  _atom_site_type_symbol
  _atom_site_label
  _atom_site_symmetry_multiplicity
  _atom_site_fract_x
  _atom_site_fract_y
  _atom_site_fract_z
  _atom_site_occupancy
  Zn  Zn1       1.0  0.5853475684114429  0.9494402621270126  0.8043249719979996  1.0000
  Zn  Zn2       1.0  0.9146528959889579  0.5505604189279936  0.3043244351262827  1.0000
  Zn  Zn3       1.0  0.4146527638198664  0.05056036952471032  0.19567559054934236  1.0000
  Zn  Zn4       1.0  0.0853463394113021  0.44943954408262954  0.6956756306905232  1.0000
  H   H1        1.0  0.8552335703661171  0.741349354549371  0.7560070135808272  1.0000
  H   H2        1.0  0.6447678620281253  0.7586506748514668  0.2560074296030166  1.0000
  H   H3        1.0  0.14476785869624112  0.25865194574371503  0.24399255550525814  1.0000
  H   H4        1.0  0.3552324060131795  0.2413492882770428  0.7439926362137895  1.0000
  H   H5        1.0  0.2566167557487162  0.666644540455437  0.8166916026240898  1.0000
  H   H6        1.0  0.24338400007961522  0.8333556255321998  0.31669200515079854  1.0000
  H   H7        1.0  0.7433824796515438  0.33335542255518646  0.1833084631927164  1.0000
  H   H8        1.0  0.7566142026796002  0.1666443373606228  0.6833075639354078  1.0000
  H   H9        1.0  0.2826251799481696  0.802341533206942  0.8888377354220864  1.0000
  H   H10       1.0  0.21737447973179508  0.697657939127062  0.38883816329925475  1.0000
  H   H11       1.0  0.7173782502062737  0.19765909879861004  0.11116183366407029  1.0000
  H   H12       1.0  0.7826215293653219  0.3023406864833832  0.6111614057870652  1.0000
  H   H13       1.0  0.09015889305208451  0.9069663776612844  0.8946256299932285  1.0000
  H   H14       1.0  0.40984283196473104  0.593033092901962  0.3946255818466469  1.0000
  H   H15       1.0  0.909844601292363  0.09303492286774431  0.10537294563166448  1.0000
  H   H16       1.0  0.5901575002665709  0.4069675387500241  0.6053734905089029  1.0000
  H   H17       1.0  0.2999616975059922  0.9791653440631554  0.7498644191540078  1.0000
  H   H18       1.0  0.2000402187110524  0.5208361822572841  0.24986537688560864  1.0000
  H   H19       1.0  0.7000386989153142  0.020835956112129808  0.2501346532014778  1.0000
  H   H20       1.0  0.7999602419002657  0.47916578644113644  0.7501346889310125  1.0000
  H   H21       1.0  0.13110807044041908  0.9014411267900899  0.6719462709748425  1.0000
  H   H22       1.0  0.3688927482082889  0.5985597579026207  0.17194771175817178  1.0000
  H   H23       1.0  0.8688912933398427  0.09856017326740131  0.3280523046500433  1.0000
  H   H24       1.0  0.6311083599040542  0.4014381997737645  0.8280528507894258  1.0000
  H   H25       1.0  0.40894999397274745  0.6871827243811596  0.6590427211227592  1.0000
  H   H26       1.0  0.09105082455385374  0.812818164785448  0.15904213321422836  1.0000
  H   H27       1.0  0.5910493056175241  0.3128179071526773  0.3409578414245829  1.0000
  H   H28       1.0  0.9089524772205806  0.1871811301735775  0.8409569391414564  1.0000
  H   H29       1.0  0.5671921361121477  0.7750143605923371  0.7356519831985509  1.0000
  H   H30       1.0  0.9328083276384477  0.7249863442710025  0.23565141365777714  1.0000
  H   H31       1.0  0.43280716347811676  0.2249862709415923  0.2643480826181914  1.0000
  H   H32       1.0  0.0671929730439018  0.27501361897556365  0.7643476586978436  1.0000
  H   H33       1.0  0.1418552029986841  0.7941161424430021  0.5684445133621238  1.0000
  H   H34       1.0  0.3581435493885508  0.7058847778973601  0.06844444373248847  1.0000
  H   H35       1.0  0.8581429355705339  0.2058831519264289  0.4315555524547392  1.0000
  H   H36       1.0  0.6418587839348433  0.2941151854670069  0.9315551253537321  1.0000
  H   H37       1.0  0.057971857184696815  0.7298494682325799  0.6314716843299946  1.0000
  H   H38       1.0  0.44202786424995827  0.7701507618514757  0.13147110635480164  1.0000
  H   H39       1.0  0.9420263455745186  0.27015049466006513  0.36852887821740404  1.0000
  H   H40       1.0  0.5579733080523822  0.22984786434839324  0.8685284627315325  1.0000
  H   H41       1.0  0.3159605742428298  0.6705875818640552  0.5586683705474299  1.0000
  H   H42       1.0  0.18404024333398183  0.8294133421013898  0.05866827675996689  1.0000
  H   H43       1.0  0.6840374359463723  0.3294103754586787  0.44133219200016066  1.0000
  H   H44       1.0  0.8159620899894122  0.17058662126288487  0.9413317890568462  1.0000
  H   H45       1.0  0.21011159769601312  0.6043469481951508  0.6117465244990894  1.0000
  H   H46       1.0  0.28988709091095194  0.8956532886094808  0.11174641884584699  1.0000
  H   H47       1.0  0.7898864766832006  0.39565167765071874  0.38825503150962953  1.0000
  H   H48       1.0  0.7101120161093065  0.10434533735444523  0.8882541437016798  1.0000
  H   H49       1.0  0.9691779367145585  0.7242697871589459  0.5171049312564335  1.0000
  H   H50       1.0  0.5308205880659784  0.7757323302833401  0.0171058401777913  1.0000
  H   H51       1.0  0.030820201854652403  0.27572950721057055  0.4828946378298297  1.0000
  H   H52       1.0  0.46918084099638685  0.22426897000957524  0.9828947223694937  1.0000
  H   H53       1.0  0.8598235681287392  0.6700353277132437  0.41194806197713507  1.0000
  H   H54       1.0  0.6401769614800443  0.8299659845528923  0.9119486215933534  1.0000
  H   H55       1.0  0.1401766999125655  0.329964635415351  0.5880515071090783  1.0000
  H   H56       1.0  0.3598244675823139  0.17003531574011532  0.088051444223332  1.0000
  H   H57       1.0  0.13346876194602691  0.4710221121902266  0.39097909323447766  1.0000
  H   H58       1.0  0.3665304073231894  0.028978402230379206  0.890979213901417  1.0000
  H   H59       1.0  0.8665303450742314  0.5289765137736142  0.6090219660436488  1.0000
  H   H60       1.0  0.6334688280770778  0.9710215607801517  0.1090213486459888  1.0000
  H   H61       1.0  0.2566040113241002  0.5167004715842227  0.49742199887259625  1.0000
  H   H62       1.0  0.2433937124812431  0.9833002999155555  0.9974215367856374  1.0000
  H   H63       1.0  0.7433941272451178  0.48329882278503095  0.5025790604054592  1.0000
  H   H64       1.0  0.7566055229190171  0.016699663095067804  0.0025785290311687993  1.0000
  C   C1        1.0  0.8437969588161991  0.8914378950166297  0.8320956956787525  1.0000
  C   C2        1.0  0.65620337746698  0.6085614393638182  0.33209564322905993  1.0000
  C   C3        1.0  0.15620440605615468  0.10856273675315725  0.167903873407397  1.0000
  C   C4        1.0  0.34379469691222664  0.3914371864823922  0.6679039258572743  1.0000
  C   C5        1.0  0.9610399250631261  0.8306878575542812  0.8261091045417714  1.0000
  C   C6        1.0  0.5389625406355023  0.669312147660648  0.3261095367692803  1.0000
  C   C7        1.0  0.03896253664027682  0.16931344285677605  0.1738899678137216  1.0000
  C   C8        1.0  0.4610366305747533  0.33068714682675465  0.6738900323169901  1.0000
  C   C9        1.0  0.9487283412398497  0.7552277181718311  0.7851387718967827  1.0000
  C   C10       1.0  0.5512730914300475  0.7447723011292811  0.28513919001535015  1.0000
  C   C11       1.0  0.051273087822501416  0.24477358212126182  0.21486079718930987  1.0000
  C   C12       1.0  0.4487271766112571  0.25522766199914326  0.7148613725320558  1.0000
  C   C13       1.0  0.0547458914670855  0.6963163124487722  0.7817942878736444  1.0000
  C   C14       1.0  0.4452538313899908  0.803683865519574  0.28179469707762905  1.0000
  C   C15       1.0  0.9452544407642236  0.30368431920312844  0.2182052812124979  1.0000
  C   C16       1.0  0.5547454040102694  0.1963160974911277  0.7182048720085844  1.0000
  C   C17       1.0  0.17499122032886305  0.7132949628767875  0.8197216546651872  1.0000
  C   C18       1.0  0.32500940714813  0.7867038650137419  0.319722066401944  1.0000
  C   C19       1.0  0.8250090477124417  0.2867050002518071  0.18027791442101906  1.0000
  C   C20       1.0  0.6749907967031632  0.21329542959163217  0.6802770059537337  1.0000
  C   C21       1.0  0.18860994848024862  0.7890975317991437  0.8598987085170365  1.0000
  C   C22       1.0  0.31138951835586676  0.7108999449977633  0.35989963115063256  1.0000
  C   C23       1.0  0.8113912880121036  0.21090176292385382  0.14010185403043346  1.0000
  C   C24       1.0  0.6886086844033559  0.2891000178946258  0.6401024215885583  1.0000
  C   C25       1.0  0.08219363305281752  0.8476487195952063  0.8632163663886202  1.0000
  C   C26       1.0  0.4178070590257477  0.6523507617393919  0.3632168038725324  1.0000
  C   C27       1.0  0.9178097971016258  0.15235191241034585  0.1367832026975364  1.0000
  C   C28       1.0  0.5821912721134693  0.34765053820004255  0.6367827652135458  1.0000
  C   C29       1.0  0.03715100572037501  0.6149158058336825  0.7387153343849135  1.0000
  C   C30       1.0  0.46284974937011475  0.8850843871876465  0.23871572839284735  1.0000
  C   C31       1.0  0.9628492623209298  0.3850841572947347  0.26128522816249233  1.0000
  C   C32       1.0  0.5371494218401408  0.11491490729967074  0.7612843374240228  1.0000
  C   C33       1.0  0.3192849161595461  0.9144832847699009  0.7279894032203698  1.0000
  C   C34       1.0  0.18071596720945854  0.585518249016616  0.22798985196438787  1.0000
  C   C35       1.0  0.6807154802617603  0.0855180154053841  0.272009669135123  1.0000
  C   C36       1.0  0.819286558683956  0.4144837199173993  0.77201120731344  1.0000
  C   C37       1.0  0.22709813882140392  0.8708541064078905  0.6843839115463409  1.0000
  C   C38       1.0  0.27290384096603765  0.6291481111373828  0.18438484932827484  1.0000
  C   C39       1.0  0.7729022575999024  0.12914719376740186  0.3156151608091449  1.0000
  C   C40       1.0  0.7270984923573565  0.370851852226977  0.8156147197579386  1.0000
  C   C41       1.0  0.2572190916366566  0.7883252411777947  0.6568019594814416  1.0000
  C   C42       1.0  0.24278179105874637  0.7116763172888839  0.15680188813350068  1.0000
  C   C43       1.0  0.7427802079536079  0.21167539035621996  0.3431976096047009  1.0000
  C   C44       1.0  0.7572204780746432  0.28832297755225517  0.843197184222184  1.0000
  C   C45       1.0  0.3805204127735422  0.7522668599704405  0.6767049647945383  1.0000
  C   C46       1.0  0.11948040592017863  0.7477340230727381  0.1767048859988805  1.0000
  C   C47       1.0  0.6194788868167153  0.24773377156357415  0.3232946042916041  1.0000
  C   C48       1.0  0.8805217990232065  0.25226460324509503  0.8232941863568612  1.0000
  C   C49       1.0  0.4688454204244437  0.8001146018405552  0.7201654107272262  1.0000
  C   C50       1.0  0.031154366039473302  0.6998862660172948  0.22016583716839483  1.0000
  C   C51       1.0  0.5311538791658209  0.19988602969337424  0.2798346550895161  1.0000
  C   C52       1.0  0.9688459020018312  0.30011369711121466  0.7798342286484115  1.0000
  C   C53       1.0  0.1590967870641364  0.743900520772776  0.6071631780260914  1.0000
  C   C54       1.0  0.3409029983305061  0.7561003862620483  0.10716309886856827  1.0000
  C   C55       1.0  0.8409014156950789  0.2560994421198758  0.3928373845213072  1.0000
  C   C56       1.0  0.659098238161839  0.24389890846103415  0.8928369669483089  1.0000
  C   C57       1.0  0.2077456824247506  0.6592044370590245  0.5752999051936882  1.0000
  C   C58       1.0  0.2922551353094463  0.8407964811404087  0.07529980985903958  1.0000
  C   C59       1.0  0.7922524561444674  0.3407948573102361  0.42470115408437437  1.0000
  C   C60       1.0  0.7077481664650023  0.15920281381836082  0.9247007526884371  1.0000
  C   C61       1.0  0.1265212658664936  0.6265983358711581  0.515550171357887  1.0000
  C   C62       1.0  0.3734774218302235  0.8734019342839974  0.015549573611011199  1.0000
  C   C63       1.0  0.8734757758716754  0.3734002898569102  0.4844508879202323  1.0000
  C   C64       1.0  0.6265238788521258  0.12659802896239117  0.9844504922058019  1.0000
  C   C65       1.0  0.010871138232914712  0.6680170838740908  0.4913131910971272  1.0000
  C   C66       1.0  0.4891276181556704  0.8319836898613532  0.9913132555103344  1.0000
  C   C67       1.0  0.9891269361462989  0.33198154197194907  0.5086873714503993  1.0000
  C   C68       1.0  0.5108726498856342  0.16801627326714916  0.008686810306471698  1.0000
  C   C69       1.0  0.9483134414916421  0.6380803345085441  0.4326716657571125  1.0000
  C   C70       1.0  0.5516837336300853  0.8619182961262767  0.9326707286950934  1.0000
  C   C71       1.0  0.0516857297186206  0.36191895997877316  0.5673284000597575  1.0000
  C   C72       1.0  0.4483143407491211  0.13808032972001885  0.06732834366064108  1.0000
  C   C73       1.0  0.10218891319518521  0.5265862526624616  0.4213819808934717  1.0000
  C   C74       1.0  0.3978119720037797  0.9734152140765178  0.921382514968556  1.0000
  C   C75       1.0  0.897811419036124  0.47341437898926136  0.5786185816538705  1.0000
  C   C76       1.0  0.6021883602275367  0.02658541757512011  0.0786185443093856  1.0000
  C   C77       1.0  0.16938822813159501  0.5528371771559648  0.47971752327621436  1.0000
  C   C78       1.0  0.33061162497831015  0.947164269240787  0.9797175651851119  1.0000
  C   C79       1.0  0.8306109430786677  0.44716211733108935  0.5202840327324479  1.0000
  C   C80       1.0  0.669388707252999  0.05283636241085082  0.0202834940928298  1.0000
  N   N1        1.0  0.44012711089001033  0.8803131809705679  0.7450049133848677  1.0000
  N   N2        1.0  0.059873708449991604  0.6196876783936108  0.2450048583187439  1.0000
  N   N3        1.0  0.5598722528902583  0.11968811908666775  0.2549951524318175  1.0000
  N   N4        1.0  0.9401275922323578  0.38031228485278507  0.7549952074980623  1.0000
  N   N5        1.0  0.9940746361544015  0.5695005049095059  0.3974986754304126  1.0000
  N   N6        1.0  0.505924796486603  0.930500143725084  0.8974982219651224  1.0000
  N   N7        1.0  0.005925567696898817  0.43049878969560523  0.60250188711705  1.0000
  N   N8        1.0  0.49407450310366124  0.0695004878089236  0.1025013471210201  1.0000
  O   O1        1.0  0.7346324964465722  0.8666054463180758  0.7970811578802071  1.0000
  O   O2        1.0  0.7653690005263414  0.6333952373660169  0.29708159809234747  1.0000
  O   O3        1.0  0.265368804235777  0.13339451692840507  0.2029184112060065  1.0000
  O   O4        1.0  0.23462907385286513  0.3666033884803711  0.7029169775327873  1.0000
  O   O5        1.0  0.8523283521943127  0.9582971454428846  0.8693668763601392  1.0000
  O   O6        1.0  0.6476709518004994  0.5417021758979959  0.3693673331548338  1.0000
  O   O7        1.0  0.14766978637490516  0.0417021489265466  0.1306331894567236  1.0000
  O   O8        1.0  0.35232931624081243  0.4582977872303432  0.6306337261231647  1.0000
  O   O9        1.0  0.1386989439403905  0.5622630464426097  0.7401151264324708  1.0000
  O   O10       1.0  0.3612996816912499  0.9377364773343546  0.2401155099940624  1.0000
  O   O11       1.0  0.8612991946288276  0.4377362479266511  0.2598859328455916  1.0000
  O   O12       1.0  0.6386994895190128  0.062262817152877424  0.7598850525534003  1.0000
  O   O13       1.0  0.9296294785657295  0.6001211542724436  0.7044155937101093  1.0000
  O   O14       1.0  0.5703708565092923  0.8998782243735025  0.20441598279423087  1.0000
  O   O15       1.0  0.07037279056766721  0.3998781405686176  0.29558397537616793  1.0000
  O   O16       1.0  0.4296284430809791  0.10012240716033464  0.7955845797531113  1.0000
