data_image0
_chemical_formula_structural       Zn8H16C8N64
_chemical_formula_sum              "Zn8 H16 C8 N64"
_cell_length_a       10.703092004696789
_cell_length_b       10.805362692988815
_cell_length_c       11.316090969000092
_cell_angle_alpha    89.99999650981526
_cell_angle_beta     90.00001436813439
_cell_angle_gamma    114.29671837560107

_space_group_name_H-M_alt    "P 1"
_space_group_IT_number       1

loop_
  _space_group_symop_operation_xyz
  'x, y, z'

loop_
  _atom_site_type_symbol
  _atom_site_label
  _atom_site_symmetry_multiplicity
  _atom_site_fract_x
  _atom_site_fract_y
  _atom_site_fract_z
  _atom_site_occupancy
  Zn  Zn1       1.0  0.6359409509909  0.5884506737048055  0.6758208893749327  1.0000
  Zn  Zn2       1.0  0.8640586618695567  0.9115492778172151  0.17581962442089594  1.0000
  Zn  Zn3       1.0  0.364058993059814  0.4115496437919859  0.3241799986525535  1.0000
  Zn  Zn4       1.0  0.13594128218090873  0.08845103967953347  0.8241794962118191  1.0000
  Zn  Zn5       1.0  0.6983005244198708  0.6800335234297206  0.3694845444683352  1.0000
  Zn  Zn6       1.0  0.8017004994377643  0.8199674547749608  0.8694849517480775  1.0000
  Zn  Zn7       1.0  0.3017003544010066  0.319966795177791  0.6305154598618755  1.0000
  Zn  Zn8       1.0  0.19830080015330515  0.1800338792358644  0.1305150525821546  1.0000
  H   H1        1.0  0.6744299500225142  0.2846262317257596  0.6437700822653695  1.0000
  H   H2        1.0  0.8255697615920711  0.21537221496674153  0.1437652847101845  1.0000
  H   H3        1.0  0.3255700872586333  0.7153720560752462  0.35623434055172953  1.0000
  H   H4        1.0  0.17442976168757696  0.7846270871265799  0.8562294174355853  1.0000
  H   H5        1.0  0.7721736202865447  0.41434450706764625  0.28932348741733444  1.0000
  H   H6        1.0  0.7278233286969144  0.0856539439350641  0.7893177047959765  1.0000
  H   H7        1.0  0.22782403345417634  0.5856547928044833  0.710682702794223  1.0000
  H   H8        1.0  0.2721739042718525  0.914344340533432  0.21067611365216976  1.0000
  H   H9        1.0  0.6456701083073286  0.11132065163700838  0.43517685086793273  1.0000
  H   H10       1.0  0.8543301075238363  0.38867882575963353  0.9351772666874537  1.0000
  H   H11       1.0  0.35433034974337113  0.8886786515671969  0.5648231534622639  1.0000
  H   H12       1.0  0.1456703505268635  0.6113204774445719  0.06482273764273569  1.0000
  H   H13       1.0  0.8083900254620249  0.17913802927775888  0.4810301581719684  1.0000
  H   H14       1.0  0.6916111382697211  0.3208614516372065  0.9810305392301327  1.0000
  H   H15       1.0  0.19161085335885275  0.8208622893297528  0.5189698461582424  1.0000
  H   H16       1.0  0.30838931978097855  0.6791378515669918  0.0189694651000636  1.0000
  C   C1        1.0  0.6933614000178638  0.345907275065116  0.5642090397602715  1.0000
  C   C2        1.0  0.8066377748138296  0.1540921817424703  0.06420335754899749  1.0000
  C   C3        1.0  0.3066362537227363  0.654092024806985  0.43579626675389693  1.0000
  C   C4        1.0  0.19336174846582574  0.8459071203508515  0.9357913445967725  1.0000
  C   C5        1.0  0.7434724674437234  0.4129463751055765  0.3812456860549814  1.0000
  C   C6        1.0  0.7565222175514422  0.08705106309884769  0.8812407938726493  1.0000
  C   C7        1.0  0.2565228959861158  0.5870519071417275  0.6187596204589454  1.0000
  C   C8        1.0  0.2434736598769831  0.9129462048556147  0.118753908272744  1.0000
  N   N1        1.0  0.6332026113558982  0.7082060089378784  0.5329694358764172  1.0000
  N   N2        1.0  0.8667988301392316  0.7917939373050799  0.0329699458894339  1.0000
  N   N3        1.0  0.3667982674649864  0.2917943096696334  0.4670305684537936  1.0000
  N   N4        1.0  0.13320298345206544  0.20820638241320205  0.9670309421382797  1.0000
  N   N5        1.0  0.6143973545067283  0.8109304470730759  0.5470617528746544  1.0000
  N   N6        1.0  0.8856031562535167  0.6890694987990713  0.047062273294677895  1.0000
  N   N7        1.0  0.3856039450842134  0.18907088693772067  0.4529373677581959  1.0000
  N   N8        1.0  0.11439730179718313  0.3109298044051343  0.9529377310355115  1.0000
  N   N9        1.0  0.5954419404799013  0.9080098144310184  0.5597286661358396  1.0000
  N   N10       1.0  0.9045599294480412  0.5919911486202806  0.059729196672563496  1.0000
  N   N11       1.0  0.40456029388145254  0.09199152069054857  0.4402713381945062  1.0000
  N   N12       1.0  0.09544094937296425  0.4080091699872598  0.9402716913550361  1.0000
  N   N13       1.0  0.6151547519182755  0.7426872238015318  0.7918936502961245  1.0000
  N   N14       1.0  0.8848458289506882  0.7573127349258327  0.29189416659207973  1.0000
  N   N15       1.0  0.38484570613242414  0.2573120794026664  0.2081063540340651  1.0000
  N   N16       1.0  0.11515504987031731  0.24268758368170748  0.7081067214355201  1.0000
  N   N17       1.0  0.511346716959153  0.7500518310119728  0.8247530413162777  1.0000
  N   N18       1.0  0.9886538733192511  0.7499481294407175  0.3247535827145427  1.0000
  N   N19       1.0  0.48865416186173155  0.24994848759554603  0.1752469630139402  1.0000
  N   N20       1.0  0.011347005501626458  0.25005218916679434  0.6752464216156682  1.0000
  N   N21       1.0  0.40960682198325327  0.7551810337623833  0.8538788111943632  1.0000
  N   N22       1.0  0.09039396105950459  0.7448181104266496  0.35387925821687105  1.0000
  N   N23       1.0  0.590393636067326  0.2448182694417937  0.1461203094384445  1.0000
  N   N24       1.0  0.909606917761373  0.2551822081808695  0.6461207461133398  1.0000
  N   N25       1.0  0.7974662514226978  0.6298598638509885  0.7879249902685999  1.0000
  N   N26       1.0  0.7025356838501582  0.8701411111820293  0.2879245730084747  1.0000
  N   N27       1.0  0.20253462739817954  0.370140454756523  0.21207501406161097  1.0000
  N   N28       1.0  0.297466550511068  0.12986022393952365  0.7120745476244891  1.0000
  N   N29       1.0  0.8985318432693321  0.6089237556609248  0.7683033861449715  1.0000
  N   N30       1.0  0.6014696656147294  0.8910762029385494  0.2683038273474665  1.0000
  N   N31       1.0  0.10146903555155255  0.39107656294659415  0.2316966181852393  1.0000
  N   N32       1.0  0.39853121320615514  0.10892411566896945  0.7316961769827441  1.0000
  N   N33       1.0  0.996345551863584  0.5898623695789522  0.7529995270047536  1.0000
  N   N34       1.0  0.5036559526380201  0.9101375882169477  0.2529990601564833  1.0000
  N   N35       1.0  0.0036562617275848084  0.4101379501393083  0.24700047732557098  1.0000
  N   N36       1.0  0.49634492618286447  0.08986273039057119  0.7470009441737276  1.0000
  N   N37       1.0  0.4625989178483821  0.43492629965540164  0.7391483952266069  1.0000
  N   N38       1.0  0.03740226781358301  0.06507438046219248  0.23914884004028633  1.0000
  N   N39       1.0  0.5374019609724955  0.5650740189521173  0.2608516091036037  1.0000
  N   N40       1.0  0.962599545777586  0.9349259392560679  0.7608511642900382  1.0000
  N   N41       1.0  0.46608756618463343  0.3967386205280191  0.8402548656777428  1.0000
  N   N42       1.0  0.033912292889027605  0.10326104838421908  0.3402544237575995  1.0000
  N   N43       1.0  0.5339123778659598  0.6032616969687438  0.15974513865235448  1.0000
  N   N44       1.0  0.9660876511614379  0.8967392691125298  0.6597446968751156  1.0000
  N   N45       1.0  0.467999742798746  0.35947465983394267  0.935520096198637  1.0000
  N   N46       1.0  0.03200014355467571  0.14052501408034598  0.43552053536770063  1.0000
  N   N47       1.0  0.5320011360221387  0.6405256587735764  0.0644799081315739  1.0000
  N   N48       1.0  0.9679998004959176  0.859475303416424  0.5644794689623963  1.0000
  N   N49       1.0  0.6885697471022852  0.46553026626422417  0.5536930368501274  1.0000
  N   N50       1.0  0.8114294247180995  0.034469189991206406  0.05368736269136318  1.0000
  N   N51       1.0  0.31142926217890493  0.5344700501219605  0.4463131533615581  1.0000
  N   N52       1.0  0.18857009856155568  0.9655301121021151  0.9463073394544065  1.0000
  N   N53       1.0  0.7264474822787862  0.30944761854628666  0.4567479079164086  1.0000
  N   N54       1.0  0.7735490938773567  0.19054982584397348  0.9567430137997944  1.0000
  N   N55       1.0  0.2735497506916218  0.6905506659225082  0.5432573985977455  1.0000
  N   N56       1.0  0.22644771832135288  0.8094474432212379  0.043251688345705495  1.0000
  N   N57       1.0  0.7201793837658812  0.5075959853177352  0.43854285161300055  1.0000
  N   N58       1.0  0.7798165652444028  0.9924039755557458  0.9385370578437244  1.0000
  N   N59       1.0  0.2798168212043208  0.49240432773619597  0.561462454900969  1.0000
  N   N60       1.0  0.220179639724151  0.007596337497879797  0.06145676060423709  1.0000
  N   N61       1.0  0.7395680186614514  0.19054495536989435  0.42339894098908804  1.0000
  N   N62       1.0  0.7604311657965896  0.3094565499934133  0.9233975716714297  1.0000
  N   N63       1.0  0.26043141138929127  0.8094563764194901  0.5766028307356946  1.0000
  N   N64       1.0  0.2395682642536485  0.6905447817958715  0.0766006652638112  1.0000
