data_image0
_chemical_formula_structural       Zn8C48O26F24
_chemical_formula_sum              "Zn8 C48 O26 F24"
_cell_length_a       18.385990580978323
_cell_length_b       18.40833497536055
_cell_length_c       18.109274493763795
_cell_angle_alpha    119.92657533911687
_cell_angle_beta     118.75427442413333
_cell_angle_gamma    90.15154713860983

_space_group_name_H-M_alt    "P 1"
_space_group_IT_number       1

loop_
  _space_group_symop_operation_xyz
  'x, y, z'

loop_
  _atom_site_type_symbol
  _atom_site_label
  _atom_site_symmetry_multiplicity
  _atom_site_fract_x
  _atom_site_fract_y
  _atom_site_fract_z
  _atom_site_occupancy
  Zn  Zn1       1.0  0.06416777027416022  0.9629269042268477  0.10383527869276322  1.0000
  Zn  Zn2       1.0  0.057280103294367196  0.9517589915876313  0.9162387795656672  1.0000
  Zn  Zn3       1.0  0.060478274052108795  0.1320305167194746  0.09407144491443381  1.0000
  Zn  Zn4       1.0  0.8898972848957954  0.9614992018827522  0.9299814965703137  1.0000
  Zn  Zn5       1.0  0.4776811845217352  0.5484270952650759  0.9256556129561279  1.0000
  Zn  Zn6       1.0  0.4713734248922775  0.5423707725371968  0.09856209416459188  1.0000
  Zn  Zn7       1.0  0.6460227190930254  0.5446791072744048  0.10000161164718692  1.0000
  Zn  Zn8       1.0  0.4767947800065642  0.372008180640357  0.9195761175272781  1.0000
  C   C1        1.0  0.15610347934591565  0.8637325171755705  0.011148257254539837  1.0000
  C   C2        1.0  0.21467748277930804  0.8068065977470624  0.01270453313781418  1.0000
  C   C3        1.0  0.2987086648968287  0.8362938260794978  0.03839019592355455  1.0000
  C   C4        1.0  0.3528782540148399  0.7834675350111624  0.04009046522948986  1.0000
  C   C5        1.0  0.3245543750241636  0.6995323588600185  0.01610655901625805  1.0000
  C   C6        1.0  0.38207218544391  0.6416660206036512  0.01571081102504485  1.0000
  C   C7        1.0  0.2404780079635884  0.6702084946654879  0.990624293543299  1.0000
  C   C8        1.0  0.18637295030136866  0.7230734434282197  0.9889090382683463  1.0000
  C   C9        1.0  0.15848454009039872  0.14607691704468814  0.2874867691416299  1.0000
  C   C10       1.0  0.21805019573848483  0.20554614220879588  0.4024178726407613  1.0000
  C   C11       1.0  0.1901400162711511  0.26498880119375195  0.4608282792129331  1.0000
  C   C12       1.0  0.24499403610867182  0.3190667074237368  0.5675264192759145  1.0000
  C   C13       1.0  0.3293040867280936  0.31514819555413703  0.6187861154542347  1.0000
  C   C14       1.0  0.3869848723808856  0.37104883965137964  0.7338701213716734  1.0000
  C   C15       1.0  0.357434783458551  0.2561345088302005  0.5602089714908304  1.0000
  C   C16       1.0  0.3025702610240302  0.2021341647330743  0.4535669123718052  1.0000
  C   C17       1.0  0.8869581506147313  0.8703841477377381  0.024419405317288877  1.0000
  C   C18       1.0  0.8300708604377223  0.81102037203312  0.023764906219668185  1.0000
  C   C19       1.0  0.775957467459591  0.7265021596880104  0.9350939900581141  1.0000
  C   C20       1.0  0.7207618095393685  0.6717153796784956  0.9321478764260366  1.0000
  C   C21       1.0  0.7182340887503713  0.6998960943808684  0.017955666443178475  1.0000
  C   C22       1.0  0.6587905514366882  0.6411548172963392  0.01523529105650571  1.0000
  C   C23       1.0  0.7726281790065102  0.7842545904576638  0.10676333503725013  1.0000
  C   C24       1.0  0.8278476989690161  0.8390749544093978  0.10967106706512197  1.0000
  C   C25       1.0  0.15149439563719372  0.1292400638768925  0.9959301090639487  1.0000
  C   C26       1.0  0.21124472474299696  0.18499853564046734  0.995766061870093  1.0000
  C   C27       1.0  0.2953254977490047  0.2388319000369066  0.08319804541503127  1.0000
  C   C28       1.0  0.34970876617098406  0.2942864722196887  0.08597524033441313  1.0000
  C   C29       1.0  0.3215936617623782  0.2974167110979166  0.0012238586170169672  1.0000
  C   C30       1.0  0.3795020103817777  0.3581286666206154  0.004320010092477921  1.0000
  C   C31       1.0  0.23792408855468494  0.24271736614954154  0.9133073244337313  1.0000
  C   C32       1.0  0.18351513127404934  0.18725461312435956  0.9105956907187718  1.0000
  C   C33       1.0  0.8761341914316393  0.8595122984393414  0.7346893856332887  1.0000
  C   C34       1.0  0.8163182411544341  0.8010760466793414  0.6197132775530748  1.0000
  C   C35       1.0  0.7609209876466352  0.8329206247865599  0.5658108157472271  1.0000
  C   C36       1.0  0.7053055702828388  0.779018294112859  0.45917495024062294  1.0000
  C   C37       1.0  0.7035995088227551  0.6918046027979302  0.40356691093975183  1.0000
  C   C38       1.0  0.6472220517723102  0.6348951952297244  0.28827927135597525  1.0000
  C   C39       1.0  0.7584673384844934  0.6597298006603725  0.45748847963756867  1.0000
  C   C40       1.0  0.8141137875880986  0.713600956634835  0.5640749708338859  1.0000
  C   C41       1.0  0.8822180183012307  0.1429291276106284  0.014791698748261558  1.0000
  C   C42       1.0  0.8247596537177985  0.20064288756497464  0.014992523606537054  1.0000
  C   C43       1.0  0.7634246387386767  0.19489214574868902  0.03810338767828373  1.0000
  C   C44       1.0  0.7089267933259366  0.24732774923068487  0.03639480225888295  1.0000
  C   C45       1.0  0.7142079827423161  0.3069182601886168  0.011521638745733693  1.0000
  C   C46       1.0  0.6559435878680163  0.3638956147417006  0.010251542338309685  1.0000
  C   C47       1.0  0.7754875525258454  0.31278664291031083  0.9885264739130121  1.0000
  C   C48       1.0  0.8300736079464031  0.2604442410463718  0.9902958331897977  1.0000
  O   O1        1.0  0.018708659462184602  0.0017559509973495  0.011000438022144  1.0000
  O   O2        1.0  0.13471072243945761  0.8831037559028162  0.9468984860736286  1.0000
  O   O3        1.0  0.13436927103014532  0.8860685110411097  0.07434140055536882  1.0000
  O   O4        1.0  0.39597245829887134  0.6133452009680127  0.07092648051908412  1.0000
  O   O5        1.0  0.410358710298759  0.6270290639943141  0.9595877620593858  1.0000
  O   O6        1.0  0.13173382874946074  0.18441896101084862  0.24205156043134227  1.0000
  O   O7        1.0  0.14123674144834547  0.0636699546156052  0.24815136529043266  1.0000
  O   O8        1.0  0.4145745266639125  0.3290895948277849  0.7747260714414994  1.0000
  O   O9        1.0  0.4016604529770831  0.45389275945273516  0.7782767288847624  1.0000
  O   O10       1.0  0.8462948873455362  0.8876892741135832  0.958459626684487  1.0000
  O   O11       1.0  0.9687849506657784  0.8965949048586453  0.08974781525549964  1.0000
  O   O12       1.0  0.6960472567778524  0.6241711477355879  0.0820038855044985  1.0000
  O   O13       1.0  0.5777782682238524  0.6148432085528909  0.9467980450742105  1.0000
  O   O14       1.0  0.134948597794228  0.17205975955487668  0.06355961614828229  1.0000
  O   O15       1.0  0.124045980255211  0.04637641264131529  0.9294854554660007  1.0000
  O   O16       1.0  0.39661358007692366  0.3210923248472072  0.9365055300657803  1.0000
  O   O17       1.0  0.4048867192035814  0.43990951983779064  0.07408099767874883  1.0000
  O   O18       1.0  0.8387281318356941  0.8901160400432317  0.7819314674852863  1.0000
  O   O19       1.0  0.957441167825486  0.8722966347875811  0.7724034709884934  1.0000
  O   O20       1.0  0.6887262703667573  0.609747833344734  0.24546756579356105  1.0000
  O   O21       1.0  0.5651586734152972  0.6183153003977753  0.2460559947021681  1.0000
  O   O22       1.0  0.8426263096077877  0.06046873888527671  0.9590269198987544  1.0000
  O   O23       1.0  0.964012772936819  0.1822864051032198  0.06986545155742618  1.0000
  O   O24       1.0  0.6949161715844598  0.4466962321157054  0.07148264038321649  1.0000
  O   O25       1.0  0.5742522079166433  0.32326750616280714  0.9482628267856796  1.0000
  O   O26       1.0  0.5173170948711956  0.5020765505757511  0.01105596502043221  1.0000
  F   F1        1.0  0.3293010307532995  0.9178322749787354  0.06451714598594538  1.0000
  F   F2        1.0  0.43445173904221684  0.8155912308777642  0.06802575277302479  1.0000
  F   F3        1.0  0.20932026297687398  0.5886275761408298  0.9639471941225112  1.0000
  F   F4        1.0  0.10470978405759006  0.6913345900896245  0.9611279483708232  1.0000
  F   F5        1.0  0.10813214974699287  0.26866884606141633  0.414425605632296  1.0000
  F   F6        1.0  0.21423896675238296  0.3732564047273215  0.6211058824466067  1.0000
  F   F7        1.0  0.4392505071435834  0.2520609422665956  0.6063812340143785  1.0000
  F   F8        1.0  0.33284487747761915  0.14741722168543697  0.39962690236493614  1.0000
  F   F9        1.0  0.7780771750277751  0.6961742195706008  0.8513986103880528  1.0000
  F   F10       1.0  0.6710870353596547  0.589725165140436  0.8457847428713877  1.0000
  F   F11       1.0  0.7703371188760074  0.8148254042635018  0.19036481379941256  1.0000
  F   F12       1.0  0.877356908447041  0.9211983451610877  0.19587491953404898  1.0000
  F   F13       1.0  0.3254522966923901  0.23643151879723934  0.16597498444647138  1.0000
  F   F14       1.0  0.43116204428087473  0.34386738742669815  0.17122790667004048  1.0000
  F   F15       1.0  0.20748907721696946  0.24519028899685935  0.8305537180100232  1.0000
  F   F16       1.0  0.10197546329033001  0.1377675836431465  0.8254519612648468  1.0000
  F   F17       1.0  0.7625991047706009  0.9177093224441465  0.6165603808783546  1.0000
  F   F18       1.0  0.6549393445760783  0.8131681997627068  0.40965394212496875  1.0000
  F   F19       1.0  0.756984866384073  0.5750489053115757  0.4065152168143344  1.0000
  F   F20       1.0  0.864654759824539  0.6794950385177645  0.6134816156609447  1.0000
  F   F21       1.0  0.7577986881195712  0.13994106030869347  0.06526224757966036  1.0000
  F   F22       1.0  0.6521951094629728  0.24163400197221566  0.0618857902400052  1.0000
  F   F23       1.0  0.7808213446902742  0.367893285559667  0.9614037272956043  1.0000
  F   F24       1.0  0.8864448914640662  0.2662430393365369  0.9644406510332219  1.0000
