data_image0
_chemical_formula_structural       Cu12Si3H48C84N24O12
_chemical_formula_sum              "Cu12 Si3 H48 C84 N24 O12"
_cell_length_a       21.747395015612103
_cell_length_b       22.98482672554734
_cell_length_c       23.954963562988404
_cell_angle_alpha    89.89813934691479
_cell_angle_beta     89.38138376003633
_cell_angle_gamma    89.1586872338956

_space_group_name_H-M_alt    "P 1"
_space_group_IT_number       1

loop_
  _space_group_symop_operation_xyz
  'x, y, z'

loop_
  _atom_site_type_symbol
  _atom_site_label
  _atom_site_symmetry_multiplicity
  _atom_site_fract_x
  _atom_site_fract_y
  _atom_site_fract_z
  _atom_site_occupancy
  Cu  Cu1       1.0  0.18774364296684348  0.20904997745073212  0.1382521489100341  1.0000
  Cu  Cu2       1.0  0.1662383066663295  0.0859494539777046  0.1878836265903985  1.0000
  Cu  Cu3       1.0  0.1001722124520157  0.18704698898132927  0.24881447545373447  1.0000
  Cu  Cu4       1.0  0.8000304989166552  0.27581680535346453  0.8631034186078993  1.0000
  Cu  Cu5       1.0  0.7990806354088988  0.16196401996543838  0.779989293359634  1.0000
  Cu  Cu6       1.0  0.9025910870339899  0.25599787269355545  0.7764569838819141  1.0000
  Cu  Cu7       1.0  0.29603989184341367  0.7455022532136796  0.853284726859762  1.0000
  Cu  Cu8       1.0  0.2596098344329434  0.8378519457492786  0.7595014153084989  1.0000
  Cu  Cu9       1.0  0.1682760294690056  0.7373775068003708  0.8015609615793197  1.0000
  Cu  Cu10      1.0  0.7302561212585986  0.8089056886022944  0.1415617446386292  1.0000
  Cu  Cu11      1.0  0.7178484934146495  0.8812030786921099  0.2468135230438193  1.0000
  Cu  Cu12      1.0  0.8337321450987432  0.79419582199624  0.2383832249956797  1.0000
  Si  Si1       1.0  0.9940719548025854  0.9623447414203309  0.5213827619017976  1.0000
  Si  Si2       1.0  0.4895209728013727  0.034611375705978296  0.953202876851563  1.0000
  Si  Si3       1.0  0.0181975729682691  0.5213912803427192  0.0476368389007646  1.0000
  H   H1        1.0  0.2967216334569541  0.17649375111880516  0.0466254610321712  1.0000
  H   H2        1.0  0.2315998449406536  0.007315848178684803  0.09853341763072619  1.0000
  H   H3        1.0  0.026362208827833907  0.30523864470551837  0.2502708519106847  1.0000
  H   H4        1.0  0.1453070166800075  0.3359526894855236  0.10737681996112508  1.0000
  H   H5        1.0  0.15127017036252974  0.9830928990087386  0.2733311893931898  1.0000
  H   H6        1.0  0.059079434943193114  0.12198384082640251  0.3651588051756889  1.0000
  H   H7        1.0  0.6669037725081991  0.2690135188067088  0.9123334073694949  1.0000
  H   H8        1.0  0.6731818675966323  0.10685793479035509  0.8205413001825689  1.0000
  H   H9        1.0  0.0014771840217874996  0.3465892177606448  0.8136145061417963  1.0000
  H   H10       1.0  0.8632028438514113  0.37272271808838303  0.9432724407673663  1.0000
  H   H11       1.0  0.8542648553829579  0.07144212735312289  0.685528660007691  1.0000
  H   H12       1.0  0.9820355897468218  0.21414358961422414  0.6758765951615545  1.0000
  H   H13       1.0  0.4316577146226167  0.7780229002132374  0.8756071807642342  1.0000
  H   H14       1.0  0.3711222039595157  0.9273978963588972  0.7792311277582867  1.0000
  H   H15       1.0  0.09798477828009312  0.6571186602623059  0.8919718143808097  1.0000
  H   H16       1.0  0.27800174312849896  0.6727500349182802  0.966036248032978  1.0000
  H   H17       1.0  0.1768908898691919  0.8934775332336283  0.6617134900642938  1.0000
  H   H18       1.0  0.0658396811781472  0.7471084934484011  0.712126495754184  1.0000
  H   H19       1.0  0.638286671529926  0.8791364022557602  0.0582180832361843  1.0000
  H   H20       1.0  0.6191130194132342  0.9774185752004884  0.2118857046406717  1.0000
  H   H21       1.0  0.914441586220029  0.6900744202280507  0.18336922276819925  1.0000
  H   H22       1.0  0.766763798658154  0.7068526403830475  0.06421982354405031  1.0000
  H   H23       1.0  0.7351753496151759  0.9341215428103098  0.3632587956493012  1.0000
  H   H24       1.0  0.9073544156022848  0.8378332865494825  0.34846678837327966  1.0000
  H   H25       1.0  0.27158160465177167  0.9678593026735028  0.9956036909086946  1.0000
  H   H26       1.0  0.37661132609731846  0.9432730915892119  0.9365316572938056  1.0000
  H   H27       1.0  0.5297806625647965  0.24908172107196683  0.9112387935720037  1.0000
  H   H28       1.0  0.44155361508381213  0.17333507020441627  0.9475223905147132  1.0000
  H   H29       1.0  0.5570189547126532  0.8393544541087504  0.8683209039872537  1.0000
  H   H30       1.0  0.5968112008849077  0.9289514035394858  0.9333498924163449  1.0000
  H   H31       1.0  0.5623279779279288  0.0648492719670912  0.1520755069787683  1.0000
  H   H32       1.0  0.5045498851297694  0.1131861593657462  0.0620504153172945  1.0000
  H   H33       1.0  0.9750390237197522  0.4175367750381439  0.2325941899832458  1.0000
  H   H34       1.0  0.9454048612564067  0.5118264410282832  0.16773172938039954  1.0000
  H   H35       1.0  0.8095659123972538  0.6163314498604605  0.0082973768345482  1.0000
  H   H36       1.0  0.8950511475163908  0.5352524583291042  0.9737967419823335  1.0000
  H   H37       1.0  0.07733375421382502  0.4161971779345138  0.867191223690611  1.0000
  H   H38       1.0  0.11423097341036484  0.4916176139862357  0.9476338152164843  1.0000
  H   H39       1.0  0.2269707839350374  0.6205957519486417  0.06441817217960022  1.0000
  H   H40       1.0  0.14338764189633932  0.5531851412447393  0.11990206211686431  1.0000
  H   H41       1.0  0.1633269384126592  0.9250865515660963  0.3756101206154341  1.0000
  H   H42       1.0  0.11052393724636289  0.8851929248281464  0.4724848400682547  1.0000
  H   H43       1.0  0.989180149151835  0.7694358295120904  0.6267415118421766  1.0000
  H   H44       1.0  0.9308760689583409  0.8395687602293548  0.5508242825637737  1.0000
  H   H45       1.0  0.7687946655413994  0.9750741357893061  0.46220135871642754  1.0000
  H   H46       1.0  0.8520606813577771  0.011567797542660694  0.5389873140616217  1.0000
  H   H47       1.0  0.0426906946380967  0.16412855958959227  0.5952657181745167  1.0000
  H   H48       1.0  0.077015432270187  0.07779007362422159  0.5224303227582467  1.0000
  C   C1        1.0  0.27417561655030914  0.13969355327633076  0.06594507655216118  1.0000
  C   C2        1.0  0.2812706861416174  0.07994267670215291  0.05487930127775801  1.0000
  C   C3        1.0  0.24006421293919541  0.05324441457840829  0.0920192206012516  1.0000
  C   C4        1.0  0.060661554773439305  0.30391346129335517  0.2170642060050838  1.0000
  C   C5        1.0  0.07305049518375029  0.34494363021892843  0.1750319798960476  1.0000
  C   C6        1.0  0.12146159465238782  0.31942890818195474  0.14396523332682423  1.0000
  C   C7        1.0  0.1308718004167133  0.023560758361469404  0.2883333326505593  1.0000
  C   C8        1.0  0.1015969963709367  0.0357855557349396  0.3395697828108055  1.0000
  C   C9        1.0  0.0833324087577054  0.09457177691583502  0.3351254383633915  1.0000
  C   C10       1.0  0.6780164269515154  0.23207264019626453  0.885756244802387  1.0000
  C   C11       1.0  0.643612671661188  0.1822188170433705  0.8750843815349184  1.0000
  C   C12       1.0  0.6816776025013169  0.1488219280113441  0.8393788067663837  1.0000
  C   C13       1.0  0.9611502944909703  0.34655985820801055  0.8406681755247332  1.0000
  C   C14       1.0  0.9496076423554244  0.37715311460918594  0.890477325553384  1.0000
  C   C15       1.0  0.8903399688363011  0.35992342394654736  0.9069554482419235  1.0000
  C   C16       1.0  0.8799480932674228  0.11118635624789157  0.6902848893029443  1.0000
  C   C17       1.0  0.9328784103127532  0.1298691687402354  0.6615236980686987  1.0000
  C   C18       1.0  0.9452070697455851  0.18421716805072916  0.685245249843348  1.0000
  C   C19       1.0  0.40853589578157573  0.8087903342444279  0.8482509013072387  1.0000
  C   C20       1.0  0.4257047006660955  0.8653339108052406  0.8332458862748524  1.0000
  C   C21       1.0  0.37716304676855134  0.8856072377889673  0.7997207821025398  1.0000
  C   C22       1.0  0.1453799873821922  0.6662302650903695  0.9020289982376681  1.0000
  C   C23       1.0  0.17874964548428815  0.6514089266597692  0.9500961578149472  1.0000
  C   C24       1.0  0.2374226355402342  0.6742570430931493  0.9401335002789892  1.0000
  C   C25       1.0  0.1571092292232379  0.8551875882947898  0.6808844546866197  1.0000
  C   C26       1.0  0.1021550722895341  0.8267174244537967  0.6683955290071851  1.0000
  C   C27       1.0  0.10043897197653712  0.7801816801335307  0.7064225760058278  1.0000
  C   C28       1.0  0.6398971119399662  0.8961222182645868  0.1003800289899743  1.0000
  C   C29       1.0  0.6118836923220741  0.9464762074616927  0.1228565632682006  1.0000
  C   C30       1.0  0.6300893278396772  0.9465475302226806  0.1789342883719556  1.0000
  C   C31       1.0  0.8739630321307603  0.7017726142725634  0.1595329622894184  1.0000
  C   C32       1.0  0.8521181771677391  0.6777121588210233  0.10970215621517099  1.0000
  C   C33       1.0  0.7983933227287707  0.7102215288249242  0.0987320298216972  1.0000
  C   C34       1.0  0.7735831828755838  0.9058381821275672  0.35164298076048794  1.0000
  C   C35       1.0  0.8301319743000306  0.8970903283401909  0.3782477798763253  1.0000
  C   C36       1.0  0.8617662104446069  0.8568600183320069  0.3438141148540979  1.0000
  C   C37       1.0  0.3198725819706709  0.048113064231550595  0.0160586805058074  1.0000
  C   C38       1.0  0.3121221091358706  0.9945780313421935  0.9918099528816028  1.0000
  C   C39       1.0  0.3666772003886579  0.982085696969662  0.9607676649689552  1.0000
  C   C40       1.0  0.4054527622327839  0.028486328722415497  0.9668848147022259  1.0000
  C   C41       1.0  0.583353431031057  0.16864619457284394  0.8968063744406648  1.0000
  C   C42       1.0  0.5332417112401728  0.20197658391878548  0.9131894185782768  1.0000
  C   C43       1.0  0.48708469612083155  0.1625021867836907  0.9312633784999208  1.0000
  C   C44       1.0  0.5108153842837311  0.10701251203163756  0.925095949908311  1.0000
  C   C45       1.0  0.47627602019008464  0.8965600732333171  0.8573708865060823  1.0000
  C   C46       1.0  0.5334584334418083  0.8804280488793308  0.8765897510660495  1.0000
  C   C47       1.0  0.5544005579215677  0.9273953101465008  0.9099557974682354  1.0000
  C   C48       1.0  0.5097103817291213  0.9704251508883528  0.9091823388016779  1.0000
  C   C49       1.0  0.575739277488097  0.9905562836044834  0.09528782839372948  1.0000
  C   C50       1.0  0.555620133675042  0.045104332772055486  0.11152727291737818  1.0000
  C   C51       1.0  0.5260218260211431  0.0703313522286209  0.0645618933560428  1.0000
  C   C52       1.0  0.5287465291435325  0.030206784374975395  0.021909650987773  1.0000
  C   C53       1.0  0.0412603981854289  0.3992077978611945  0.1646462846647623  1.0000
  C   C54       1.0  0.9954938203946357  0.42954279688853336  0.1927901807056713  1.0000
  C   C55       1.0  0.9801908810311347  0.47860155393805576  0.1591250495205472  1.0000
  C   C56       1.0  0.017315295714404003  0.4765739464239829  0.1122103746273311  1.0000
  C   C57       1.0  0.8762133514539769  0.6314833533148699  0.0749051390790001  1.0000
  C   C58       1.0  0.8532262636236043  0.6059436320728437  0.0276574474979157  1.0000
  C   C59       1.0  0.8976409844033384  0.5638721826285291  0.0096399159535707  1.0000
  C   C60       1.0  0.9457470283909472  0.5651408120301652  0.04645539309166221  1.0000
  C   C61       1.0  0.9918174978164204  0.41566392100940414  0.916982415064389  1.0000
  C   C62       1.0  0.0509818959688033  0.43124602409812235  0.9031845277555915  1.0000
  C   C63       1.0  0.0702067654006768  0.4703087636702889  0.945187448688749  1.0000
  C   C64       1.0  0.022351152773516996  0.4770847196126126  0.9828608888738586  1.0000
  C   C65       1.0  0.1576692225135687  0.6196116008429938  0.9982715295819206  1.0000
  C   C66       1.0  0.1826606968467459  0.6066266878859281  0.04950058492909899  1.0000
  C   C67       1.0  0.1389610910088663  0.571847629722818  0.0784744759502374  1.0000
  C   C68       1.0  0.0892634237549643  0.5651853738836223  0.0441332319221672  1.0000
  C   C69       1.0  0.09478829471763113  0.9956820247355365  0.3853855916787198  1.0000
  C   C70       1.0  0.125307186880498  0.9446767711142808  0.39885155176039433  1.0000
  C   C71       1.0  0.09819020153839379  0.9242309777497653  0.4493919241499995  1.0000
  C   C72       1.0  0.052630487081494  0.9633733940585144  0.46468336312032227  1.0000
  C   C73       1.0  0.05567662468584441  0.8406160356634871  0.6279429063310076  1.0000
  C   C74       1.0  0.0037553476929801013  0.8116621526434072  0.6117830694442503  1.0000
  C   C75       1.0  0.9735174885896143  0.8480148746696798  0.572281110512634  1.0000
  C   C76       1.0  0.008109387522360099  0.8972767144017977  0.5656235927453963  1.0000
  C   C77       1.0  0.8485975847377604  0.926304938725927  0.428341607977366  1.0000
  C   C78       1.0  0.8170997938686712  0.962936441906784  0.4644881369666294  1.0000
  C   C79       1.0  0.8603297905406038  0.9818241624451287  0.5044665512621123  1.0000
  C   C80       1.0  0.9160430722234383  0.9558067433857077  0.49148288481329416  1.0000
  C   C81       1.0  0.9697003445164045  0.10304332563216424  0.6181206125076814  1.0000
  C   C82       1.0  0.020834106245267495  0.12246598625805658  0.5896217342949512  1.0000
  C   C83       1.0  0.0387895963623777  0.07754769344050058  0.551911110856345  1.0000
  C   C84       1.0  0.9981822451651537  0.032671930469540186  0.5587943002857969  1.0000
  N   N1        1.0  0.210662293051449  0.09399157566438278  0.1228336681483597  1.0000
  N   N2        1.0  0.2315262766108219  0.14767610824970487  0.1067634735555316  1.0000
  N   N3        1.0  0.1365613864676121  0.26710900620278005  0.1659153981203474  1.0000
  N   N4        1.0  0.09874900547502113  0.25741465029080507  0.21127830318851437  1.0000
  N   N5        1.0  0.1009969916175848  0.11564343747144792  0.2848761492484044  1.0000
  N   N6        1.0  0.1302270932704772  0.0714946511420251  0.2560220244336477  1.0000
  N   N7        1.0  0.7347027912520546  0.17700758465701943  0.8293733890526622  1.0000
  N   N8        1.0  0.7324650383523093  0.22861276440804795  0.8583836445254036  1.0000
  N   N9        1.0  0.868561115163658  0.3217254000277164  0.8695037433708492  1.0000
  N   N10       1.0  0.9125057759574915  0.31357636024738156  0.8285790270559443  1.0000
  N   N11       1.0  0.9030736650644897  0.19679470203552535  0.7250412840853073  1.0000
  N   N12       1.0  0.8624572118539148  0.15169246667943534  0.7283974716906272  1.0000
  N   N13       1.0  0.33440089401147327  0.84394994761238  0.7952372189147852  1.0000
  N   N14       1.0  0.3538151030821339  0.7963160460938709  0.8256180433344155  1.0000
  N   N15       1.0  0.23872211882942201  0.700672498693514  0.8898701628520627  1.0000
  N   N16       1.0  0.18171573399059335  0.695863652699515  0.8663499344461839  1.0000
  N   N17       1.0  0.1503749441123787  0.7810229187710643  0.7390986525773754  1.0000
  N   N18       1.0  0.18571774380517783  0.827494691985926  0.7233413393254864  1.0000
  N   N19       1.0  0.6663995844446688  0.8998134630383204  0.188888879885269  1.0000
  N   N20       1.0  0.6726239357650243  0.8685747902954047  0.14032467951371067  1.0000
  N   N21       1.0  0.7890898725174368  0.7504933948988606  0.1387458697287371  1.0000
  N   N22       1.0  0.8358798171348667  0.7454270683855241  0.17666294406523522  1.0000
  N   N23       1.0  0.8263102329654971  0.8429300416828979  0.29990330082198824  1.0000
  N   N24       1.0  0.7717198592445413  0.8734693220106633  0.30496923407585536  1.0000
  O   O1        1.0  0.37630712777542646  0.0696690507338928  0.0011556862843918  1.0000
  O   O2        1.0  0.5703500708123812  0.11079268364211707  0.9037778759772975  1.0000
  O   O3        1.0  0.4621758175491025  0.9518310196897487  0.8755028656443289  1.0000
  O   O4        1.0  0.559243102648253  0.9806524623949995  0.0409329589697052  1.0000
  O   O5        1.0  0.05539479176552219  0.4275861070808204  0.11575240333458231  1.0000
  O   O6        1.0  0.9324955018978258  0.6069219188138887  0.0871192062197679  1.0000
  O   O7        1.0  0.9736576344627751  0.4431228606977341  0.9654229339782531  1.0000
  O   O8        1.0  0.10075797081176319  0.5950304435931385  0.9945978208330641  1.0000
  O   O9        1.0  0.050500903970061  0.0077255004124908  0.42509142825800683  1.0000
  O   O10       1.0  0.0592276828524803  0.8926624252556222  0.5999270055590671  1.0000
  O   O11       1.0  0.9087439835936948  0.9211743612201813  0.4444579728601568  1.0000
  O   O12       1.0  0.955229042409279  0.04838878760848078  0.5998342029760693  1.0000
