data_image0
_chemical_formula_structural       CdCo2H16C12N4O16
_chemical_formula_sum              "Cd1 Co2 H16 C12 N4 O16"
_cell_length_a       7.488037738033843
_cell_length_b       8.949230637059104
_cell_length_c       8.949256053018695
_cell_angle_alpha    90.0002341130609
_cell_angle_beta     89.99999888359238
_cell_angle_gamma    90.00034451439971

_space_group_name_H-M_alt    "P 1"
_space_group_IT_number       1

loop_
  _space_group_symop_operation_xyz
  'x, y, z'

loop_
  _atom_site_type_symbol
  _atom_site_label
  _atom_site_symmetry_multiplicity
  _atom_site_fract_x
  _atom_site_fract_y
  _atom_site_fract_z
  _atom_site_occupancy
  Cd  Cd1       1.0  0.9999991317500233  0.5000004277420516  0.49999900667810226  1.0000
  Co  Co1       1.0  0.5432736312673896  0.4999996549014084  0.9999976552673284  1.0000
  Co  Co2       1.0  0.45672179617536574  1.0535212310999999e-06  0.4999990917822712  1.0000
  H   H1        1.0  0.1827216949849415  0.6268930264663553  0.8836791984097868  1.0000
  H   H2        1.0  0.1827247801324035  0.3731031612502562  0.11632439292797866  1.0000
  H   H3        1.0  0.8172800437512963  0.8836754291694291  0.373108775419304  1.0000
  H   H4        1.0  0.8172799605246582  0.11632618586101272  0.6268947844472378  1.0000
  H   H5        1.0  0.07147493548323074  0.6321540856931948  0.06023869838159608  1.0000
  H   H6        1.0  0.0714699900586027  0.3678426597323323  0.9397660158881176  1.0000
  H   H7        1.0  0.9285305306308945  0.06023843321941059  0.3678463187518019  1.0000
  H   H8        1.0  0.9285296877531979  0.939761506684277  0.6321561181805392  1.0000
  H   H9        1.0  0.3444542886506454  0.6205138044120347  0.18557757795338145  1.0000
  H   H10       1.0  0.344448088376808  0.3794854317876214  0.8144226531328298  1.0000
  H   H11       1.0  0.6555542585913372  0.18557591898892403  0.379482185510028  1.0000
  H   H12       1.0  0.6555511792457551  0.8144248823679875  0.620513560499411  1.0000
  H   H13       1.0  0.3886037922527024  0.7380276416682393  0.04556506127795498  1.0000
  H   H14       1.0  0.38860476365791646  0.26197069924862143  0.9544329327932243  1.0000
  H   H15       1.0  0.6113993291604629  0.0455624145298685  0.2619682220502567  1.0000
  H   H16       1.0  0.6113959233953707  0.9544370472707727  0.7380297609697519  1.0000
  C   C1        1.0  0.18497847782992247  0.5846952267819316  0.9988842190584886  1.0000
  C   C2        1.0  0.1849818634314033  0.4153020897039141  0.0011193721696045999  1.0000
  C   C3        1.0  0.8150208542235975  0.9988809437918889  0.41530357949361  1.0000
  C   C4        1.0  0.8150212775223269  0.0011206598737417  0.5846999804849842  1.0000
  C   C5        1.0  0.7762956823797965  0.4197558441156133  0.7863254170632101  1.0000
  C   C6        1.0  0.7762909102344369  0.5802444472942981  0.2136781448341053  1.0000
  C   C7        1.0  0.22370763448571301  0.7863117999732411  0.5802464795560309  1.0000
  C   C8        1.0  0.2237082459153683  0.21368906360187617  0.41975934458054087  1.0000
  C   C9        1.0  0.6793535683581098  0.5608704112608792  0.7311121795801155  1.0000
  C   C10       1.0  0.6793624735809021  0.4391394491866905  0.2688880349120381  1.0000
  C   C11       1.0  0.32063670015892143  0.7311014227915605  0.4391530721314607  1.0000
  C   C12       1.0  0.3206323699217394  0.26889769358310633  0.5608460427248048  1.0000
  N   N1        1.0  0.35622910081225  0.6297434416791672  0.0700976064528263  1.0000
  N   N2        1.0  0.3562255079523595  0.3702580886002308  0.9299048588764547  1.0000
  N   N3        1.0  0.6437750567443532  0.07009555249104693  0.3702621892126173  1.0000
  N   N4        1.0  0.6437741429656044  0.929902954789746  0.6297380270217585  1.0000
  O   O1        1.0  0.7248957588047351  0.622254329542919  0.6117694228129122  1.0000
  O   O2        1.0  0.7249068966824485  0.3777434684734757  0.3882296719837511  1.0000
  O   O3        1.0  0.27509964109705726  0.6117546105727885  0.37775219505518  1.0000
  O   O4        1.0  0.2750961700208165  0.38824315929503683  0.6222491568801869  1.0000
  O   O5        1.0  0.5530776668752181  0.6083123364090995  0.8170870237940233  1.0000
  O   O6        1.0  0.5530782162332175  0.39168124490088013  0.18290649246213053  1.0000
  O   O7        1.0  0.4469210943242602  0.8170878059664801  0.3916900814421353  1.0000
  O   O8        1.0  0.4469295019403888  0.1829108283752987  0.6083123793814307  1.0000
  O   O9        1.0  0.7229157021184633  0.370760697489608  0.9139392778969434  1.0000
  O   O10       1.0  0.7229126144601496  0.6292471472299681  0.08604529067169146  1.0000
  O   O11       1.0  0.2770785512453031  0.9139542917239823  0.6292418729265845  1.0000
  O   O12       1.0  0.2770822505614917  0.0860401358606921  0.3707527744356937  1.0000
  O   O13       1.0  0.8984970487851456  0.36215551371818583  0.7102038852081873  1.0000
  O   O14       1.0  0.8984966988530303  0.6378543318081711  0.28979408358915026  1.0000
  O   O15       1.0  0.10149777460921432  0.7101966874015275  0.6378544676557991  1.0000
  O   O16       1.0  0.10149893162165569  0.2898013264887283  0.36214465807023527  1.0000
