data_image0
_chemical_formula_structural       Cd4H20C20I4N24O4
_chemical_formula_sum              "Cd4 H20 C20 I4 N24 O4"
_cell_length_a       7.867714025132135
_cell_length_b       9.332489281355764
_cell_length_c       13.96493207101344
_cell_angle_alpha    89.99997038609183
_cell_angle_beta     89.999847229262
_cell_angle_gamma    94.75622029028429

_space_group_name_H-M_alt    "P 1"
_space_group_IT_number       1

loop_
  _space_group_symop_operation_xyz
  'x, y, z'

loop_
  _atom_site_type_symbol
  _atom_site_label
  _atom_site_symmetry_multiplicity
  _atom_site_fract_x
  _atom_site_fract_y
  _atom_site_fract_z
  _atom_site_occupancy
  Cd  Cd1       1.0  0.7757179033861235  0.0760170104462716  0.5459168475909166  1.0000
  Cd  Cd2       1.0  0.7242812071680974  0.42398260542422855  0.04591654465117051  1.0000
  Cd  Cd3       1.0  0.22428063932451886  0.9239807041167863  0.4540842360534967  1.0000
  Cd  Cd4       1.0  0.27571593893689783  0.5760140525632025  0.9540838229150735  1.0000
  H   H1        1.0  0.6735682920932718  0.35945516528497723  0.5336060404727974  1.0000
  H   H2        1.0  0.8264372232001094  0.14054437220063687  0.0336056781142489  1.0000
  H   H3        1.0  0.3264379922783647  0.6405435133898507  0.466394327086256  1.0000
  H   H4        1.0  0.17357071296947874  0.8594575131873512  0.9663961216018109  1.0000
  H   H5        1.0  0.760516769296352  0.3514292232159804  0.6380633410713016  1.0000
  H   H6        1.0  0.7394816393083589  0.14856813713026185  0.1380616744259413  1.0000
  H   H7        1.0  0.23948177341429744  0.6485684913470775  0.36193774257311156  1.0000
  H   H8        1.0  0.26051830001141246  0.8514306340092472  0.8619386931378585  1.0000
  H   H9        1.0  0.9164785873729004  0.8824095992824328  0.2808104136588767  1.0000
  H   H10       1.0  0.5835194669782171  0.6175910044809638  0.7808131395846161  1.0000
  H   H11       1.0  0.08351805531422939  0.1175935276142184  0.7191856574303515  1.0000
  H   H12       1.0  0.4164774239258051  0.38240350336688067  0.2191900922997263  1.0000
  H   H13       1.0  0.902429392592012  0.8729285507032569  0.098794502813476  1.0000
  H   H14       1.0  0.5975717064261442  0.6270797682199357  0.5987972045031213  1.0000
  H   H15       1.0  0.09757270892939121  0.12707772742898268  0.9012008521917423  1.0000
  H   H16       1.0  0.40243038811811976  0.3729157407255528  0.4012053112977583  1.0000
  H   H17       1.0  0.4242403389431645  0.9842234372836528  0.08558604292116459  1.0000
  H   H18       1.0  0.07576589519371878  0.5157737800269186  0.5855816534405633  1.0000
  H   H19       1.0  0.5757644212119148  0.01577310974329999  0.9144193371950988  1.0000
  H   H20       1.0  0.9242351855515593  0.48422389755354084  0.41441370156685053  1.0000
  C   C1        1.0  0.4723904139904392  0.022297345088823306  0.2799071973235669  1.0000
  C   C2        1.0  0.027609471073226574  0.47770708645266063  0.7799063074428146  1.0000
  C   C3        1.0  0.527608894302297  0.9777068198880701  0.7200938863191978  1.0000
  C   C4        1.0  0.972388440615596  0.5222960219490104  0.22009334404240377  1.0000
  C   C5        1.0  0.31621731468326436  0.9768482648409318  0.22861152555213238  1.0000
  C   C6        1.0  0.1837807465104575  0.5231607441020499  0.728606971468615  1.0000
  C   C7        1.0  0.6837785693589852  0.0231591808192206  0.7713938545689842  1.0000
  C   C8        1.0  0.8162169099947506  0.4768402141641345  0.271388383540824  1.0000
  C   C9        1.0  0.028780076205478542  0.9077552556546491  0.23634899052861866  1.0000
  C   C10       1.0  0.471218833682549  0.592250500736604  0.7363489946056134  1.0000
  C   C11       1.0  0.9712180906791092  0.0922500028853719  0.7636499448766612  1.0000
  C   C12       1.0  0.5287809780402098  0.40774719533392556  0.2636513729584564  1.0000
  C   C13       1.0  0.021894547395490273  0.9019745511474894  0.13648814570966286  1.0000
  C   C14       1.0  0.4781072570735247  0.5980302073980395  0.6364895696912143  1.0000
  C   C15       1.0  0.9781074265236928  0.09803065191454863  0.8635093575339923  1.0000
  C   C16       1.0  0.5218910304413599  0.4019653570266613  0.3635122300331304  1.0000
  C   C17       1.0  0.30926299510160504  0.9653576115139657  0.1286554431724554  1.0000
  C   C18       1.0  0.19073770593561076  0.5346482495530366  0.6286544552366493  1.0000
  C   C19       1.0  0.690737964994291  0.0346497601773095  0.8713449243891488  1.0000
  C   C20       1.0  0.8092641403848192  0.46535587843961684  0.3713437640866672  1.0000
  I   I1        1.0  0.8917834100915414  0.7872339417066667  0.5073350013194613  1.0000
  I   I2        1.0  0.6082129217612932  0.7127627115392059  0.0073356586955383996  1.0000
  I   I3        1.0  0.10821627403419852  0.21276267929489728  0.4926653662448856  1.0000
  I   I4        1.0  0.39178739338974117  0.2872285156245624  0.9926647088692276  1.0000
  N   N1        1.0  0.6416120625951223  0.0723078221252749  0.39590547803546616  1.0000
  N   N2        1.0  0.8583889029283825  0.4276891878499142  0.895904824247303  1.0000
  N   N3        1.0  0.35838901813627194  0.9276898554519093  0.6040956056070427  1.0000
  N   N4        1.0  0.14161103639138864  0.572309583289595  0.1040955433164967  1.0000
  N   N5        1.0  0.4818356550778945  0.021336870607399302  0.37593988093414044  1.0000
  N   N6        1.0  0.01816452300764129  0.47866313233355834  0.8759390049146915  1.0000
  N   N7        1.0  0.5181642842401432  0.9786619005316979  0.6240612027090434  1.0000
  N   N8        1.0  0.9818331334871502  0.5213378259301676  0.1240606465710741  1.0000
  N   N9        1.0  0.6229963471411465  0.07303150747375751  0.24145647709662646  1.0000
  N   N10       1.0  0.8770029567838121  0.4269667911985948  0.7414550795242363  1.0000
  N   N11       1.0  0.37700206797075003  0.9269651320199159  0.7585453226274408  1.0000
  N   N12       1.0  0.12299330310185749  0.5730331104886872  0.2585452880421357  1.0000
  N   N13       1.0  0.7270593811496014  0.10359775489359177  0.3158090649360759  1.0000
  N   N14       1.0  0.772941972707571  0.3963993466866356  0.8158092658690846  1.0000
  N   N15       1.0  0.2729405581684361  0.8964010162455052  0.684192018707108  1.0000
  N   N16       1.0  0.2270565700030716  0.6035983678764225  0.1841918177753215  1.0000
  N   N17       1.0  0.1752474402891337  0.9446142237237538  0.281786259840878  1.0000
  N   N18       1.0  0.3247469318849383  0.5553872359045186  0.7817857799328891  1.0000
  N   N19       1.0  0.8247452677577057  0.055387883579868506  0.7182148238071804  1.0000
  N   N20       1.0  0.6752455209696109  0.44461272126157075  0.21821458763633217  1.0000
  N   N21       1.0  0.16281764711463606  0.9282021672504542  0.08329694262539528  1.0000
  N   N22       1.0  0.337189491292044  0.5718025781591293  0.5832957225294494  1.0000
  N   N23       1.0  0.8371878786329604  0.0718008301927853  0.9167041410129  1.0000
  N   N24       1.0  0.6628193311055456  0.4281960635310539  0.4167024967895472  1.0000
  O   O1        1.0  0.6816352913455505  0.2981378840807807  0.5920946928469917  1.0000
  O   O2        1.0  0.8183662609400741  0.201862717059683  0.09209432228068688  1.0000
  O   O3        1.0  0.3183659169863303  0.7018608685662001  0.4079049586364717  1.0000
  O   O4        1.0  0.1816377406013814  0.7981381487381398  0.9079074774384921  1.0000
