data_image0
_chemical_formula_structural       Sr2H14C14N2O12
_chemical_formula_sum              "Sr2 H14 C14 N2 O12"
_cell_length_a       7.771350696123738
_cell_length_b       8.074672153135198
_cell_length_c       8.077337113336798
_cell_angle_alpha    88.24232036450975
_cell_angle_beta     71.45194932143195
_cell_angle_gamma    71.94871739838571

_space_group_name_H-M_alt    "P 1"
_space_group_IT_number       1

loop_
  _space_group_symop_operation_xyz
  'x, y, z'

loop_
  _atom_site_type_symbol
  _atom_site_label
  _atom_site_symmetry_multiplicity
  _atom_site_fract_x
  _atom_site_fract_y
  _atom_site_fract_z
  _atom_site_occupancy
  Sr  Sr1       1.0  0.693032954249574  0.6489190237396086  0.37221362654771173  1.0000
  Sr  Sr2       1.0  0.3069660920352104  0.35108179377532167  0.6277859247780525  1.0000
  H   H1        1.0  0.6527689028411671  0.28892692623666966  0.8365707417265184  1.0000
  H   H2        1.0  0.34723195873369395  0.7110725734130057  0.16342952063551758  1.0000
  H   H3        1.0  0.7875478521756561  0.7338400819021514  0.8834553820164428  1.0000
  H   H4        1.0  0.21244983514972662  0.2661607405238017  0.1165445905292231  1.0000
  H   H5        1.0  0.7000951811024266  0.05696637558167338  0.31361522892903787  1.0000
  H   H6        1.0  0.2999070394318366  0.943033119156979  0.6863846122130964  1.0000
  H   H7        1.0  0.13632737268907397  0.5616575659103303  0.1188783164313065  1.0000
  H   H8        1.0  0.8636739452164616  0.4383406207851123  0.8811230781868958  1.0000
  H   H9        1.0  0.990311916037072  0.2808383323085764  0.43286577826355455  1.0000
  H   H10       1.0  0.009683516251001787  0.7191651075024765  0.5671348223331805  1.0000
  H   H11       1.0  0.7798003600124443  0.2654455373530098  0.514935252912089  1.0000
  H   H12       1.0  0.22019552860631822  0.7345565895038033  0.48506647994081215  1.0000
  H   H13       1.0  0.11576933435318174  0.585738269259153  0.3221478000382377  1.0000
  H   H14       1.0  0.8842301682622773  0.4142612353015381  0.677852883543693  1.0000
  C   C1        1.0  0.7128547260727202  0.98715952763564  0.6559085120362906  1.0000
  C   C2        1.0  0.287147935949683  0.0128347403486799  0.34409257233515683  1.0000
  C   C3        1.0  0.7237807314844884  0.008677128997675301  0.83617728032484  1.0000
  C   C4        1.0  0.2762201300903725  0.9913223706519929  0.16382298203719609  1.0000
  C   C5        1.0  0.684623898506068  0.17548138050559456  0.9110954523136741  1.0000
  C   C6        1.0  0.31537695477706507  0.8245181258612744  0.08890357437660867  1.0000
  C   C7        1.0  0.6780147924333092  0.1947625557884649  0.08394861649868797  1.0000
  C   C8        1.0  0.3219842621432036  0.8052382550092716  0.9160521704988298  1.0000
  C   C9        1.0  0.7570827377725278  0.8658224365691539  0.938071473129469  1.0000
  C   C10       1.0  0.24291857184128673  0.13417575684348287  0.061928685816980036  1.0000
  C   C11       1.0  0.6368841142995193  0.3695573521435235  0.1724618166006167  1.0000
  C   C12       1.0  0.36311310840346056  0.6304447899538558  0.8275357880171299  1.0000
  C   C13       1.0  0.7091572906664467  0.044889456197701294  0.1763460992082456  1.0000
  C   C14       1.0  0.2908453779067628  0.9551087323039126  0.8236536385183014  1.0000
  N   N1        1.0  0.7480649745929211  0.8832154079122674  0.10616636049444146  1.0000
  N   N2        1.0  0.25193543894298637  0.11678539797444638  0.8938340052831747  1.0000
  O   O1        1.0  0.5304507086245351  0.40343088702394425  0.33146493419641126  1.0000
  O   O2        1.0  0.46954288523919974  0.5965699635694647  0.6685338306654458  1.0000
  O   O3        1.0  0.6373397724891773  0.12523638693483716  0.5894965811378582  1.0000
  O   O4        1.0  0.36266112051167454  0.8747670130805503  0.4105060415945303  1.0000
  O   O5        1.0  0.7146378595889897  0.47768795156938654  0.08663931991923601  1.0000
  O   O6        1.0  0.2853620910654229  0.5223102467542659  0.9133612602471074  1.0000
  O   O7        1.0  0.7753418663726918  0.8345862593637037  0.5799427252620005  1.0000
  O   O8        1.0  0.22465944979193608  0.165415854566227  0.4200560870395478  1.0000
  O   O9        1.0  0.8522032393090198  0.3495311039956803  0.48058498298086505  1.0000
  O   O10       1.0  0.14779264101800743  0.650471029578334  0.5194155142002757  1.0000
  O   O11       1.0  0.05102141637295422  0.5641512628666163  0.24159856367955262  1.0000
  O   O12       1.0  0.9489776382035513  0.43584954793112024  0.7584022233179649  1.0000
