data_image0
_chemical_formula_structural       Ag2H32C36S4N6O6
_chemical_formula_sum              "Ag2 H32 C36 S4 N6 O6"
_cell_length_a       8.173779171102385
_cell_length_b       9.940671719273432
_cell_length_c       11.620293936032978
_cell_angle_alpha    106.42456436422671
_cell_angle_beta     97.41948802118554
_cell_angle_gamma    91.41229702304562

_space_group_name_H-M_alt    "P 1"
_space_group_IT_number       1

loop_
  _space_group_symop_operation_xyz
  'x, y, z'

loop_
  _atom_site_type_symbol
  _atom_site_label
  _atom_site_symmetry_multiplicity
  _atom_site_fract_x
  _atom_site_fract_y
  _atom_site_fract_z
  _atom_site_occupancy
  Ag  Ag1       1.0  0.5293821403156684  0.5922486885600976  0.8629396695487305  1.0000
  Ag  Ag2       1.0  0.4706161257427651  0.40775135333957724  0.1370596646453208  1.0000
  H   H1        1.0  0.5564439562495026  0.38543331429303157  0.5609020140030269  1.0000
  H   H2        1.0  0.44355553706490275  0.6145667267487339  0.439094848276959  1.0000
  H   H3        1.0  0.5577972298444109  0.009394631174586698  0.6771887745535494  1.0000
  H   H4        1.0  0.44220384195620727  0.9906096095757632  0.322816991367546  1.0000
  H   H5        1.0  0.8169992223466521  0.9509236812818923  0.5979916102687498  1.0000
  H   H6        1.0  0.1830043209514827  0.049080555626787294  0.4020160973496801  1.0000
  H   H7        1.0  0.9588753392014343  0.1145231795278292  0.5061348363940612  1.0000
  H   H8        1.0  0.04112548191568522  0.8854779092032673  0.4938675620047521  1.0000
  H   H9        1.0  0.8593727450004778  0.47003027392019436  0.5470211772894019  1.0000
  H   H10       1.0  0.1406318584312984  0.5299718607844  0.45298181340010063  1.0000
  H   H11       1.0  0.9799585897141159  0.33852293267473504  0.46496979256212984  1.0000
  H   H12       1.0  0.020039592783156503  0.6614760585518623  0.535028419124494  1.0000
  H   H13       1.0  0.9600439783658248  0.15463792370119483  0.3166934420829009  1.0000
  H   H14       1.0  0.03995708494200302  0.8453663181120845  0.683308881075469  1.0000
  H   H15       1.0  0.9582246755687862  0.9468854926370939  0.1375585593489249  1.0000
  H   H16       1.0  0.0417797713566443  0.053114539392673514  0.8624464897791387  1.0000
  H   H17       1.0  0.7522401926432066  0.9267098875209214  0.94905690718646  1.0000
  H   H18       1.0  0.24776432722740083  0.0732911965105885  0.05094496099561501  1.0000
  H   H19       1.0  0.5651858549204221  0.1214951205864736  0.9515531657749466  1.0000
  H   H20       1.0  0.43481595550835556  0.878502813673059  0.048448557331610805  1.0000
  H   H21       1.0  0.3131635520624556  0.30757182027672053  0.6248594729893924  1.0000
  H   H22       1.0  0.6868358640603776  0.6924271692947669  0.37513884885521526  1.0000
  H   H23       1.0  0.3029137519273775  0.14848807314783835  0.6691389024478696  1.0000
  H   H24       1.0  0.697087968570642  0.8515088112358027  0.33085911607921054  1.0000
  H   H25       1.0  0.088181583177402  0.3290386964646712  0.7059988071313584  1.0000
  H   H26       1.0  0.9118190665709918  0.6709602914517133  0.2939996248712264  1.0000
  H   H27       1.0  0.8185459909872536  0.3158892182190414  0.7803715303988812  1.0000
  H   H28       1.0  0.1814521015792536  0.6841087231316648  0.21962297670826567  1.0000
  H   H29       1.0  0.8163591493355327  0.32727292897417476  0.9996028826378949  1.0000
  H   H30       1.0  0.183636480226248  0.6727250151552723  0.0003931255346500319  1.0000
  H   H31       1.0  0.0882795252912203  0.356518130395294  0.13491298708299843  1.0000
  H   H32       1.0  0.9117161063937614  0.6434798134684242  0.8650838817802369  1.0000
  C   C1        1.0  0.7669028145687307  0.2609269887801773  0.5274534388631977  1.0000
  C   C2        1.0  0.23309808798635598  0.7390751508897323  0.4725492213523595  1.0000
  C   C3        1.0  0.6147760119429081  0.2905971985774229  0.5692579844350192  1.0000
  C   C4        1.0  0.3852237341781973  0.7094059942178745  0.4307431060579321  1.0000
  C   C5        1.0  0.5395416733830912  0.20268943111520338  0.6246084489835085  1.0000
  C   C6        1.0  0.4604565176069714  0.7973095590484575  0.375393205465848  1.0000
  C   C7        1.0  0.6146091024605339  0.08069785844340771  0.6354159258797625  1.0000
  C   C8        1.0  0.38538916359789976  0.9193021834562741  0.36458340831428876  1.0000
  C   C9        1.0  0.7634457182424724  0.04807704309744309  0.5908756346296827  1.0000
  C   C10       1.0  0.23655131419040032  0.9519230004573415  0.40912358940639143  1.0000
  C   C11       1.0  0.8397897209965635  0.13804183757238767  0.5377182807844678  1.0000
  C   C12       1.0  0.16021110012055573  0.8619592511587085  0.46228411761434535  1.0000
  C   C13       1.0  0.8538155847416178  0.36530987471922316  0.4810955966207546  1.0000
  C   C14       1.0  0.14618655143902975  0.6346922632955838  0.5189071737527869  1.0000
  C   C15       1.0  0.757398909629714  0.2449448760096544  0.23031981482671438  1.0000
  C   C16       1.0  0.2426007529302226  0.7550572661125584  0.7696801531588096  1.0000
  C   C17       1.0  0.8703678844008068  0.14221523723591636  0.2361582851426648  1.0000
  C   C18       1.0  0.1296339196583816  0.8577826978208093  0.7638408558918429  1.0000
  C   C19       1.0  0.869697734186147  0.02661792920586239  0.1349813419438277  1.0000
  C   C20       1.0  0.13030563774326256  0.9733842068881056  0.865022399278381  1.0000
  C   C21       1.0  0.7578836622588483  0.015202903315774598  0.030476944963098194  1.0000
  C   C22       1.0  0.2421218490466117  0.9847950259784422  0.9695251086174109  1.0000
  C   C23       1.0  0.6521592617229784  0.12288224245411068  0.03148462813229712  1.0000
  C   C24       1.0  0.34784147583297204  0.8771177956038937  0.9685166477590885  1.0000
  C   C25       1.0  0.3810341025931834  0.24179025868706114  0.6734941303212454  1.0000
  C   C26       1.0  0.618965397090811  0.758209781557518  0.3265053140307899  1.0000
  C   C27       1.0  0.22925672459782487  0.3417802531409321  0.8806965667965799  1.0000
  C   C28       1.0  0.7707427729629758  0.6582197873693758  0.1193020168647721  1.0000
  C   C29       1.0  0.08414689730984999  0.3307434885876645  0.7994910655772147  1.0000
  C   C30       1.0  0.9158502144377965  0.6692576061716693  0.20050755958492078  1.0000
  C   C31       1.0  0.9332787750131075  0.32398782030424655  0.8417510023490282  1.0000
  C   C32       1.0  0.06671694023303593  0.6760111742325564  0.15824698902163456  1.0000
  C   C33       1.0  0.9316721106045378  0.3300988546711778  0.9628973992672701  1.0000
  C   C34       1.0  0.06832714051915899  0.6698980332884047  0.03709953825316602  1.0000
  C   C35       1.0  0.08171281706609793  0.3460228830665244  0.03850179789425576  1.0000
  C   C36       1.0  0.9182852839931996  0.6539750572212525  0.9614961519756237  1.0000
  S   S1        1.0  0.7422322488043491  0.3987152417019145  0.3468065955047167  1.0000
  S   S2        1.0  0.2577673365640152  0.6012858489500205  0.6531948320454293  1.0000
  S   S3        1.0  0.42876194675815776  0.3389028879972641  0.835766606658183  1.0000
  S   S4        1.0  0.5712349227987727  0.6610950536798867  0.16423209374439557  1.0000
  N   N1        1.0  0.6508240740507177  0.23506725347979798  0.12864778100573915  1.0000
  N   N2        1.0  0.349177809323237  0.7649317327814841  0.8713507611548297  1.0000
  N   N3        1.0  0.228468605222389  0.35142722051744363  0.9984990964051692  1.0000
  N   N4        1.0  0.7715294958369159  0.6485707197703333  0.0014988534647102903  1.0000
  N   N5        1.0  0.2829162593690313  0.2906416800769875  0.3203447365840334  1.0000
  N   N6        1.0  0.7170831588769959  0.7093573092287639  0.6796544459512577  1.0000
  O   O1        1.0  0.22689155279525863  0.28867190820309924  0.4167521974213316  1.0000
  O   O2        1.0  0.7731090990763363  0.7113270794475495  0.5832470952719435  1.0000
  O   O3        1.0  0.29107224585700214  0.4078194359556022  0.2944337895513486  1.0000
  O   O4        1.0  0.7089247051379105  0.5921795566603621  0.7055651726679815  1.0000
  O   O5        1.0  0.328195093771228  0.18101201448081378  0.25068997949900773  1.0000
  O   O6        1.0  0.6718044059127736  0.8189880257637654  0.7493094648530276  1.0000
