data_image0
_chemical_formula_structural       Mg4H32C16O32
_chemical_formula_sum              "Mg4 H32 C16 O32"
_cell_length_a       5.800549903112084
_cell_length_b       10.188053840522992
_cell_length_c       12.970805638030138
_cell_angle_alpha    89.99989272824877
_cell_angle_beta     90.00023808136913
_cell_angle_gamma    99.43042893103738

_space_group_name_H-M_alt    "P 1"
_space_group_IT_number       1

loop_
  _space_group_symop_operation_xyz
  'x, y, z'

loop_
  _atom_site_type_symbol
  _atom_site_label
  _atom_site_symmetry_multiplicity
  _atom_site_fract_x
  _atom_site_fract_y
  _atom_site_fract_z
  _atom_site_occupancy
  Mg  Mg1       1.0  0.8290456722956351  0.7884699409126271  0.41747387595309243  1.0000
  Mg  Mg2       1.0  0.17095311945776365  0.7115328799413234  0.917474643260732  1.0000
  Mg  Mg3       1.0  0.1709521628955386  0.2115301805217769  0.5825258862029798  1.0000
  Mg  Mg4       1.0  0.8290470077966534  0.28846923291438037  0.0825251188960152  1.0000
  H   H1        1.0  0.45373814037967714  0.8705793277599412  0.2491624089518751  1.0000
  H   H2        1.0  0.5462591906612602  0.6294177871368447  0.749163226393307  1.0000
  H   H3        1.0  0.5462645627819995  0.1294257715035343  0.7508388951293412  1.0000
  H   H4        1.0  0.45374039029768903  0.37057636726104454  0.2508396196173237  1.0000
  H   H5        1.0  0.6616791807089087  0.9200416795095804  0.0831828995663315  1.0000
  H   H6        1.0  0.3383158159130489  0.5799586777895911  0.5831841728161322  1.0000
  H   H7        1.0  0.3383209465556902  0.07996043334431847  0.9168191754768175  1.0000
  H   H8        1.0  0.6616837436804842  0.42004144508836566  0.416818673190086  1.0000
  H   H9        1.0  0.7350925543697073  0.7551746317518352  0.2204482716625265  1.0000
  H   H10       1.0  0.26490998083085066  0.7448235272571538  0.720449165254891  1.0000
  H   H11       1.0  0.2649115893401301  0.24482947397052612  0.7795522614586333  1.0000
  H   H12       1.0  0.7350970653441139  0.25517262290230047  0.2795505969126992  1.0000
  H   H13       1.0  0.011814589214409896  0.05261216793433478  0.1292325000813648  1.0000
  H   H14       1.0  0.9881760869868543  0.4473861704318621  0.6292344449155891  1.0000
  H   H15       1.0  0.9881869785813748  0.9473889513814626  0.870764949191056  1.0000
  H   H16       1.0  0.011816575037976045  0.5526139466646782  0.3707653172356657  1.0000
  H   H17       1.0  0.7845830308572701  0.6800744302989301  0.6041207631565726  1.0000
  H   H18       1.0  0.21541616659263246  0.8199278872086921  0.1041234304465561  1.0000
  H   H19       1.0  0.2154165287158989  0.31992569258263603  0.3958774570768425  1.0000
  H   H20       1.0  0.7845822362763925  0.1800742242004603  0.8958771026707169  1.0000
  H   H21       1.0  0.6703614635257297  0.8125529159442311  0.6075829500399621  1.0000
  H   H22       1.0  0.329640645495239  0.6874474090831129  0.1075813996860262  1.0000
  H   H23       1.0  0.32963809605422517  0.18744720693612751  0.3924168121177161  1.0000
  H   H24       1.0  0.6703586302441024  0.3125517188101767  0.8924175915099894  1.0000
  H   H25       1.0  0.28594640013164974  0.7845289286772046  0.42140527910158443  1.0000
  H   H26       1.0  0.7140515747327355  0.7154709010809555  0.9214070538849128  1.0000
  H   H27       1.0  0.7140528756042882  0.21547019921668925  0.5785929411322996  1.0000
  H   H28       1.0  0.28594309551810687  0.2845302124492122  0.07859270826747891  1.0000
  H   H29       1.0  0.22684260065587142  0.9131949540298552  0.4815008566797303  1.0000
  H   H30       1.0  0.7731590683156925  0.5868037899003511  0.9815006182585861  1.0000
  H   H31       1.0  0.7731566750800738  0.08680417386403862  0.518497363554154  1.0000
  H   H32       1.0  0.22683933454993624  0.4131983215093982  0.0184991438965554  1.0000
  C   C1        1.0  0.6468756546390466  0.018560059781073297  0.3408606815485555  1.0000
  C   C2        1.0  0.35313327743931217  0.48143497799665613  0.8408613914235374  1.0000
  C   C3        1.0  0.35314520803535754  0.9814301334617425  0.6591444773712496  1.0000
  C   C4        1.0  0.646859647074308  0.518572102564626  0.15914222553350746  1.0000
  C   C5        1.0  0.6334826962754292  0.927082619924562  0.2465898343979802  1.0000
  C   C6        1.0  0.36651489595203657  0.5729154939720543  0.7465911706236312  1.0000
  C   C7        1.0  0.36651858769671  0.07291750440116122  0.7534106987234354  1.0000
  C   C8        1.0  0.6334840959602558  0.4270826389317648  0.2534101334592549  1.0000
  C   C9        1.0  0.6600108309443229  0.9982315370852676  0.1420419446126786  1.0000
  C   C10       1.0  0.339984116291035  0.5017667384333819  0.6420433360779895  1.0000
  C   C11       1.0  0.33999274508766314  0.0017705786623523  0.8579578175472875  1.0000
  C   C12       1.0  0.6600128673918491  0.4982303980374142  0.357957197041614  1.0000
  C   C13       1.0  0.44602709091385856  0.0638280008893375  0.1195141482207021  1.0000
  C   C14       1.0  0.5539706811040617  0.4361713534065217  0.6195160704109028  1.0000
  C   C15       1.0  0.553966181526434  0.9361621692205945  0.8804879268248413  1.0000
  C   C16       1.0  0.44603632235025975  0.5638367337112768  0.3804860046342641  1.0000
  O   O1        1.0  0.7250880227083697  0.9736081363993776  0.4232335008124153  1.0000
  O   O2        1.0  0.27491658198704266  0.5263907013007908  0.9232385894331471  1.0000
  O   O3        1.0  0.27491612097770707  0.02639596932719  0.5767616355738028  1.0000
  O   O4        1.0  0.7250850071809438  0.47360444953372394  0.076760401767956  1.0000
  O   O5        1.0  0.5702419318534736  0.1273184349462539  0.33329122377357834  1.0000
  O   O6        1.0  0.4297602984997014  0.37268357231977933  0.8332945496017885  1.0000
  O   O7        1.0  0.42976332584665056  0.8726956192056579  0.666710851265563  1.0000
  O   O8        1.0  0.5702395876720702  0.627305608583896  0.16671060929919426  1.0000
  O   O9        1.0  0.7993194162142032  0.8389356478329902  0.2584482225703297  1.0000
  O   O10       1.0  0.20068201305615224  0.6610634454456844  0.7584514325200047  1.0000
  O   O11       1.0  0.20068701955887042  0.16107044931067094  0.741552310551505  1.0000
  O   O12       1.0  0.7993210166803664  0.3389307118441068  0.2415514134938448  1.0000
  O   O13       1.0  0.8654939344754808  0.09548648843676227  0.1328382838317523  1.0000
  O   O14       1.0  0.1345002222475884  0.4045118471984352  0.6328386990496712  1.0000
  O   O15       1.0  0.1345064766093742  0.9045166194078219  0.8671599364002559  1.0000
  O   O16       1.0  0.8654950370397216  0.5954852878276001  0.3671602921440638  1.0000
  O   O17       1.0  0.247042353164531  0.9910573024937009  0.1234706287554346  1.0000
  O   O18       1.0  0.7529515576626905  0.5089439855085304  0.6234720091814268  1.0000
  O   O19       1.0  0.7529704124858299  0.008946810459036702  0.87652913341163  1.0000
  O   O20       1.0  0.2470304955440383  0.4910491594469377  0.3765246691165204  1.0000
  O   O21       1.0  0.48394816010770825  0.1863353865255561  0.09482171818422812  1.0000
  O   O22       1.0  0.5160430645821633  0.3136659904786328  0.594819895145811  1.0000
  O   O23       1.0  0.5160531024922291  0.8136707062814349  0.9051772730085119  1.0000
  O   O24       1.0  0.48394215354792897  0.6863261623840843  0.4051729283451451  1.0000
  O   O25       1.0  0.7978368768432206  0.7720849885210938  0.576447792944009  1.0000
  O   O26       1.0  0.20215978486431407  0.7279153807285113  0.0764497999893052  1.0000
  O   O27       1.0  0.20216412327810931  0.2279141408193581  0.4235496563293424  1.0000
  O   O28       1.0  0.7978383341606943  0.2720857356941693  0.9235491912041667  1.0000
  O   O29       1.0  0.17529904741503802  0.8496131379574975  0.42411814372928097  1.0000
  O   O30       1.0  0.824702116269151  0.6503856954751016  0.9241179078766635  1.0000
  O   O31       1.0  0.8247033719060184  0.1503909663189091  0.5758823893902729  1.0000
  O   O32       1.0  0.17529515125096407  0.34961243598336017  0.0758826252424782  1.0000
