data_image0
_chemical_formula_structural       Cu4P4H20C20Br4N4O16
_chemical_formula_sum              "Cu4 P4 H20 C20 Br4 N4 O16"
_cell_length_a       7.0013676158772
_cell_length_b       6.908592634246351
_cell_length_c       18.33470560494459
_cell_angle_alpha    90.0013426784618
_cell_angle_beta     92.79269325583587
_cell_angle_gamma    89.9970065943754

_space_group_name_H-M_alt    "P 1"
_space_group_IT_number       1

loop_
  _space_group_symop_operation_xyz
  'x, y, z'

loop_
  _atom_site_type_symbol
  _atom_site_label
  _atom_site_symmetry_multiplicity
  _atom_site_fract_x
  _atom_site_fract_y
  _atom_site_fract_z
  _atom_site_occupancy
  Cu  Cu1       1.0  0.9998419636064073  0.9999794807739094  0.9999682896760759  1.0000
  Cu  Cu2       1.0  0.9998345344125352  0.5000411049912684  0.4999732954475888  1.0000
  Cu  Cu3       1.0  0.4998635543221326  0.9999930847881018  2.3124432495097157e-05  1.0000
  Cu  Cu4       1.0  0.49984442474718094  0.5000157935969654  0.5000271591901111  1.0000
  P   P1        1.0  0.2365833879548163  0.29608941234520364  0.9281285062942857  1.0000
  P   P2        1.0  0.7632054278049126  0.7961491732461  0.5718630332021206  1.0000
  P   P3        1.0  0.76324568382163  0.7038611177140127  0.0718586301835487  1.0000
  P   P4        1.0  0.23658788408995696  0.20391136536400012  0.4281305245995597  1.0000
  H   H1        1.0  0.24267001661742427  0.6320197003725526  0.9169605085464595  1.0000
  H   H2        1.0  0.7571370327058987  0.1320796925046892  0.5830335735410158  1.0000
  H   H3        1.0  0.7571833641690516  0.367942408568915  0.0830276300196502  1.0000
  H   H4        1.0  0.24265914360049118  0.8679837412927186  0.4169562202086965  1.0000
  H   H5        1.0  0.18835192679260626  0.3812847822372659  0.7681646402713013  1.0000
  H   H6        1.0  0.8119260564073656  0.8814284523053004  0.7318032150242146  1.0000
  H   H7        1.0  0.8119147609013667  0.6186005991014626  0.23179853204808146  1.0000
  H   H8        1.0  0.18826481470487982  0.11866536596578209  0.2681787185679241  1.0000
  H   H9        1.0  0.205352959217457  0.1696735447296831  0.658151901142844  1.0000
  H   H10       1.0  0.7952608232334132  0.6698406026125596  0.8418387731017205  1.0000
  H   H11       1.0  0.795214005667191  0.8301944548064738  0.34183490744861433  1.0000
  H   H12       1.0  0.20523748644185963  0.330241624375816  0.15815711390096956  1.0000
  H   H13       1.0  0.27761968309570056  0.8147617856537579  0.6767223039956533  1.0000
  H   H14       1.0  0.7227747973567206  0.3149764539991081  0.823313049597715  1.0000
  H   H15       1.0  0.7227756238108399  0.18508305578570372  0.3233120045347633  1.0000
  H   H16       1.0  0.2775761850758087  0.685134724722751  0.17671225123146428  1.0000
  H   H17       1.0  0.30614965476505773  0.6870850788544233  0.8056429056527391  1.0000
  H   H18       1.0  0.6938114014325265  0.18722777903475674  0.6944049851206698  1.0000
  H   H19       1.0  0.6938452334870178  0.3128104365938  0.1944013389665074  1.0000
  H   H20       1.0  0.30612916174708  0.8128718333503856  0.3056229723060895  1.0000
  C   C1        1.0  0.22949528231908542  0.14987489427144135  0.8443825190916527  1.0000
  C   C2        1.0  0.7705399779657898  0.6499785163642641  0.6556182546589611  1.0000
  C   C3        1.0  0.7705497141456021  0.8500394410632096  0.1556124886955672  1.0000
  C   C4        1.0  0.22945495897175056  0.35010806945066963  0.3443818164763854  1.0000
  C   C5        1.0  0.21146388288654086  0.22633875856744368  0.7740341162963488  1.0000
  C   C6        1.0  0.788763376420846  0.7264734416255292  0.7259517423155017  1.0000
  C   C7        1.0  0.788754159517346  0.773548069993524  0.2259499592432874  1.0000
  C   C8        1.0  0.21140174595321073  0.2736174819177251  0.2740373435498711  1.0000
  C   C9        1.0  0.22253456394672358  0.10831694611287901  0.7127478501439839  1.0000
  C   C10       1.0  0.7779267775594363  0.6084659860189418  0.7872476797315997  1.0000
  C   C11       1.0  0.7778979756657732  0.8915756647293095  0.2872413437385219  1.0000
  C   C12       1.0  0.2224499782751153  0.391626377194271  0.212749743096083  1.0000
  C   C13       1.0  0.26176366392209627  0.9123250867045415  0.7228566785224755  1.0000
  C   C14       1.0  0.7385561399723458  0.41247893532293745  0.7771662052643151  1.0000
  C   C15       1.0  0.7385458582874663  0.08755739320498887  0.277162930198557  1.0000
  C   C16       1.0  0.2617190609691066  0.5876119820199294  0.22285112729277046  1.0000
  C   C17       1.0  0.2777734468076147  0.837938449086721  0.7928055589628755  1.0000
  C   C18       1.0  0.7223085429055375  0.3380740601872602  0.7072205612734945  1.0000
  C   C19       1.0  0.7223358680293545  0.16196719676447205  0.2072173815511675  1.0000
  C   C20       1.0  0.2777321306771229  0.6620139697398101  0.2928000035382468  1.0000
  Br  Br1       1.0  0.2595000388752667  0.0024244743278813994  0.0977961953958797  1.0000
  Br  Br2       1.0  0.7400784232376837  0.5025206757067906  0.402192578046609  1.0000
  Br  Br3       1.0  0.7400930844126494  0.997528958940542  0.90218651098548  1.0000
  Br  Br4       1.0  0.25948751489962524  0.4975485553126048  0.5978010740923523  1.0000
  N   N1        1.0  0.2535021087305936  0.9534871765337839  0.8517931610323686  1.0000
  N   N2        1.0  0.7464502745295505  0.45358976579240107  0.6482207792641432  1.0000
  N   N3        1.0  0.7464670809157853  0.0464300550823324  0.1482151496435264  1.0000
  N   N4        1.0  0.2534731520293505  0.5464953742236531  0.3517872211983217  1.0000
  O   O1        1.0  0.4287445780873398  0.25990271000777915  0.9684006326125425  1.0000
  O   O2        1.0  0.5709652575446924  0.7599043322566175  0.5316620392425264  1.0000
  O   O3        1.0  0.5710000409915638  0.7400926883638235  0.031655277528948  1.0000
  O   O4        1.0  0.4287507543783704  0.24010988372599937  0.46839933372925907  1.0000
  O   O5        1.0  0.22895620928080973  0.5017976190486664  0.8918642505450193  1.0000
  O   O6        1.0  0.7708436703266062  0.0018594390613984  0.6081202661810181  1.0000
  O   O7        1.0  0.7709329316704653  0.49815435711241224  0.10811583261368438  1.0000
  O   O8        1.0  0.2289668122110839  0.9982083371419607  0.3918643421377297  1.0000
  O   O9        1.0  0.057713290580615306  0.2602377101874325  0.9701509747133413  1.0000
  O   O10       1.0  0.941982383832084  0.7603191350190813  0.5297827297594039  1.0000
  O   O11       1.0  0.9420057450613443  0.7396998020399366  0.029771918279635688  1.0000
  O   O12       1.0  0.05771804070270291  0.23978194087086283  0.4701556343166828  1.0000
  O   O13       1.0  0.2559179370800777  0.8752958964199138  0.9182780507099649  1.0000
  O   O14       1.0  0.7438611154459592  0.37536279733868133  0.5817325366164353  1.0000
  O   O15       1.0  0.7438725007854786  0.1246459482989479  0.0817290859154483  1.0000
  O   O16       1.0  0.2558849922607678  0.6247237963603922  0.41827213454593687  1.0000
