data_image0
_chemical_formula_structural       Cu2H32C40N4O8
_chemical_formula_sum              "Cu2 H32 C40 N4 O8"
_cell_length_a       9.513704476272965
_cell_length_b       10.480125706597876
_cell_length_c       10.559020025768946
_cell_angle_alpha    116.39233940203135
_cell_angle_beta     96.95519005070626
_cell_angle_gamma    103.73274159358469

_space_group_name_H-M_alt    "P 1"
_space_group_IT_number       1

loop_
  _space_group_symop_operation_xyz
  'x, y, z'

loop_
  _atom_site_type_symbol
  _atom_site_label
  _atom_site_symmetry_multiplicity
  _atom_site_fract_x
  _atom_site_fract_y
  _atom_site_fract_z
  _atom_site_occupancy
  Cu  Cu1       1.0  0.38396747278382304  0.823931859311877  0.547690070637124  1.0000
  Cu  Cu2       1.0  0.6160337474406179  0.17606945072058983  0.4523106380520972  1.0000
  H   H1        1.0  0.12374429788555123  0.119814746630432  0.33427619276064047  1.0000
  H   H2        1.0  0.8762526320642082  0.8801729873656328  0.6657255737789499  1.0000
  H   H3        1.0  0.05959092264315303  0.955896678635078  0.3539216954656368  1.0000
  H   H4        1.0  0.9404116862066589  0.04409219529638621  0.6460859149103372  1.0000
  H   H5        1.0  0.18376735463163393  0.0978021555979538  0.10738961923219392  1.0000
  H   H6        1.0  0.8162345602586784  0.9021912286669077  0.8926170920532712  1.0000
  H   H7        1.0  0.14761570953713482  0.9377491143174054  0.8422817762297826  1.0000
  H   H8        1.0  0.8523879890884842  0.06224993660554651  0.1577229198687391  1.0000
  H   H9        1.0  0.9971855471355084  0.5408079357909372  0.8830844482534134  1.0000
  H   H10       1.0  0.0028089067405616935  0.4591820513289023  0.11691427552645453  1.0000
  H   H11       1.0  0.035629175085233514  0.7021844715471486  0.15069937138108702  1.0000
  H   H12       1.0  0.9643663294973878  0.29780213857090143  0.8492998484519064  1.0000
  H   H13       1.0  0.016556437627450304  0.5132048695455182  0.6494084864435552  1.0000
  H   H14       1.0  0.9834451097930881  0.48679423619914525  0.3505846422695313  1.0000
  H   H15       1.0  0.9459834086402098  0.6436928926017913  0.6215777154116182  1.0000
  H   H16       1.0  0.05401675227409437  0.35630840294126637  0.3784238221319072  1.0000
  H   H17       1.0  0.2214552882485634  0.034173495694958  0.6157246927866994  1.0000
  H   H18       1.0  0.7785494729293918  0.9658323886143027  0.38427085674518957  1.0000
  H   H19       1.0  0.20565893541770217  0.25737980625255835  0.8326804038081764  1.0000
  H   H20       1.0  0.7943472441449233  0.7426272198919791  0.16731485848158203  1.0000
  H   H21       1.0  0.5723310909889109  0.2275209990065363  0.0922699826379088  1.0000
  H   H22       1.0  0.42767262646494697  0.772488244347251  0.9077279047895817  1.0000
  H   H23       1.0  0.5749341474533054  0.008184718746001402  0.8623911842254373  1.0000
  H   H24       1.0  0.4250706339656531  0.9918245271256864  0.1376077636468905  1.0000
  H   H25       1.0  0.3364297394542747  0.5151275938306626  0.0016343348026169324  1.0000
  H   H26       1.0  0.6635707937931274  0.4848782085779464  0.9983683087448088  1.0000
  H   H27       1.0  0.32874193931066753  0.7334052856224249  0.2292720331531228  1.0000
  H   H28       1.0  0.6712571732245679  0.2665993809366611  0.7707299529868552  1.0000
  H   H29       1.0  0.3928033045868134  0.5271039312826247  0.4753041306213747  1.0000
  H   H30       1.0  0.6071862087793036  0.47289053215597926  0.5246932308869178  1.0000
  H   H31       1.0  0.41581408262382535  0.30426920283115083  0.263344176605692  1.0000
  H   H32       1.0  0.5841761372539481  0.6957275452279461  0.7366495448791001  1.0000
  C   C1        1.0  0.29744703832090386  0.0321978743558873  0.3808013357631453  1.0000
  C   C2        1.0  0.7025562942477066  0.9678000671784517  0.6191999847744613  1.0000
  C   C3        1.0  0.1367932131303604  0.0106709723162126  0.3098336330138665  1.0000
  C   C4        1.0  0.8632093973405548  0.9893213110636981  0.6901698185059503  1.0000
  C   C5        1.0  0.1096973347542232  0.9113845981509671  0.14738895950207367  1.0000
  C   C6        1.0  0.8902981744833768  0.08860199999558203  0.8526121496300691  1.0000
  C   C7        1.0  0.14421324374632152  0.9754993069586534  0.05891844114873383  1.0000
  C   C8        1.0  0.8557822966633424  0.024494038255767202  0.9410856860659895  1.0000
  C   C9        1.0  0.12365277485074698  0.885199646561837  0.9095613510202442  1.0000
  C   C10       1.0  0.8763427967309741  0.1148004457204479  0.09044579427705911  1.0000
  C   C11       1.0  0.06854375222522442  0.7277157229487303  0.8433414592871247  1.0000
  C   C12       1.0  0.9314585256882353  0.2722821921246918  0.15666257940393538  1.0000
  C   C13       1.0  0.03853980794584537  0.6632916919916738  0.9323666258529856  1.0000
  C   C14       1.0  0.9614574850270544  0.33670057281295845  0.06763246809220651  1.0000
  C   C15       1.0  0.05884930653272137  0.753882617506207  0.08239279234309999  1.0000
  C   C16       1.0  0.9411437157001288  0.24610284825866557  0.9176056542871721  1.0000
  C   C17       1.0  0.04212348894868259  0.6326343974497917  0.6801918885690271  1.0000
  C   C18       1.0  0.9578773970971853  0.36736913482773315  0.3198135661475946  1.0000
  C   C19       1.0  0.18134239767282884  0.6816827741221516  0.6330048963128548  1.0000
  C   C20       1.0  0.8186567257934672  0.31832527794237825  0.36699670956926417  1.0000
  C   C21       1.0  0.29840566311007427  0.08298716248431501  0.7227631096662108  1.0000
  C   C22       1.0  0.7016029832162901  0.917017634479471  0.2772314167849713  1.0000
  C   C23       1.0  0.29063344336265123  0.20685482036216737  0.8441793890467865  1.0000
  C   C24       1.0  0.709372015723396  0.7931499570763947  0.15581384536903192  1.0000
  C   C25       1.0  0.3873072133666327  0.26082055898712747  0.9814454215363855  1.0000
  C   C26       1.0  0.6126968475757479  0.7391864381785923  0.018551498461995615  1.0000
  C   C27       1.0  0.4915483403216572  0.18777184518312143  0.9887748078999937  1.0000
  C   C28       1.0  0.5084560796952644  0.8122362793284594  0.011222653710575509  1.0000
  C   C29       1.0  0.49402527122441603  0.0660051651281606  0.8609746561518818  1.0000
  C   C30       1.0  0.5059763143506473  0.9340006697271123  0.139024324592512  1.0000
  C   C31       1.0  0.37831268525923895  0.390289710869638  0.11250308970563343  1.0000
  C   C32       1.0  0.6216846405068281  0.6097127104513193  0.8874948634659888  1.0000
  C   C33       1.0  0.3506794014596439  0.5123797613152591  0.1042794948041106  1.0000
  C   C34       1.0  0.6493228936609441  0.4876249367405521  0.8957218940720894  1.0000
  C   C35       1.0  0.34613012853760955  0.6346078403162495  0.22974590574141018  1.0000
  C   C36       1.0  0.6538675679404449  0.3653956784218124  0.7702573122902693  1.0000
  C   C37       1.0  0.38490905268816533  0.5197845969295758  0.3683140035034356  1.0000
  C   C38       1.0  0.6150832974472993  0.48021215017958263  0.6316827835206029  1.0000
  C   C39       1.0  0.3953222729299172  0.3954535714340537  0.24872327477167028  1.0000
  C   C40       1.0  0.604671852337276  0.6045454508419896  0.7512728219728616  1.0000
  N   N1        1.0  0.39894487011031293  0.013544167132892  0.7302552258445376  1.0000
  N   N2        1.0  0.6010595389755553  0.9864605718732451  0.2697426160238906  1.0000
  N   N3        1.0  0.3633736003189584  0.6385187230979597  0.3599236332112953  1.0000
  N   N4        1.0  0.6366212500797985  0.3614825359125575  0.640076380706333  1.0000
  O   O1        1.0  0.3195319674691532  0.9316951962570597  0.40604047341341243  1.0000
  O   O2        1.0  0.6804830812677168  0.06830956792813231  0.5939679729034213  1.0000
  O   O3        1.0  0.39844914779212814  0.14989954056955665  0.3997835314842818  1.0000
  O   O4        1.0  0.6015495784450949  0.8501006550384959  0.6002116807543489  1.0000
  O   O5        1.0  0.30111918926204595  0.6663483358514314  0.6787392638891704  1.0000
  O   O6        1.0  0.69888137515742  0.3336642136250489  0.3212663977408426  1.0000
  O   O7        1.0  0.16840718818185255  0.7423522643999763  0.5507330690258457  1.0000
  O   O8        1.0  0.8315915629513528  0.25765128079899585  0.4492674308523733  1.0000
