data_image0
_chemical_formula_structural       Dy4H40C56N4O34
_chemical_formula_sum              "Dy4 H40 C56 N4 O34"
_cell_length_a       10.254570907897913
_cell_length_b       12.07861868282353
_cell_length_c       12.9755
_cell_angle_alpha    74.64782446102443
_cell_angle_beta     76.1496306076602
_cell_angle_gamma    71.2079705988966

_space_group_name_H-M_alt    "P 1"
_space_group_IT_number       1

loop_
  _space_group_symop_operation_xyz
  'x, y, z'

loop_
  _atom_site_type_symbol
  _atom_site_label
  _atom_site_symmetry_multiplicity
  _atom_site_fract_x
  _atom_site_fract_y
  _atom_site_fract_z
  _atom_site_occupancy
  Dy  Dy1       1.0  0.19491359559975754  0.7198860130244001  0.5512520270917352  1.0000
  Dy  Dy2       1.0  0.8050844968544907  0.2801133955855946  0.44874909608894603  1.0000
  Dy  Dy3       1.0  0.7934548965656275  0.779810258179957  0.39282237759903893  1.0000
  Dy  Dy4       1.0  0.20654491581910148  0.22019004376841886  0.6071766586601157  1.0000
  H   H1        1.0  0.10976262614144623  0.5795782871469726  0.42635047236786505  1.0000
  H   H2        1.0  0.890235177487348  0.4204220148013961  0.5736504852907062  1.0000
  H   H3        1.0  0.2623347665734883  0.5087705005145011  0.44310553715370565  1.0000
  H   H4        1.0  0.7376640414332698  0.4912298014338746  0.5568952304883652  1.0000
  H   H5        1.0  0.30926492160599384  0.4667308897156631  0.6426362543411132  1.0000
  H   H6        1.0  0.6907348907787351  0.5332694122327126  0.35736432328446455  1.0000
  H   H7        1.0  0.317224918919095  0.5389322842200883  0.7292704432115044  1.0000
  H   H8        1.0  0.6827771910470303  0.4610671243899064  0.2707306905863902  1.0000
  H   H9        1.0  0.7083714775968702  0.0070028795565591  0.469160893838783  1.0000
  H   H10       1.0  0.29162933916582995  0.9929974223918167  0.5308387230870866  1.0000
  H   H11       1.0  0.8683859901826237  0.9707122031778965  0.45182020315051147  1.0000
  H   H12       1.0  0.13161411102755946  0.029287205432098107  0.5481797693139612  1.0000
  H   H13       1.0  0.9733283570874248  0.2525163863674252  0.0864535003093678  1.0000
  H   H14       1.0  0.026674179605762956  0.7474848089193247  0.9135478831110293  1.0000
  H   H15       1.0  0.14170208073402793  0.18045792600371166  0.9245959124717089  1.0000
  H   H16       1.0  0.8582975937490926  0.8195396959295211  0.07540303968704612  1.0000
  H   H17       1.0  0.3016367627579584  0.9733180712307714  0.953488707750509  1.0000
  H   H18       1.0  0.6983598985912565  0.0266795507024682  0.04651158514096207  1.0000
  H   H19       1.0  0.6374621290476341  0.6790550890529659  0.18970579789927916  1.0000
  H   H20       1.0  0.3625379721625563  0.3209443195570287  0.8102957159316162  1.0000
  H   H21       1.0  0.46542008683618963  0.8787939373004862  0.15839447954035538  1.0000
  H   H22       1.0  0.5345804411010562  0.12120725798626353  0.8416057425466121  1.0000
  H   H23       1.0  0.16741749103518797  0.7377152604015864  0.11348568785995636  1.0000
  H   H24       1.0  0.8325830369020579  0.26228593488516344  0.8865137635438032  1.0000
  H   H25       1.0  0.3290682698756697  0.5313469480401238  0.1373027668636126  1.0000
  H   H26       1.0  0.6709338400904555  0.46865246056987087  0.86269913761749  1.0000
  H   H27       1.0  0.9936292988297948  0.6316688480530744  0.06659992149138108  1.0000
  H   H28       1.0  0.006370224729479907  0.3683323472336754  0.9333997199288717  1.0000
  H   H29       1.0  0.1764818655728675  0.5123358139869084  0.9402387085328172  1.0000
  H   H30       1.0  0.8235166536084363  0.4876653812998414  0.05976035222072791  1.0000
  H   H31       1.0  0.34327378228620375  0.3245641266705874  0.019595121480286113  1.0000
  H   H32       1.0  0.6567250257205542  0.6754361752777883  0.9804048754785768  1.0000
  H   H33       1.0  0.40047149369262774  0.9402833112968525  0.3234181025980476  1.0000
  H   H34       1.0  0.5995293230700723  0.05971699065152341  0.6765830556942377  1.0000
  H   H35       1.0  0.21659726056573445  0.128296791365635  0.28686240355002474  1.0000
  H   H36       1.0  0.7834015474410305  0.8717035105827406  0.7131383640920534  1.0000
  H   H37       1.0  0.5079715516071203  0.3273138222025551  0.1738423474549933  1.0000
  H   H38       1.0  0.4920269675741835  0.6726873730842017  0.8261574839817669  1.0000
  H   H39       1.0  0.7050441174445509  0.14563202261898311  0.20487786898971194  1.0000
  H   H40       1.0  0.294954401736753  0.8543691726677666  0.7951219624470482  1.0000
  C   C1        1.0  0.10046086918936942  0.8774717964988882  0.3162600144723129  1.0000
  C   C2        1.0  0.8995366456139705  0.1225293987878615  0.6837384656145247  1.0000
  C   C3        1.0  0.9409586313849445  0.1429225273140915  0.2887674089362164  1.0000
  C   C4        1.0  0.05904218537775558  0.8570777746342773  0.711232978672861  1.0000
  C   C5        1.0  0.11706384129447402  0.9681313485996413  0.21146628701258408  1.0000
  C   C6        1.0  0.8829369754682261  0.0318689533487273  0.7885341005964862  1.0000
  C   C7        1.0  0.0320310732179152  0.0869414777654569  0.19638901554846197  1.0000
  C   C8        1.0  0.9679687391668137  0.9130588241829117  0.8036107913939008  1.0000
  C   C9        1.0  0.041640537945369295  0.16162724630315492  0.09337010910713421  1.0000
  C   C10       1.0  0.9583612831953016  0.8383730556452208  0.9066300884854427  1.0000
  C   C11       1.0  0.13586831640404987  0.1223292909908622  0.004859200020206316  1.0000
  C   C12       1.0  0.8641304916027079  0.8776710109575064  0.9951407969386565  1.0000
  C   C13       1.0  0.2251926254319514  0.006734878042721  0.020425220278738714  1.0000
  C   C14       1.0  0.7748051781968428  0.9932654239056475  0.9795749666966245  1.0000
  C   C15       1.0  0.2152518162850469  0.9318966505905096  0.12256638990434258  1.0000
  C   C16       1.0  0.7847479960996822  0.068103651357859  0.877434187721235  1.0000
  C   C17       1.0  0.5350698224360855  0.6873184690629373  0.1730466308907168  1.0000
  C   C18       1.0  0.4649299899486436  0.3126818328854384  0.8269554881012767  1.0000
  C   C19       1.0  0.44206781389140554  0.7977922664200323  0.15629321277173597  1.0000
  C   C20       1.0  0.5579330028712945  0.2022080355283364  0.8437071748373411  1.0000
  C   C21       1.0  0.2727004462951897  0.7177152007623206  0.12999810963550115  1.0000
  C   C22       1.0  0.7272993660895395  0.282285101186055  0.8700032386732843  1.0000
  C   C23       1.0  0.3621166518713963  0.6055333404236977  0.144072214217502  1.0000
  C   C24       1.0  0.6378831605133399  0.39446696152467103  0.8559291340912836  1.0000
  C   C25       1.0  0.4984884677327485  0.582540597213253  0.16990009861366673  1.0000
  C   C26       1.0  0.5015126378554058  0.41745881139674174  0.8301019958839362  1.0000
  C   C27       1.0  0.47690726421426155  0.7986105643756148  0.5055968173744675  1.0000
  C   C28       1.0  0.523101298746745  0.2013906309111348  0.4944011138972968  1.0000
  C   C29       1.0  0.5174504774712217  0.6887522771619602  0.4533122934777936  1.0000
  C   C30       1.0  0.4825603830711813  0.3112480247864085  0.5466854232830727  1.0000
  C   C31       1.0  0.9573799401901298  0.5979390708599439  0.2777430338171101  1.0000
  C   C32       1.0  0.04261929454369098  0.40206301776518677  0.7222556713978321  1.0000
  C   C33       1.0  0.1274770203633651  0.346605464506915  0.3749599266404857  1.0000
  C   C34       1.0  0.872518774509487  0.6533948374414607  0.6250390990014554  1.0000
  C   C35       1.0  0.14393300633111747  0.4016029484997716  0.2555033387585297  1.0000
  C   C36       1.0  0.8560640817451528  0.5983964601102231  0.7444964330722286  1.0000
  C   C37       1.0  0.05456030690743318  0.5108760990748777  0.21050824923705144  1.0000
  C   C38       1.0  0.9454385010993318  0.48912420287349084  0.7894909770386036  1.0000
  C   C39       1.0  0.06602712192508874  0.547888001474135  0.09775215914753235  1.0000
  C   C40       1.0  0.9339716860816694  0.4521123004742337  0.9022478378113306  1.0000
  C   C41       1.0  0.16707768457519023  0.4816282005314747  0.027888758542410144  1.0000
  C   C42       1.0  0.8329201190535968  0.5183721014168938  0.9721114284329532  1.0000
  C   C43       1.0  0.26053540119160346  0.3770763432917903  0.07177515532050906  1.0000
  C   C44       1.0  0.7394624024371909  0.6229239586565783  0.9282242609716461  1.0000
  C   C45       1.0  0.24934444954820378  0.3385743524756037  0.1841334076943966  1.0000
  C   C46       1.0  0.7506536429060445  0.6614250561343908  0.8158661741198615  1.0000
  C   C47       1.0  0.4307045773191902  0.0223727663751063  0.28707771813375876  1.0000
  C   C48       1.0  0.5692949462400847  0.9776284289116434  0.7129219232865011  1.0000
  C   C49       1.0  0.3264148202670114  0.1260822055229625  0.2676362007586022  1.0000
  C   C50       1.0  0.6735842765652009  0.8739172030870322  0.7323631910391626  1.0000
  C   C51       1.0  0.4913755286606046  0.23841593338608652  0.20183205514065608  1.0000
  C   C52       1.0  0.5086232793461534  0.7615843685622823  0.7981679418182067  1.0000
  C   C53       1.0  0.599245240376419  0.1372248151299189  0.21984616873447752  1.0000
  C   C54       1.0  0.4007532788048919  0.8627763801568308  0.7801536627022827  1.0000
  C   C55       1.0  0.5745670986482524  0.022160151840793705  0.26080315926724035  1.0000
  C   C56       1.0  0.42543371811444775  0.9778401501075751  0.7391964576586291  1.0000
  N   N1        1.0  0.31116825329437586  0.8137008362813918  0.13662621806544453  1.0000
  N   N2        1.0  0.6888335678462951  0.18629946566697703  0.8633732088439174  1.0000
  N   N3        1.0  0.3557473774645814  0.2328861688172523  0.2227734339025532  1.0000
  N   N4        1.0  0.6442504261642056  0.7671141331311233  0.7772259823896022  1.0000
  O   O1        1.0  0.18568012040226017  0.8520795464012211  0.38061921902099266  1.0000
  O   O2        1.0  0.814321989563865  0.14791986220877362  0.6193819147769021  1.0000
  O   O3        1.0  0.003055416211744001  0.8295933260519207  0.32771154111747347  1.0000
  O   O4        1.0  0.9969471204814438  0.170407869234829  0.6722875302532856  1.0000
  O   O5        1.0  0.9520158703217233  0.0892972110720862  0.38711515678480163  1.0000
  O   O6        1.0  0.04798623964440201  0.9107021975379086  0.6128844356466701  1.0000
  O   O7        1.0  0.8608803418900877  0.2480425477631059  0.26654176761209664  1.0000
  O   O8        1.0  0.13912076369806675  0.7519568608468816  0.7334580148358683  1.0000
  O   O9        1.0  0.5804414757904155  0.4772946160527312  0.1872820513953286  1.0000
  O   O10       1.0  0.4195590521468305  0.5227065792340184  0.8127189413748539  1.0000
  O   O11       1.0  0.3509105344915113  0.8284909464916765  0.5537295214507623  1.0000
  O   O12       1.0  0.6490879846897926  0.1715102487950801  0.44627108066920573  1.0000
  O   O13       1.0  0.5677569000544338  0.8519107054475015  0.494281371620545  1.0000
  O   O14       1.0  0.4322420588761771  0.14808602314735  0.5057163947103973  1.0000
  O   O15       1.0  0.4244475520624533  0.6391952238999963  0.4605566947695508  1.0000
  O   O16       1.0  0.5755471005308195  0.3608023980332363  0.5394432074717058  1.0000
  O   O17       1.0  0.6435671756009285  0.65893264205571  0.40449531839109915  1.0000
  O   O18       1.0  0.35643091685331285  0.34106676655428464  0.5955050341063668  1.0000
  O   O19       1.0  0.9654092750590451  0.5823431694313896  0.3778850348095234  1.0000
  O   O20       1.0  0.03459125287820091  0.4176580258553599  0.6221128752278133  1.0000
  O   O21       1.0  0.8730557287418675  0.6909945564943953  0.2323925242049399  1.0000
  O   O22       1.0  0.1269440836428615  0.3090057454539732  0.7676065120542149  1.0000
  O   O23       1.0  0.0271398955992197  0.2996399858837506  0.4140047722666296  1.0000
  O   O24       1.0  0.972859339134601  0.70036210274138  0.5859947036315276  1.0000
  O   O25       1.0  0.21945658726816222  0.3407165779095394  0.4273678580215475  1.0000
  O   O26       1.0  0.7805438027674754  0.6592819373620743  0.5726315092818197  1.0000
  O   O27       1.0  0.6758257989946229  0.9257817493831341  0.27182706385792693  1.0000
  O   O28       1.0  0.32417544449513963  0.07422033924199671  0.7281720320072297  1.0000
  O   O29       1.0  0.19572328832006747  0.5873789178763857  0.4427103539901935  1.0000
  O   O30       1.0  0.8042758085121519  0.41262049073360885  0.5572921205404029  1.0000
  O   O31       1.0  0.2669551223149043  0.5429791070790273  0.6693353230541703  1.0000
  O   O32       1.0  0.73304598327325  0.4570203015309673  0.3306652300770097  1.0000
  O   O33       1.0  0.7891296466892538  0.9350983753424843  0.47285726454703075  1.0000
  O   O34       1.0  0.21087117007344597  0.06490192660589142  0.5271423523788314  1.0000
