data_image0
_chemical_formula_structural       Fe6H54C42O18
_chemical_formula_sum              "Fe6 H54 C42 O18"
_cell_length_a       6.633223936048813
_cell_length_b       15.494652961960178
_cell_length_c       15.428884992274462
_cell_angle_alpha    117.8729023753853
_cell_angle_beta     98.45254463135026
_cell_angle_gamma    97.87298463754179

_space_group_name_H-M_alt    "P 1"
_space_group_IT_number       1

loop_
  _space_group_symop_operation_xyz
  'x, y, z'

loop_
  _atom_site_type_symbol
  _atom_site_label
  _atom_site_symmetry_multiplicity
  _atom_site_fract_x
  _atom_site_fract_y
  _atom_site_fract_z
  _atom_site_occupancy
  Fe  Fe1       1.0  0.5181804810435792  0.3991754042551888  0.7248470719416386  1.0000
  Fe  Fe2       1.0  0.7899959665921941  0.27392435755964323  0.6790872996662143  1.0000
  Fe  Fe3       1.0  0.11528298384170903  0.3222232177723184  0.598785649310116  1.0000
  Fe  Fe4       1.0  0.48760961398717473  0.6003705168142374  0.2779408981745063  1.0000
  Fe  Fe5       1.0  0.21192239952871708  0.7292012723282537  0.3239945794682553  1.0000
  Fe  Fe6       1.0  0.8761664775104377  0.6777825623788727  0.40297616579372414  1.0000
  H   H1        1.0  0.8186840446179672  0.460376200405399  0.44097344801196653  1.0000
  H   H2        1.0  0.3809526393477966  0.5597740971494786  0.021805558586656542  1.0000
  H   H3        1.0  0.35789182284828064  0.9777082231493921  0.5400682000648728  1.0000
  H   H4        1.0  0.17860730390952265  0.5384370917927013  0.5600463289380924  1.0000
  H   H5        1.0  0.6235401890725072  0.4414255816210613  0.9819887483136183  1.0000
  H   H6        1.0  0.6427175810170526  0.02308777752445219  0.4612523134899645  1.0000
  H   H7        1.0  0.1328017202927256  0.14383226666748067  0.4090123264617559  1.0000
  H   H8        1.0  0.7217369937979895  0.5819595832995077  0.7322729427554362  1.0000
  H   H9        1.0  0.9944560432933968  0.26564167510517916  0.8598814771750863  1.0000
  H   H10       1.0  0.8583312809804368  0.8531980502047957  0.5851771747071408  1.0000
  H   H11       1.0  0.2785647646727084  0.40928704854812975  0.26751235969146575  1.0000
  H   H12       1.0  0.009018325714066555  0.7347527696533475  0.14449567708263084  1.0000
  H   H13       1.0  0.24476776994488597  0.27075976473605573  0.4472282620533574  1.0000
  H   H14       1.0  0.8021447219002197  0.5498333605048912  0.8263421075098163  1.0000
  H   H15       1.0  0.9738405594314442  0.17790109534272594  0.7311532171371337  1.0000
  H   H16       1.0  0.7459143064331214  0.7270469360161939  0.5504788585442025  1.0000
  H   H17       1.0  0.20853118769193185  0.45271006327300944  0.1817918980186021  1.0000
  H   H18       1.0  0.025705726939996246  0.8263511173611914  0.2715819092549621  1.0000
  H   H19       1.0  0.5248898762532265  0.17528863669886618  0.4335321649275342  1.0000
  H   H20       1.0  0.09329108419429835  0.5627013500049428  0.7430444069486908  1.0000
  H   H21       1.0  0.35100002965237553  0.25605032552553547  0.8244222967565589  1.0000
  H   H22       1.0  0.46838166372292267  0.8242851839879534  0.5662970483336023  1.0000
  H   H23       1.0  0.913019081958808  0.4374418431243966  0.2614880387387258  1.0000
  H   H24       1.0  0.6501628823655635  0.7445659727565963  0.17661814278003596  1.0000
  H   H25       1.0  0.39867622742853837  0.08874326932660635  0.3053141446601514  1.0000
  H   H26       1.0  0.08554067454762998  0.6884488131038108  0.778678395461284  1.0000
  H   H27       1.0  0.3145509242940392  0.21222708149106503  0.9097431264423715  1.0000
  H   H28       1.0  0.6014174092077196  0.9120444462199582  0.6932356808588548  1.0000
  H   H29       1.0  0.9068603573525563  0.3086819009111607  0.21616244021951292  1.0000
  H   H30       1.0  0.6882298383086931  0.7834814057565179  0.08778446133644  1.0000
  H   H31       1.0  0.5076969757032685  0.215821218379176  0.34304437638661495  1.0000
  H   H32       1.0  0.1639223477839947  0.656144722187143  0.8727404030544147  1.0000
  H   H33       1.0  0.29114746972123123  0.12508532421384896  0.780558678568674  1.0000
  H   H34       1.0  0.4914705846440269  0.7858932783366652  0.6584519484677426  1.0000
  H   H35       1.0  0.8390753472632682  0.3513509501256066  0.1295771073381075  1.0000
  H   H36       1.0  0.7071966778939396  0.8744160846379712  0.21520118878319744  1.0000
  H   H37       1.0  0.023271300634810598  0.1059832325902832  0.22953198344674053  1.0000
  H   H38       1.0  0.7801164548357492  0.7620217649415792  0.8665947983760203  1.0000
  H   H39       1.0  0.9255772351834819  0.12334457901748408  0.8960348631302248  1.0000
  H   H40       1.0  0.9802073042287914  0.8948896747352107  0.764993983795115  1.0000
  H   H41       1.0  0.20211833869075949  0.23277648885919425  0.12158976874878384  1.0000
  H   H42       1.0  0.07798062739593072  0.8713376344333453  0.10081031027051779  1.0000
  H   H43       1.0  0.14362422679622705  0.2316701387676402  0.2670817410230055  1.0000
  H   H44       1.0  0.8699115770784828  0.7312002483543549  0.9603589798322356  1.0000
  H   H45       1.0  0.9123240666848388  0.03640335750373679  0.7680895989733043  1.0000
  H   H46       1.0  0.8599548461757608  0.7704605988787422  0.7316287988657562  1.0000
  H   H47       1.0  0.12551518282441512  0.2761787784995348  0.03666508747632947  1.0000
  H   H48       1.0  0.08581301269396836  0.9624985917578355  0.22650061539237493  1.0000
  H   H49       1.0  0.9219285209312885  0.20644181946170895  0.3111841021094363  1.0000
  H   H50       1.0  0.60425132465852  0.682189748917821  0.8898598991357357  1.0000
  H   H51       1.0  0.7197654073734513  0.1080747614768143  0.7983318725326283  1.0000
  H   H52       1.0  0.07602268762797584  0.7924763569695938  0.6827262346966874  1.0000
  H   H53       1.0  0.3905300430839205  0.3151227265462211  0.10668714363958999  1.0000
  H   H54       1.0  0.2814974058698849  0.8921398218850808  0.20220820080676544  1.0000
  C   C1        1.0  0.7499555592494643  0.39088138510878406  0.5615809537886347  1.0000
  C   C2        1.0  0.19005426298331676  0.4358349253053077  0.8316617944381047  1.0000
  C   C3        1.0  0.3592865104336838  0.1677133145814906  0.6072803827012192  1.0000
  C   C4        1.0  0.24963952452169003  0.6093094342215861  0.439619079521236  1.0000
  C   C5        1.0  0.815486431345974  0.5647352761102908  0.17200017756191244  1.0000
  C   C6        1.0  0.642029585210409  0.8331286619352055  0.3914554823171767  1.0000
  C   C7        1.0  0.616542883841781  0.44563465429251176  0.5322798625673142  1.0000
  C   C8        1.0  0.08766500570013852  0.46702718180240765  0.9163433633967342  1.0000
  C   C9        1.0  0.17220859950223402  0.08456102968675341  0.5536815873127806  1.0000
  C   C10       1.0  0.3811117063537921  0.553336037819129  0.4688203812331081  1.0000
  C   C11       1.0  0.9168647438523934  0.5340325750317801  0.0872815749032653  1.0000
  C   C12       1.0  0.8285227315694356  0.9162095577378292  0.44703025958308706  1.0000
  C   C13       1.0  0.4312329988574888  0.46765480043092095  0.5678504652874492  1.0000
  C   C14       1.0  0.8673306142226733  0.43176782550617787  0.9032830632761485  1.0000
  C   C15       1.0  0.9654161431963714  0.09921716656296549  0.5316304807350603  1.0000
  C   C16       1.0  0.5663541286839902  0.5310442079455555  0.4335246310276516  1.0000
  C   C17       1.0  0.13689778026715516  0.5696267022781994  0.10042899867992354  1.0000
  C   C18       1.0  0.03511316413115378  0.9013894066463092  0.4694432088318477  1.0000
  C   C19       1.0  0.677622219685034  0.47755904056633364  0.4668157011898228  1.0000
  C   C20       1.0  0.21440412998694564  0.534076563700907  0.013410761727506318  1.0000
  C   C21       1.0  0.20015063418885842  0.9871060202870364  0.5226028095910988  1.0000
  C   C22       1.0  0.31953916295762497  0.5210627419185768  0.5341008052760683  1.0000
  C   C23       1.0  0.7900156696716605  0.46709604445889125  0.9902397324376576  1.0000
  C   C24       1.0  0.8003261353396879  0.013557857796413898  0.47865242092348115  1.0000
  C   C25       1.0  0.21300193422385408  0.19245580824902925  0.3844398145460983  1.0000
  C   C26       1.0  0.8271823907733874  0.610005487183514  0.8066781528342373  1.0000
  C   C27       1.0  0.023308026723384452  0.19228259007903853  0.8094274405218937  1.0000
  C   C28       1.0  0.7812790706572628  0.8061639005614509  0.6122080436464115  1.0000
  C   C29       1.0  0.17455418921169746  0.3882039406691148  0.19476081344881627  1.0000
  C   C30       1.0  0.9780354771763837  0.8085021085096853  0.19202958310705023  1.0000
  C   C31       1.0  0.422535903198714  0.1668108777071922  0.36584885901189057  1.0000
  C   C32       1.0  0.05470326184289572  0.6301436120017668  0.7997974639294793  1.0000
  C   C33       1.0  0.2577740339423968  0.1967975410653081  0.8321408530949126  1.0000
  C   C34       1.0  0.5741564004156814  0.8334353131050704  0.6334302414136415  1.0000
  C   C35       1.0  0.9460912799195141  0.3707666971083439  0.20098194063466915  1.0000
  C   C36       1.0  0.7430769371654119  0.8022538998311003  0.1666627261905942  1.0000
  C   C37       1.0  0.06695169887801458  0.18363919755783797  0.2930421825446955  1.0000
  C   C38       1.0  0.7665727286199481  0.701370560013103  0.885181057872472  1.0000
  C   C39       1.0  0.8872960465147202  0.11057565681242207  0.8185050663782361  1.0000
  C   C40       1.0  0.9332110934189615  0.816557350106457  0.7028665441802314  1.0000
  C   C41       1.0  0.2265605947509144  0.29814145345067533  0.11029943681694476  1.0000
  C   C42       1.0  0.11377020194177584  0.8879649308021482  0.1797247749079245  1.0000
  O   O1        1.0  0.7010261602580101  0.36497156694120747  0.6259851720783443  1.0000
  O   O2        1.0  0.07607470159332756  0.36951896468638507  0.7420233321688766  1.0000
  O   O3        1.0  0.3359368276303272  0.25743070906016635  0.6305907822033274  1.0000
  O   O4        1.0  0.3047576769668652  0.6378673576945033  0.3777095124215108  1.0000
  O   O5        1.0  0.930493448478387  0.6293686802103123  0.261828183696508  1.0000
  O   O6        1.0  0.6675712505589643  0.7429451147085187  0.36241922265061516  1.0000
  O   O7        1.0  0.9103412085616538  0.37003815866006556  0.527243658186691  1.0000
  O   O8        1.0  0.38322705015643527  0.47067156796811094  0.843905433380918  1.0000
  O   O9        1.0  0.5409494966327982  0.1549834141793838  0.6301618804453566  1.0000
  O   O10       1.0  0.08810866349764977  0.6292950503756244  0.47268193634761946  1.0000
  O   O11       1.0  0.6215335993359332  0.5305696462357048  0.15961270360584479  1.0000
  O   O12       1.0  0.45914843139067313  0.8467568516465246  0.3721083960587845  1.0000
  O   O13       1.0  0.36041284046202543  0.44164195775938  0.6318428367573926  1.0000
  O   O14       1.0  0.7312787578293367  0.3673443566795739  0.8139246671606127  1.0000
  O   O15       1.0  0.9198853221436991  0.18891555846791866  0.5577888508633461  1.0000
  O   O16       1.0  0.6397868576646957  0.5574037992339455  0.37024062742549535  1.0000
  O   O17       1.0  0.27202492731741057  0.6347206832680002  0.18974084563679827  1.0000
  O   O18       1.0  0.0792974356154019  0.8112707043184669  0.44367320740717264  1.0000
