data_image0
_chemical_formula_structural       Zn2H40C48N8O8
_chemical_formula_sum              "Zn2 H40 C48 N8 O8"
_cell_length_a       9.86269693812696
_cell_length_b       10.52199764019612
_cell_length_c       12.906889687741927
_cell_angle_alpha    76.55992582415442
_cell_angle_beta     67.28047179064185
_cell_angle_gamma    62.0355984576775

_space_group_name_H-M_alt    "P 1"
_space_group_IT_number       1

loop_
  _space_group_symop_operation_xyz
  'x, y, z'

loop_
  _atom_site_type_symbol
  _atom_site_label
  _atom_site_symmetry_multiplicity
  _atom_site_fract_x
  _atom_site_fract_y
  _atom_site_fract_z
  _atom_site_occupancy
  Zn  Zn1       1.0  0.7401660018980181  0.7489652657962793  0.24958020467834535  1.0000
  Zn  Zn2       1.0  0.2598321462700071  0.2510355044477278  0.7504206827398933  1.0000
  H   H1        1.0  0.516060331118716  0.8948059666364968  0.11729035840832576  1.0000
  H   H2        1.0  0.4726155301638288  0.3961322686028694  0.6172211295335046  1.0000
  H   H3        1.0  0.48394274528563824  0.10519588177662338  0.882708322345323  1.0000
  H   H4        1.0  0.5273844035992924  0.6038631107956005  0.38277860882168113  1.0000
  H   H5        1.0  0.4600932208965598  0.8492511654514274  0.9640751942656037  1.0000
  H   H6        1.0  0.7280254410763048  0.349663180013536  0.46287579549983354  1.0000
  H   H7        1.0  0.5399083009855161  0.1507506829616929  0.03592394528796213  1.0000
  H   H8        1.0  0.27197449273783275  0.6503321993849269  0.5371261342490712  1.0000
  H   H9        1.0  0.4418088967764076  0.8164101343973442  0.8274846321714764  1.0000
  H   H10       1.0  0.9156460148046293  0.3163757869484058  0.3261928268339885  1.0000
  H   H11       1.0  0.5581900454510986  0.18359387035399516  0.17251595584594537  1.0000
  H   H12       1.0  0.08435287706612374  0.6836185142809512  0.6738096147312831  1.0000
  H   H13       1.0  0.4085190129494977  0.7606407590754924  0.6684853002546873  1.0000
  H   H14       1.0  0.1644569899939086  0.2602570848353025  0.1666518529232945  1.0000
  H   H15       1.0  0.5914820131392557  0.2393654020140659  0.33151316843314055  1.0000
  H   H16       1.0  0.8355390742618383  0.7397415290704856  0.8333489624308256  1.0000
  H   H17       1.0  0.738263504098796  0.3355402428573484  0.6828933853522444  1.0000
  H   H18       1.0  0.24465353930850858  0.8351346973098899  0.18220635708632935  1.0000
  H   H19       1.0  0.2617375219644415  0.664465918232203  0.31710398763873127  1.0000
  H   H20       1.0  0.7553477010929863  0.1648628384267923  0.8177931348845037  1.0000
  H   H21       1.0  0.7903939424578182  0.3691230542582886  0.8451233566321862  1.0000
  H   H22       1.0  0.9954637278923713  0.8692317953757325  0.3448929504324952  1.0000
  H   H23       1.0  0.20960628959696948  0.6308798723239377  0.15487650715330403  1.0000
  H   H24       1.0  0.0045374957490550765  0.1307625058536246  0.6551082550844711  1.0000
  H   H25       1.0  0.8329908322751078  0.4113225931767701  0.9718753140128557  1.0000
  H   H26       1.0  0.7821589524431543  0.9125493956600366  0.4717871301148265  1.0000
  H   H27       1.0  0.167012756733655  0.5886781770672441  0.02812451545410969  1.0000
  H   H28       1.0  0.21783711178707674  0.0874492182457587  0.5282125895424414  1.0000
  H   H29       1.0  0.8693511950456668  0.47707581444611685  0.12850222090997926  1.0000
  H   H30       1.0  0.5225390690431267  0.9792988451859158  0.6293634763765041  1.0000
  H   H31       1.0  0.13065006214140581  0.5229249557978903  0.8714966532115727  1.0000
  H   H32       1.0  0.47745828501439297  0.0206986905507662  0.37063551904883246  1.0000
  H   H33       1.0  0.823447792989576  0.0997974890488607  0.004855742017078133  1.0000
  H   H34       1.0  0.07243613921288253  0.5994372266039676  0.5046107710046287  1.0000
  H   H35       1.0  0.1765526870001394  0.9002032811951536  0.9951461007465667  1.0000
  H   H36       1.0  0.927565647364183  0.4005656999782586  0.4953886339809517  1.0000
  H   H37       1.0  0.9126303590648204  0.09823630017931609  0.09916989534369944  1.0000
  H   H38       1.0  0.8894811821030546  0.5983407286203216  0.5992066938044758  1.0000
  H   H39       1.0  0.08736831849319773  0.9017666264029173  0.9008315229385673  1.0000
  H   H40       1.0  0.11051776012445187  0.4016632761310176  0.40079389421294564  1.0000
  C   C1        1.0  0.5834425269855004  0.7886451235074929  0.0832396330606358  1.0000
  C   C2        1.0  0.5447970972643077  0.2899735818120844  0.5831099967216248  1.0000
  C   C3        1.0  0.41656079730275775  0.2113545685674083  0.9167588352774559  1.0000
  C   C4        1.0  0.4551992148753427  0.7100228757554916  0.41689060621693846  1.0000
  C   C5        1.0  0.5520453800394733  0.7613070675847309  0.9968580654128945  1.0000
  C   C6        1.0  0.6902394180918705  0.26217191317253696  0.49608210815413395  1.0000
  C   C7        1.0  0.4479574316698845  0.23869370265928316  0.003140349908740265  1.0000
  C   C8        1.0  0.3097561335849761  0.737827778902364  0.5039186541835293  1.0000
  C   C9        1.0  0.6412472087488222  0.6248550633439578  0.9522738833655071  1.0000
  C   C10       1.0  0.7813715267203206  0.12563257723395077  0.4516515030143682  1.0000
  C   C11       1.0  0.35875586768104734  0.3751467850691625  0.04772589308500131  1.0000
  C   C12       1.0  0.2186281591588963  0.8743649585027312  0.5483484477563821  1.0000
  C   C13       1.0  0.6172319325357308  0.595945036860563  0.8552172972170169  1.0000
  C   C14       1.0  0.9320763101630903  0.09615219929199978  0.35433803168699285  1.0000
  C   C15       1.0  0.38276958934634553  0.4040568115525573  0.14478184233654898  1.0000
  C   C16       1.0  0.067922069103254  0.9038431801064702  0.6456632611649625  1.0000
  C   C17       1.0  0.5106027461535021  0.7059495528624424  0.8015381039982117  1.0000
  C   C18       1.0  0.9830633088456864  0.205911970906179  0.3002636636028626  1.0000
  C   C19       1.0  0.4893974858502617  0.294053373719791  0.19845956839356665  1.0000
  C   C20       1.0  0.016935335090138764  0.794084486661397  0.6997367989842616  1.0000
  C   C21       1.0  0.49154818989988036  0.6753079867903082  0.7100967024773795  1.0000
  C   C22       1.0  0.12477873904854421  0.1750019407259558  0.20851037870803418  1.0000
  C   C23       1.0  0.5084510169715912  0.3246970961301372  0.2899019595783514  1.0000
  C   C24       1.0  0.8752191276388993  0.8249945168416204  0.7914908611274712  1.0000
  C   C25       1.0  0.6735245822055872  0.4406552619508162  0.7186998326198832  1.0000
  C   C26       1.0  0.16835199160821177  0.9403985037403685  0.21779177595382035  1.0000
  C   C27       1.0  0.32647513716825227  0.5593487428005232  0.2812955953617334  1.0000
  C   C28       1.0  0.8316502739510836  0.059596875658094496  0.7822078220499195  1.0000
  C   C29       1.0  0.7015756894118539  0.459562035442751  0.8107817330042408  1.0000
  C   C30       1.0  0.028618068211123743  0.9595758976786185  0.3101593953181805  1.0000
  C   C31       1.0  0.2984242947080062  0.5404430474776944  0.1892161518031017  1.0000
  C   C32       1.0  0.9713839327041995  0.0404184035507384  0.689842128647264  1.0000
  C   C33       1.0  0.7570267050037313  0.5197152463609882  0.001652343913590808  1.0000
  C   C34       1.0  0.7203502631575988  0.020927262401833995  0.5014972550247165  1.0000
  C   C35       1.0  0.2429748168783378  0.4802866020521321  0.998346795639975  1.0000
  C   C36       1.0  0.2796499353005186  0.9790691951657422  0.49850274876248335  1.0000
  C   C37       1.0  0.7799638170276209  0.5553853931565698  0.08880852655227764  1.0000
  C   C38       1.0  0.574212474128984  0.05714188459735679  0.58919125642052  1.0000
  C   C39       1.0  0.22003615033216983  0.4446164552565505  0.9111910718012057  1.0000
  C   C40       1.0  0.4257853925329441  0.9428545729702192  0.41080888771812596  1.0000
  C   C41       1.0  0.8696061725411326  0.9130043830239529  0.11767523948554261  1.0000
  C   C42       1.0  0.0991229268073894  0.4127425418930598  0.6175694858592848  1.0000
  C   C43       1.0  0.13039637460078504  0.08699530905094827  0.8823283888883539  1.0000
  C   C44       1.0  0.9008747087817355  0.5872593065200602  0.38243134854249655  1.0000
  C   C45       1.0  0.9171460466838894  0.0294005934279014  0.044269415295502795  1.0000
  C   C46       1.0  0.009074523530116948  0.5292462612827933  0.544182797099694  1.0000
  C   C47       1.0  0.08285392072692573  0.970601254985219  0.9557323744516921  1.0000
  C   C48       1.0  0.9909225994801075  0.4707566652994331  0.4558179842856305  1.0000
  N   N1        1.0  0.6958569647019035  0.6878169047906225  0.1287007975732877  1.0000
  N   N2        1.0  0.48679162208270543  0.18957447440051564  0.6290780185166939  1.0000
  N   N3        1.0  0.3041448050640695  0.3121827872842786  0.8712981295647141  1.0000
  N   N4        1.0  0.5132059798587175  0.8104209049979543  0.3709207644930785  1.0000
  N   N5        1.0  0.5701710626070523  0.544910980264568  0.6680555642140789  1.0000
  N   N6        1.0  0.2186327737423994  0.0445251496861658  0.1666112798753545  1.0000
  N   N7        1.0  0.42983125333449806  0.45509410265587746  0.33194327593867  1.0000
  N   N8        1.0  0.781365092919536  0.9554713078814101  0.8333888642632988  1.0000
  O   O1        1.0  0.7227048745971346  0.952851356947029  0.1862486464421096  1.0000
  O   O2        1.0  0.13665069547231196  0.45304881585648354  0.6861053886144292  1.0000
  O   O3        1.0  0.27729973972250116  0.0471472569587661  0.8137578632388981  1.0000
  O   O4        1.0  0.8633490072179912  0.5469519543875236  0.31389504000389207  1.0000
  O   O5        1.0  0.9693288253560368  0.7817653264242352  0.11216289715073197  1.0000
  O   O6        1.0  0.13649055356628978  0.2815304395210632  0.6121062131249887  1.0000
  O   O7        1.0  0.030674763652733167  0.21823544381977905  0.8878369323162332  1.0000
  O   O8        1.0  0.8635039729527563  0.7184714088920572  0.3878944431797605  1.0000
