data_image0
_chemical_formula_structural       Zn4H56C48S4N8O16
_chemical_formula_sum              "Zn4 H56 C48 S4 N8 O16"
_cell_length_a       9.529074406071688
_cell_length_b       9.710313721663042
_cell_length_c       14.809644429513105
_cell_angle_alpha    97.74981905030296
_cell_angle_beta     90.00017361513532
_cell_angle_gamma    90.00038295748837

_space_group_name_H-M_alt    "P 1"
_space_group_IT_number       1

loop_
  _space_group_symop_operation_xyz
  'x, y, z'

loop_
  _atom_site_type_symbol
  _atom_site_label
  _atom_site_symmetry_multiplicity
  _atom_site_fract_x
  _atom_site_fract_y
  _atom_site_fract_z
  _atom_site_occupancy
  Zn  Zn1       1.0  0.6704867044516547  0.3431375394806224  0.7339283593324595  1.0000
  Zn  Zn2       1.0  0.1704867677302033  0.15685821071905787  0.2660730229556307  1.0000
  Zn  Zn3       1.0  0.329513361553893  0.656861443582791  0.2660718541212148  1.0000
  Zn  Zn4       1.0  0.8295111994302785  0.8431397460061304  0.733926416176942  1.0000
  H   H1        1.0  0.7461522810236049  0.5276938527295485  0.5969974407431875  1.0000
  H   H2        1.0  0.24615304443615574  0.97229835529874  0.40300385766489905  1.0000
  H   H3        1.0  0.2538477849948322  0.4723082351556016  0.4030037475824173  1.0000
  H   H4        1.0  0.7538480709959501  0.0277037842487928  0.5969946344954167  1.0000
  H   H5        1.0  0.7386107037036354  0.5150423210267049  0.42665491152688867  1.0000
  H   H6        1.0  0.2386123594307961  0.9849529642684298  0.5733459943169875  1.0000
  H   H7        1.0  0.2613872634583956  0.48495562278380777  0.5733452016473349  1.0000
  H   H8        1.0  0.7613919042722586  0.015052293026656099  0.4266527986776367  1.0000
  H   H9        1.0  0.4902327237434037  0.14274975697657058  0.4197324164441767  1.0000
  H   H10       1.0  0.9902383261065495  0.3572472175028949  0.5802696861391679  1.0000
  H   H11       1.0  0.5097662928422793  0.8572492260831269  0.5802677970081547  1.0000
  H   H12       1.0  0.009759641056163598  0.6427517913824233  0.4197291792284972  1.0000
  H   H13       1.0  0.5093725361079179  0.16854241778813872  0.5908628140141232  1.0000
  H   H14       1.0  0.0093755163568048  0.3314542832883872  0.4091376813219298  1.0000
  H   H15       1.0  0.4906296287373593  0.8314565652827  0.4091373994422511  1.0000
  H   H16       1.0  0.9906203519699517  0.6685457648349739  0.5908612843198  1.0000
  H   H17       1.0  0.6835174560252923  0.3810363782257226  0.280168237216408  1.0000
  H   H18       1.0  0.18351311147710447  0.11896043887613668  0.7198366489919223  1.0000
  H   H19       1.0  0.31648260998936445  0.6189646704139591  0.7198328508324394  1.0000
  H   H20       1.0  0.8164827568512009  0.8810395963325559  0.28016299069146555  1.0000
  H   H21       1.0  0.5003379527771514  0.34238660470279564  0.2863614283812197  1.0000
  H   H22       1.0  0.00033384245838160003  0.15760799264522515  0.7136368210817778  1.0000
  H   H23       1.0  0.49966106381075553  0.6576134305170384  0.7136382113062112  1.0000
  H   H24       1.0  0.9996609764340647  0.8423889635673588  0.2863604956450202  1.0000
  H   H25       1.0  0.6205033857116858  0.20551476341501027  0.2774205757021164  1.0000
  H   H26       1.0  0.12050025105097013  0.29447960660694855  0.7225799039911607  1.0000
  H   H27       1.0  0.379496680294544  0.7944852847232083  0.7225783899449993  1.0000
  H   H28       1.0  0.8794945678499103  0.7055183501070912  0.2774195351373692  1.0000
  H   H29       1.0  0.380214954359829  0.27891465598118254  0.7774864270564805  1.0000
  H   H30       1.0  0.8802137376849188  0.22108472195998977  0.22251232380124716  1.0000
  H   H31       1.0  0.6197882599284981  0.7210937707052593  0.22250997060043426  1.0000
  H   H32       1.0  0.11978632830773958  0.7789111562816871  0.7774869147805035  1.0000
  H   H33       1.0  0.1885610611170208  0.3875953537453255  0.8777327719105656  1.0000
  H   H34       1.0  0.6885607278260224  0.11240368088306237  0.1222669354665697  1.0000
  H   H35       1.0  0.811437955493382  0.6124130600115903  0.12226429978262127  1.0000
  H   H36       1.0  0.3114393381741962  0.8875942758495511  0.8777325036686889  1.0000
  H   H37       1.0  0.47591561100482943  0.7168775552605237  0.974801072416369  1.0000
  H   H38       1.0  0.9759117848687495  0.7831215400637532  0.025197946803452012  1.0000
  H   H39       1.0  0.5240897020986993  0.28311929767185257  0.025201636657158098  1.0000
  H   H40       1.0  0.024086182288634496  0.21687644249076501  0.9748001442458045  1.0000
  H   H41       1.0  0.6558757721922108  0.5989483380164842  0.8682404415554786  1.0000
  H   H42       1.0  0.15587161799749794  0.9010515836280742  0.13175940525857746  1.0000
  H   H43       1.0  0.3441263926532656  0.40104850199008263  0.1317629415556709  1.0000
  H   H44       1.0  0.844126349161435  0.0989463860117752  0.8682393598323372  1.0000
  H   H45       1.0  0.1686217314965432  0.5549394496084047  0.0441746014192859  1.0000
  H   H46       1.0  0.6686181660854587  0.9450533004642235  0.9558239021265535  1.0000
  H   H47       1.0  0.8313825321724835  0.4450564544774664  0.9558232890845345  1.0000
  H   H48       1.0  0.3313787516498223  0.054943629926448474  0.044174762686253595  1.0000
  H   H49       1.0  0.11677344067143029  0.6525250449654364  0.9582729654460849  1.0000
  H   H50       1.0  0.6167701315633423  0.8474704170626238  0.04172772799694969  1.0000
  H   H51       1.0  0.883228724164738  0.3474718725291409  0.04172637341511629  1.0000
  H   H52       1.0  0.3832288850261207  0.1525296052425418  0.9582725857321392  1.0000
  H   H53       1.0  0.2479269490152731  0.7214050366335911  0.040184938576970794  1.0000
  H   H54       1.0  0.7479243661879735  0.7785903016822644  0.9598166652114273  1.0000
  H   H55       1.0  0.7520741664208046  0.27859599909513827  0.9598168235148847  1.0000
  H   H56       1.0  0.25207255155040537  0.22140660287907815  0.04018334768469599  1.0000
  C   C1        1.0  0.6907099956641288  0.44444905422339787  0.5545132683791394  1.0000
  C   C2        1.0  0.19071441472347317  0.05554581282306969  0.4454873914951989  1.0000
  C   C3        1.0  0.3092932186018942  0.5555488508616833  0.44548886692679446  1.0000
  C   C4        1.0  0.8092929972467432  0.9444615229740947  0.5545116020569765  1.0000
  C   C5        1.0  0.6850491760227156  0.4368059363926521  0.46033553154416756  1.0000
  C   C6        1.0  0.1850530434179731  0.06318886474916499  0.5396664618854102  1.0000
  C   C7        1.0  0.31494879114309526  0.5631930466633293  0.5396646819068138  1.0000
  C   C8        1.0  0.8149470225980479  0.9368143140401272  0.46033213055032  1.0000
  C   C9        1.0  0.6132421259715031  0.32714992192727266  0.4088789137499731  1.0000
  C   C10       1.0  0.11324383635984249  0.17284855369072005  0.5911219484219571  1.0000
  C   C11       1.0  0.3867579400371497  0.6728490353068038  0.5911226477870244  1.0000
  C   C12       1.0  0.8867551802340756  0.8271535729347193  0.4088772177773237  1.0000
  C   C13       1.0  0.5471190117500413  0.2299165710017803  0.4569489440518808  1.0000
  C   C14       1.0  0.0471232565629194  0.2700803714599759  0.543052996237968  1.0000
  C   C15       1.0  0.4528800048363166  0.7700834771327222  0.543050021593892  1.0000
  C   C16       1.0  0.9528736611837091  0.7299196766671013  0.45694596940510473  1.0000
  C   C17       1.0  0.5573112459356722  0.2432623000557896  0.5511745157776743  1.0000
  C   C18       1.0  0.057316003288235606  0.25673162265229627  0.4488258017556035  1.0000
  C   C19       1.0  0.44268777064845477  0.7567366959185831  0.4488250236329989  1.0000
  C   C20       1.0  0.9426819638767083  0.7432684383931656  0.5511724898471613  1.0000
  C   C21       1.0  0.6059494231424337  0.3141686873064344  0.3074764411680135  1.0000
  C   C22       1.0  0.10594750418170662  0.18582660602206147  0.6925247754953715  1.0000
  C   C23       1.0  0.39404959344548024  0.6858313479134066  0.6925231985194101  1.0000
  C   C24       1.0  0.894050462977219  0.8141713636177952  0.3074739895955432  1.0000
  C   C25       1.0  0.39618441512899233  0.37698103893039553  0.8215634407366108  1.0000
  C   C26       1.0  0.8961844200041612  0.1230173611599454  0.1784379469950252  1.0000
  C   C27       1.0  0.6038146014809271  0.6230241666874362  0.1784380484179096  1.0000
  C   C28       1.0  0.1038166954145652  0.8769784654267737  0.8215639877547076  1.0000
  C   C29       1.0  0.29112313414425733  0.43730926166777817  0.878172129458143  1.0000
  C   C30       1.0  0.7911203609433812  0.0626936167328509  0.12182814195140419  1.0000
  C   C31       1.0  0.7088800801449295  0.5626980870291901  0.1218261900469884  1.0000
  C   C32       1.0  0.2088797050643976  0.9373064184906994  0.8781714977373768  1.0000
  C   C33       1.0  0.3172154204552696  0.5615421693894475  0.9358945990551674  1.0000
  C   C34       1.0  0.8172107388243219  0.9384558153961174  0.06410333884925724  1.0000
  C   C35       1.0  0.6827877938250069  0.4384609706669804  0.06410601550958009  1.0000
  C   C36       1.0  0.18278722833460387  0.06154215424373181  0.9358954262416574  1.0000
  C   C37       1.0  0.4505748384367294  0.6206600251611789  0.9312792562431298  1.0000
  C   C38       1.0  0.9505708249356815  0.8793378386131037  0.0687202717092674  1.0000
  C   C39       1.0  0.5494325735158299  0.37933675029061925  0.0687274970830387  1.0000
  C   C40       1.0  0.0494271422254826  0.12066118318688274  0.9312779196167398  1.0000
  C   C41       1.0  0.5513261309613426  0.5553056042103675  0.873010585024744  1.0000
  C   C42       1.0  0.051323301221756906  0.9446956816445391  0.12698784595523446  1.0000
  C   C43       1.0  0.44867918214732333  0.4446944181170878  0.1269897287124238  1.0000
  C   C44       1.0  0.9486767647715764  0.0553012616719499  0.8730101448199576  1.0000
  C   C45       1.0  0.20756716001579184  0.6276099578449031  0.9989347988975582  1.0000
  C   C46       1.0  0.7075627789885246  0.8723871861602674  0.0010662278249710848  1.0000
  C   C47       1.0  0.7924360542531373  0.3723900644751197  0.0010655148369167053  1.0000
  C   C48       1.0  0.2924341387612017  0.1276128361374731  0.9989340859014247  1.0000
  S   S1        1.0  0.917629041499417  0.5543570299727631  0.7719003997858136  1.0000
  S   S2        1.0  0.417627746093622  0.945645796812748  0.22809954500498716  1.0000
  S   S3        1.0  0.082369975098473  0.4456439928338654  0.2281020363450068  1.0000
  S   S4        1.0  0.5823702210797563  0.05435526473416989  0.771900868999509  1.0000
  N   N1        1.0  0.6293900732145445  0.34846316007620703  0.599533869356186  1.0000
  N   N2        1.0  0.12939283494347362  0.1515301948866679  0.40046855499879536  1.0000
  N   N3        1.0  0.37060894336357814  0.6515337444925533  0.40046614354263005  1.0000
  N   N4        1.0  0.8706030333817338  0.8484698661513619  0.5995297366012764  1.0000
  N   N5        1.0  0.5253346095858475  0.43456172994086717  0.8189789267024564  1.0000
  N   N6        1.0  0.0253336469971686  0.06543821476947187  0.1810212363806514  1.0000
  N   N7        1.0  0.4746644070005104  0.5654383181936353  0.18102003894331628  1.0000
  N   N8        1.0  0.9746674684115744  0.9345566242304529  0.8189779019256918  1.0000
  O   O1        1.0  0.8633755923928772  0.4063243449599624  0.7566537200889556  1.0000
  O   O2        1.0  0.36337511728824984  0.09367900618528319  0.24334875887015525  1.0000
  O   O3        1.0  0.1366265724739222  0.5936766003698039  0.24335276029584918  1.0000
  O   O4        1.0  0.6366249487326173  0.9063219907957247  0.7566550253453245  1.0000
  O   O5        1.0  0.9335638246304254  0.6015528236555951  0.8695143954741552  1.0000
  O   O6        1.0  0.43356384435023176  0.898453220759812  0.1304865650837215  1.0000
  O   O7        1.0  0.0664372908261015  0.39845339538580044  0.13048854204313187  1.0000
  O   O8        1.0  0.5664362216742164  0.10155095853093597  0.8695141497537334  1.0000
  O   O9        1.0  0.047425851013393604  0.561810238393022  0.7190002140480942  1.0000
  O   O10       1.0  0.5474242927096142  0.9381878504609346  0.2810006022605833  1.0000
  O   O11       1.0  0.9525721161532915  0.4381876666734925  0.28100192125111084  1.0000
  O   O12       1.0  0.45257472386782643  0.0618079890330208  0.7190006584447913  1.0000
  O   O13       1.0  0.8024459699404076  0.6408094222647447  0.7333980404254844  1.0000
  O   O14       1.0  0.30244426716645734  0.8591884838066688  0.2665985114965678  1.0000
  O   O15       1.0  0.1975519972200743  0.3591885344604363  0.2666013987070883  1.0000
  O   O16       1.0  0.6975536999947066  0.14081053799331758  0.7333996798294393  1.0000
