data_image0
_chemical_formula_structural       U4H54C60N6Cl4O22
_chemical_formula_sum              "U4 H54 C60 N6 Cl4 O22"
_cell_length_a       11.146196494633735
_cell_length_b       11.782546382288665
_cell_length_c       12.95437200447541
_cell_angle_alpha    87.55770334604145
_cell_angle_beta     78.23739031047191
_cell_angle_gamma    78.25390694814999

_space_group_name_H-M_alt    "P 1"
_space_group_IT_number       1

loop_
  _space_group_symop_operation_xyz
  'x, y, z'

loop_
  _atom_site_type_symbol
  _atom_site_label
  _atom_site_symmetry_multiplicity
  _atom_site_fract_x
  _atom_site_fract_y
  _atom_site_fract_z
  _atom_site_occupancy
  U   U1        1.0  0.9643778711417071  0.2487095663293033  0.34386720761192885  1.0000
  U   U2        1.0  0.0356189294538893  0.7512912032934483  0.6561312250117837  1.0000
  U   U3        1.0  0.8669007121496148  0.07331595540485128  0.6023224959656373  1.0000
  U   U4        1.0  0.1331008515953371  0.9266839629627199  0.3976782273619718  1.0000
  H   H1        1.0  0.47188076184099254  0.46649853977256583  0.6047024949605628  1.0000
  H   H2        1.0  0.5281244658779586  0.5335013836578071  0.39529835938540697  1.0000
  H   H3        1.0  0.44522461567576943  0.6382799609019401  0.7201022186561515  1.0000
  H   H4        1.0  0.5547793274005102  0.3617216823329628  0.27989570013021137  1.0000
  H   H5        1.0  0.8298581411480369  0.5881822351466184  0.7017676010799432  1.0000
  H   H6        1.0  0.17014469622304773  0.41182028127160936  0.29823201818336986  1.0000
  H   H7        1.0  0.8688227551346513  0.41195831198547245  0.5860174904541893  1.0000
  H   H8        1.0  0.13118301535774887  0.58804334558657  0.41398319595509037  1.0000
  H   H9        1.0  0.37221466063418507  0.3293822150364036  0.7936987465119568  1.0000
  H   H10       1.0  0.6277784369767545  0.6706272290838273  0.2063015122680553  1.0000
  H   H11       1.0  0.3899902428761237  0.1132947855632196  0.7824620047589333  1.0000
  H   H12       1.0  0.6100068870314816  0.886712943392837  0.21754148085258143  1.0000
  H   H13       1.0  0.17819328181739272  0.1526750764968554  0.549008628560884  1.0000
  H   H14       1.0  0.8218101158735109  0.8473248393425125  0.45099100222716254  1.0000
  H   H15       1.0  0.14828251590043354  0.3686599111388915  0.5540625265827258  1.0000
  H   H16       1.0  0.8517179525870661  0.63134085342746  0.44593372096186085  1.0000
  H   H17       1.0  0.1913552638322784  0.47177161082166924  0.9178692634616465  1.0000
  H   H18       1.0  0.808643929723118  0.528226559067086  0.08212886017972916  1.0000
  H   H19       1.0  0.23257689997797829  0.6712600874147868  0.8865893944786475  1.0000
  H   H20       1.0  0.7674290813639074  0.32873635171176124  0.11340761507115361  1.0000
  H   H21       1.0  0.08728191959877316  0.7599164274059119  0.20308011561964884  1.0000
  H   H22       1.0  0.9127183770498917  0.2400808760456599  0.7969178516097768  1.0000
  H   H23       1.0  0.02867153743665089  0.5656527970406344  0.241341511122897  1.0000
  H   H24       1.0  0.9713262022491804  0.4343436247917438  0.7586538525787105  1.0000
  H   H25       1.0  0.654396763293029  0.6777048417878859  0.8592815681553315  1.0000
  H   H26       1.0  0.3456022382652222  0.32229420845276735  0.1407196397744528  1.0000
  H   H27       1.0  0.6958039900114981  0.7662572994490164  0.7507147500055991  1.0000
  H   H28       1.0  0.3041970081897674  0.2337452329896905  0.24928904992727036  1.0000
  H   H29       1.0  0.395871968510086  0.6991962526902  0.0655250150153037  1.0000
  H   H30       1.0  0.6041275959799253  0.3008001902254591  0.9344746603742206  1.0000
  H   H31       1.0  0.5495890409070014  0.7100486102344236  0.008071013544565568  1.0000
  H   H32       1.0  0.4504107077443465  0.2899469725677477  0.9919302097515225  1.0000
  H   H33       1.0  0.4812538412109222  0.6042539875328714  0.9611620035386178  1.0000
  H   H34       1.0  0.5187475572250405  0.3957424528545843  0.038836579311343725  1.0000
  H   H35       1.0  0.24802768453776028  0.8421970140276686  0.10050930809353527  1.0000
  H   H36       1.0  0.7519740835268394  0.1577977027597441  0.8994915985370608  1.0000
  H   H37       1.0  0.12055089237552608  0.9007600010629986  0.040335134006817035  1.0000
  H   H38       1.0  0.8794497712898419  0.09923558553467157  0.9596667010682365  1.0000
  H   H39       1.0  0.09970829337295577  0.0508558985693455  0.807422470156375  1.0000
  H   H40       1.0  0.900289243867995  0.9491414305994681  0.19258215409361407  1.0000
  H   H41       1.0  0.1127212945263381  0.059446511581185704  0.940695547289472  1.0000
  H   H42       1.0  0.8872777193544223  0.9405482174311997  0.059308928231715206  1.0000
  H   H43       1.0  0.0520296045971094  0.9448067076852099  0.8961543342534878  1.0000
  H   H44       1.0  0.9479703269096049  0.05518801837654758  0.10384920898166426  1.0000
  H   H45       1.0  0.1879754799382311  0.9922514126928592  0.6666533225167653  1.0000
  H   H46       1.0  0.8120231226912862  0.007753726225970999  0.33335233046343393  1.0000
  H   H47       1.0  0.3382148820811821  0.9693828903361209  0.5893404121065371  1.0000
  H   H48       1.0  0.6617829949195269  0.0306213711814536  0.4106630888712813  1.0000
  H   H49       1.0  0.6378153834098939  0.8429943295535623  0.6282989324690502  1.0000
  H   H50       1.0  0.36218399430683945  0.15700298022171214  0.3717007390788963  1.0000
  H   H51       1.0  0.5327621513116085  0.966442660721043  0.6014789900036561  1.0000
  H   H52       1.0  0.4672377717905078  0.0335563764497664  0.398518969542607  1.0000
  H   H53       1.0  0.5115350641436294  0.8273902993968463  0.5685753339522888  1.0000
  H   H54       1.0  0.48846045629599627  0.1726078890405844  0.4314280628981989  1.0000
  C   C1        1.0  0.6861770720453606  0.3199295401121062  0.5211112863918499  1.0000
  C   C2        1.0  0.31382797020628317  0.6800712468048148  0.478888792080049  1.0000
  C   C3        1.0  0.671511853142938  0.42543757980687497  0.5883962499376025  1.0000
  C   C4        1.0  0.3284918992421666  0.5745649404068516  0.41160398110467594  1.0000
  C   C5        1.0  0.5526601695380647  0.4908875623195144  0.6252892713406691  1.0000
  C   C6        1.0  0.44734304007359066  0.5091132237525358  0.3747111276382994  1.0000
  C   C7        1.0  0.5368510386165467  0.5860281865378384  0.689254604365338  1.0000
  C   C8        1.0  0.46315144406032965  0.41397172550602324  0.3107444146437501  1.0000
  C   C9        1.0  0.7548730398285454  0.5557078189595118  0.6782508768700308  1.0000
  C   C10       1.0  0.24513163148849054  0.4442946949305123  0.3217476498537194  1.0000
  C   C11       1.0  0.7743240997553685  0.4599328194592118  0.6149305814317927  1.0000
  C   C12       1.0  0.22567965393570685  0.5400696973814478  0.38506887757798575  1.0000
  C   C13       1.0  0.2315173255484524  0.49663948698501065  0.6910186690021829  1.0000
  C   C14       1.0  0.7684803965910093  0.5033612695678968  0.30897651523801517  1.0000
  C   C15       1.0  0.2546651236685947  0.36606335870686024  0.6776756654403541  1.0000
  C   C16       1.0  0.7453320368450707  0.6339400017979812  0.3223202793076111  1.0000
  C   C17       1.0  0.3263325008190989  0.2932329475647393  0.7401886540865802  1.0000
  C   C18       1.0  0.6736631765249114  0.7067730299618731  0.2598112995526732  1.0000
  C   C19       1.0  0.3376667074606842  0.1745322631715709  0.7346217252535608  1.0000
  C   C20       1.0  0.6623307972994397  0.825473728692174  0.2653809960086092  1.0000
  C   C21       1.0  0.2170277878321301  0.19682196115270054  0.6023822737060696  1.0000
  C   C22       1.0  0.7829735930574555  0.8031788139552845  0.3976161296824756  1.0000
  C   C23       1.0  0.2025066625216425  0.3159928409989803  0.606116821012918  1.0000
  C   C24       1.0  0.7974927028725881  0.6840087900045548  0.39387958294362585  1.0000
  C   C25       1.0  0.09086438557374522  0.37710362129588765  0.10355653879490488  1.0000
  C   C26       1.0  0.9091331458745342  0.6228980122358436  0.896440957701209  1.0000
  C   C27       1.0  0.1107893066132277  0.5009938439332302  0.0832800955207631  1.0000
  C   C28       1.0  0.8892073098210317  0.499007785803002  0.9167167891963854  1.0000
  C   C29       1.0  0.16646595702316352  0.5329202134585315  0.9828482815606276  1.0000
  C   C30       1.0  0.833533052370896  0.4670788165437116  0.017148294174177254  1.0000
  C   C31       1.0  0.1917255073344393  0.6431524293076194  0.9645940100606933  1.0000
  C   C32       1.0  0.8082755188609456  0.35684574142600667  0.03540379307361967  1.0000
  C   C33       1.0  0.10656822460345688  0.6932918740283754  0.14240774909543316  1.0000
  C   C34       1.0  0.8934326122067091  0.3067071703110074  0.8575915942622955  1.0000
  C   C35       1.0  0.07653977167988302  0.5851812107849099  0.16273436414017783  1.0000
  C   C36       1.0  0.9234574011562912  0.414817828491671  0.8372648481991829  1.0000
  C   C37       1.0  0.4965670882679092  0.7901991159581527  0.8113720297032854  1.0000
  C   C38       1.0  0.5034308115030441  0.2098007973466167  0.18862856260596314  1.0000
  C   C39       1.0  0.4167367453555284  0.7794193004874758  0.9093404682374169  1.0000
  C   C40       1.0  0.5832637354544731  0.22057714285060837  0.09065904689857256  1.0000
  C   C41       1.0  0.2945610855504768  0.8472318566691257  0.9292461226118857  1.0000
  C   C42       1.0  0.7054408556589279  0.1527663178599994  0.07075229230138547  1.0000
  C   C43       1.0  0.2525827522589097  0.925565916805887  0.8526870570650755  1.0000
  C   C44       1.0  0.7474173510866393  0.074432270370643  0.14731476648525188  1.0000
  C   C45       1.0  0.33307678689721587  0.9331080027109239  0.7547404402642639  1.0000
  C   C46       1.0  0.6669225667433024  0.06689365865022272  0.24526291198475278  1.0000
  C   C47       1.0  0.4557944924544728  0.8672618816523182  0.7336544368030216  1.0000
  C   C48       1.0  0.5442039487839594  0.13273976916719482  0.26634675960203674  1.0000
  C   C49       1.0  0.6253452371952049  0.7161625807893941  0.7876551618496561  1.0000
  C   C50       1.0  0.3746552247624493  0.28383820064229326  0.21234494585741695  1.0000
  C   C51       1.0  0.46217753068521716  0.6940333040742741  0.9901393141696101  1.0000
  C   C52       1.0  0.5378236796715045  0.3059640065458638  0.009860036871266699  1.0000
  C   C53       1.0  0.20625950733261794  0.8344759070621848  0.0315891150144694  1.0000
  C   C54       1.0  0.793742991584672  0.16551967363421483  0.9684108554885282  1.0000
  C   C55       1.0  0.12275527056164756  0.999096460744397  0.875400631371164  1.0000
  C   C56       1.0  0.8772435578518056  0.0008991317545436999  0.12460306827594542  1.0000
  C   C57       1.0  0.2840269321300468  0.0010576795812795997  0.6663985450724325  1.0000
  C   C58       1.0  0.7159733352185284  0.9989439889484402  0.33360619098804273  1.0000
  C   C59       1.0  0.5389225901697969  0.8761086871669405  0.6277653705152627  1.0000
  C   C60       1.0  0.46107385050772354  0.12388949157372053  0.37223554998420366  1.0000
  N   N1        1.0  0.6374358743030584  0.6162936231127532  0.7152086683030418  1.0000
  N   N2        1.0  0.36256898509321184  0.3837080205445814  0.2847890902297862  1.0000
  N   N3        1.0  0.16603990343577377  0.7195652219308571  0.04481269225253469  1.0000
  N   N4        1.0  0.8339603892949868  0.28043209163991634  0.95518759107437  1.0000
  N   N5        1.0  0.28098588107096845  0.1286219466393135  0.6682592488267641  1.0000
  N   N6        1.0  0.7190125439270574  0.8713840355276615  0.3317409960843775  1.0000
  Cl  Cl1       1.0  0.15930996501717226  0.08272168916483483  0.2262745430453562  1.0000
  Cl  Cl2       1.0  0.8406926790507966  0.9172817109783581  0.7737289325388658  1.0000
  Cl  Cl3       1.0  0.6659666882548692  0.19750628789084598  0.7411871916662278  1.0000
  Cl  Cl4       1.0  0.334034708875123  0.80249015586967  0.25881216321622696  1.0000
  O   O1        1.0  0.7992533958600491  0.2548848842537339  0.5045730807841905  1.0000
  O   O2        1.0  0.20074798241760308  0.7451158976003853  0.4954268666693479  1.0000
  O   O3        1.0  0.5965955427652644  0.3016237647855107  0.48684107598158716  1.0000
  O   O4        1.0  0.4034050871133203  0.6983804878801649  0.5131596281381403  1.0000
  O   O5        1.0  0.05613392995677197  0.35419949771399223  0.20266583734286306  1.0000
  O   O6        1.0  0.9438663478395453  0.6458021438311832  0.7973327224576392  1.0000
  O   O7        1.0  0.11127008168745081  0.3100858525586432  0.027994005586947396  1.0000
  O   O8        1.0  0.8887228694668395  0.6899157754878615  0.9720035201443263  1.0000
  O   O9        1.0  0.1564158324411622  0.555096722068825  0.6354107151600485  1.0000
  O   O10       1.0  0.8435782257243006  0.4449040294212877  0.36458433806178187  1.0000
  O   O11       1.0  0.28394204396239087  0.5350713536189531  0.7542864717823857  1.0000
  O   O12       1.0  0.7160574958826087  0.46493373175322  0.24570666842433303  1.0000
  O   O13       1.0  0.06872609079952952  0.2954864555866905  0.4184241938168113  1.0000
  O   O14       1.0  0.9312674018222395  0.7045169099745582  0.5815739360102794  1.0000
  O   O15       1.0  0.8604641649214814  0.21020768725663433  0.2663219566885501  1.0000
  O   O16       1.0  0.1395341110079542  0.7897904855827632  0.7336770992388535  1.0000
  O   O17       1.0  0.9693765376648074  0.14246714013040673  0.6629519662452239  1.0000
  O   O18       1.0  0.030626861332059687  0.8575327723358938  0.3370468925103295  1.0000
  O   O19       1.0  0.7573093378898649  0.0066052588247274  0.5511314242859624  1.0000
  O   O20       1.0  0.24269371220547234  0.9933877449042895  0.4488739619692409  1.0000
  O   O21       1.0  0.982320222400702  0.0844247463078389  0.43494378505053527  1.0000
  O   O22       1.0  0.017680242168893346  0.9155760283777139  0.5650547785915379  1.0000
