data_image0
_chemical_formula_structural       C54Cl4H22N18O4Zn4
_chemical_formula_sum              "C54 Cl4 H22 N18 O4 Zn4"
_cell_length_a       19.567747025223646
_cell_length_b       19.56648518695787
_cell_length_c       19.464202080788855
_cell_angle_alpha    111.37379492928778
_cell_angle_beta     111.36504596842117
_cell_angle_gamma    105.2280983316716

_space_group_name_H-M_alt    "P 1"
_space_group_IT_number       1

loop_
  _space_group_symop_operation_xyz
  'x, y, z'

loop_
  _atom_site_type_symbol
  _atom_site_label
  _atom_site_symmetry_multiplicity
  _atom_site_fract_x
  _atom_site_fract_y
  _atom_site_fract_z
  _atom_site_occupancy
  C   C1        1.0  0.5055275998611249  0.2425747585748326  0.8998968794776517  1.0000
  C   C2        1.0  0.24265080870495132  0.5056789709773071  0.8998714226222403  1.0000
  C   C3        1.0  0.29611891660663753  0.4972452342298085  0.016936513934062782  1.0000
  C   C4        1.0  0.49708289845689546  0.2961190989997605  0.01695530535938878  1.0000
  C   C5        1.0  0.5741231097624677  0.5036047998528873  0.2434417104732631  1.0000
  C   C6        1.0  0.5036302888560655  0.5742573375633812  0.24346499474179237  1.0000
  C   C7        1.0  0.2801161158194105  0.3515321372006355  0.7723475531095262  1.0000
  C   C8        1.0  0.35151846752797405  0.2800769874986955  0.7723331963381952  1.0000
  C   C9        1.0  0.49233217961438663  0.2234710545500533  0.9591062428717125  1.0000
  C   C10       1.0  0.2235139250189705  0.4925529214304518  0.9590953769501527  1.0000
  C   C11       1.0  0.5503631809782448  0.5504322504790835  0.2964611380614741  1.0000
  C   C12       1.0  0.27102838914628785  0.2710181354898324  0.7317737849664638  1.0000
  C   C13       1.0  0.5638041554550669  0.4925306457745009  0.7840716997747921  1.0000
  C   C14       1.0  0.4926404773461214  0.5637330590374603  0.7840549178647508  1.0000
  C   C15       1.0  0.6437865778849458  0.7151195045008623  0.15958337935580164  1.0000
  C   C16       1.0  0.7151565583302713  0.6437696634611998  0.1597569060467309  1.0000
  C   C17       1.0  0.7535024569600565  0.4734022864388194  0.07338853675552306  1.0000
  C   C18       1.0  0.4733916032648864  0.7534801528688747  0.07331469223392167  1.0000
  C   C19       1.0  0.4841140726435497  0.7083141595878432  0.9570288837708038  1.0000
  C   C20       1.0  0.7083344440038672  0.4841374756768672  0.9571223578776369  1.0000
  C   C21       1.0  0.5445405134830139  0.5444319580029316  0.7539622205243789  1.0000
  C   C22       1.0  0.7250128408722675  0.7249981788729942  0.1919222299964717  1.0000
  C   C23       1.0  0.777321659728976  0.48507092665710894  0.016303213327226694  1.0000
  C   C24       1.0  0.48502573522539905  0.7772920211659696  0.01621670006536386  1.0000
  C   C25       1.0  0.9846235787050759  0.06235035199409823  0.5197907436298337  1.0000
  C   C26       1.0  0.062364599577080036  0.9846106642694892  0.5197967640813702  1.0000
  C   C27       1.0  0.9910906619988321  0.9096701693815915  0.4331125106752649  1.0000
  C   C28       1.0  0.9096859776474132  0.9910865444461266  0.43310607025115627  1.0000
  C   C29       1.0  0.7990323830215259  0.7990263394532279  0.24998576278055398  1.0000
  C   C30       1.0  0.066160087251582  0.06614752038409219  0.521575182499717  1.0000
  C   C31       1.0  0.9359417292641437  0.9359239326334928  0.37820985534600027  1.0000
  C   C32       1.0  0.9891890750978548  0.9891643385616079  0.3561560168764405  1.0000
  C   C33       1.0  0.06494074756739111  0.06492449025540742  0.44081113271037253  1.0000
  C   C34       1.0  0.8626322010401497  0.8626172625979793  0.3034685448674427  1.0000
  C   C35       1.0  0.1379449670116415  0.1379397185587692  0.5990842219144383  1.0000
  C   C36       1.0  0.19914089371820862  0.1991380852286397  0.6619962841340836  1.0000
  C   C37       1.0  0.1522515917615409  0.4841703315828029  0.9635739662224768  1.0000
  C   C38       1.0  0.4838959022299463  0.15221690051593145  0.963612713625139  1.0000
  C   C39       1.0  0.09239487817383456  0.48299300921883764  0.9714811763572939  1.0000
  C   C40       1.0  0.48268620847130705  0.09233060356868357  0.9714652615548403  1.0000
  C   C41       1.0  0.02878896454886615  0.4846208961170007  0.9821216069465921  1.0000
  C   C42       1.0  0.4843366016300266  0.028705435616039752  0.9820465442214045  1.0000
  C   C43       1.0  0.9711651363939638  0.48793139739984087  0.9933307978106073  1.0000
  C   C44       1.0  0.48774091294180993  0.9710952550364028  0.9932408448921068  1.0000
  C   C45       1.0  0.9079501180005779  0.490254991297043  0.0044574691981011  1.0000
  C   C46       1.0  0.4901342068745507  0.9079029445962591  0.004370266724031192  1.0000
  C   C47       1.0  0.8488804049655343  0.4904812430636485  0.013422274793015295  1.0000
  C   C48       1.0  0.49039314249734656  0.8488315784727336  0.013315343612660504  1.0000
  C   C49       1.0  0.5665056984738965  0.5663516713014685  0.7015329893455018  1.0000
  C   C50       1.0  0.5807748292354303  0.5805629855161386  0.6502987450513302  1.0000
  C   C51       1.0  0.5885074137014428  0.5882798076225981  0.5875807061277102  1.0000
  C   C52       1.0  0.5884541988743877  0.5882781800432184  0.5240471738203071  1.0000
  C   C53       1.0  0.5806635188611439  0.5805948250640895  0.4500189462436878  1.0000
  C   C54       1.0  0.5678182648505937  0.5678663410217908  0.37869223776480954  1.0000
  Cl  Cl1       1.0  0.9285324582215111  0.020995794474359473  0.2920658928548151  1.0000
  Cl  Cl2       1.0  0.02102495406224839  0.9284957268876396  0.29207595928642144  1.0000
  Cl  Cl3       1.0  0.6331586174914747  0.45595470833445984  0.26606755622317735  1.0000
  Cl  Cl4       1.0  0.45609252562729796  0.6334188597605886  0.2661107461524069  1.0000
  H   H1        1.0  0.5061688438241134  0.2035277268514193  0.8439180004591905  1.0000
  H   H2        1.0  0.20364024012529555  0.5063449914309786  0.8439039290698106  1.0000
  H   H3        1.0  0.3094320158327974  0.49162082679664104  0.07331223222473676  1.0000
  H   H4        1.0  0.4914288233495725  0.30942858284563374  0.0733141215968374  1.0000
  H   H5        1.0  0.23310897582419443  0.37241381329464224  0.7621651220927604  1.0000
  H   H6        1.0  0.37238579682816203  0.23305403542198624  0.7621512406318232  1.0000
  H   H7        1.0  0.6013758248865813  0.46223411133955483  0.7741281291752742  1.0000
  H   H8        1.0  0.4623833868037012  0.6013322074540144  0.7741082606255747  1.0000
  H   H9        1.0  0.6225236294254374  0.761827531952875  0.16768593291722317  1.0000
  H   H10       1.0  0.7618833035103734  0.622533312836481  0.16800807778689372  1.0000
  H   H11       1.0  0.7883374995626937  0.47094099671845424  0.12966563037398526  1.0000
  H   H12       1.0  0.4709410224867907  0.7883223395400448  0.12960278417772733  1.0000
  H   H13       1.0  0.49217012836410123  0.7002911541006113  0.9028193630723038  1.0000
  H   H14       1.0  0.7002961300207815  0.49221087158603904  0.9029219163829582  1.0000
  H   H15       1.0  0.8669469052628284  0.9524027586663024  0.44307398101385337  1.0000
  H   H16       1.0  0.9524018654199438  0.8669426597490574  0.44308652279879385  1.0000
  H   H17       1.0  0.9857233956957573  0.057147899130825665  0.5742755153336035  1.0000
  H   H18       1.0  0.05716217195818983  0.9857184387934054  0.5742842638396367  1.0000
  H   H19       1.0  0.015233482238009693  0.8768001355053341  0.39705070949236904  1.0000
  H   H20       1.0  0.8768271583968639  0.015232475596384592  0.39704527925771055  1.0000
  H   H21       1.0  0.06472820037802758  0.12167172517309408  0.4432882125654275  1.0000
  H   H22       1.0  0.12168519050592148  0.0647080673794775  0.44329458783445835  1.0000
  N   N1        1.0  0.5183000416445012  0.31984822966143167  0.9219827857940217  1.0000
  N   N2        1.0  0.31988561312963515  0.5183454942956657  0.9219289627813438  1.0000
  N   N3        1.0  0.35319211502815057  0.512808025022899  0.9939587458780537  1.0000
  N   N4        1.0  0.5127560219140861  0.3532003750105872  0.9940069222376098  1.0000
  N   N5        1.0  0.544731629271368  0.5004110243691287  0.16781726352709114  1.0000
  N   N6        1.0  0.5004289490424796  0.544816964895631  0.16783129710003664  1.0000
  N   N7        1.0  0.36027518412418397  0.40392443419294466  0.8307730899192123  1.0000
  N   N8        1.0  0.40392519661633486  0.36024294633486437  0.8307645906277017  1.0000
  N   N9        1.0  0.5262695218459541  0.48191801965673164  0.827611153178971  1.0000
  N   N10       1.0  0.48199685646137874  0.5262143636440513  0.8276000146743528  1.0000
  N   N11       1.0  0.5905440738516956  0.6341698477811377  0.1132612166164576  1.0000
  N   N12       1.0  0.6342219296735578  0.5905117256905612  0.11336516071459356  1.0000
  N   N13       1.0  0.6768409481561547  0.4649028740742409  0.04869624478946131  1.0000
  N   N14       1.0  0.46494520666386313  0.6768289161235402  0.04863126130724293  1.0000
  N   N15       1.0  0.47155841393615106  0.6488358155674234  0.9768612328501477  1.0000
  N   N16       1.0  0.6488473212898924  0.47152647826423083  0.9769362932554133  1.0000
  N   N17       1.0  0.14533707450813454  0.9845743162520293  0.5400490655252099  1.0000
  N   N18       1.0  0.9845931872185146  0.1453282474407659  0.5400484362302791  1.0000
  O   O1        1.0  0.1900562572289815  0.0007664041343318252  0.6135917104284729  1.0000
  O   O2        1.0  0.16285478459017358  0.9703397309282948  0.4830352670132215  1.0000
  O   O3        1.0  0.0007702827674123033  0.19004485995337458  0.6135915814464283  1.0000
  O   O4        1.0  0.9703648547410921  0.16284991296663542  0.4830405109211072  1.0000
  Zn  Zn1       1.0  0.5272761649075406  0.411620568680739  0.8863909885250509  1.0000
  Zn  Zn2       1.0  0.4116748695665889  0.5272650296262424  0.8863563706608061  1.0000
  Zn  Zn3       1.0  0.47255440935854415  0.5887231012612731  0.08421021194140373  1.0000
  Zn  Zn4       1.0  0.5887054049885234  0.47252461100315196  0.08425459100195093  1.0000
