data_image0
_chemical_formula_structural       Cu2H18C10S2N2O12
_chemical_formula_sum              "Cu2 H18 C10 S2 N2 O12"
_cell_length_a       4.988592837699283
_cell_length_b       11.079286068868406
_cell_length_c       8.659553205314143
_cell_angle_alpha    89.99972508213857
_cell_angle_beta     117.24336986782401
_cell_angle_gamma    89.99977469545061

_space_group_name_H-M_alt    "P 1"
_space_group_IT_number       1

loop_
  _space_group_symop_operation_xyz
  'x, y, z'

loop_
  _atom_site_type_symbol
  _atom_site_label
  _atom_site_symmetry_multiplicity
  _atom_site_fract_x
  _atom_site_fract_y
  _atom_site_fract_z
  _atom_site_occupancy
  Cu  Cu1       1.0  0.49817329926244713  0.7602918314692174  0.09430694393289941  1.0000
  Cu  Cu2       1.0  0.5018060311274938  0.26029216477405737  0.9056927202435928  1.0000
  H   H1        1.0  0.2005767716746618  0.8176494216158617  0.24963020857455118  1.0000
  H   H2        1.0  0.7993978555785829  0.31763871640418273  0.7503773737206032  1.0000
  H   H3        1.0  0.041195469564861795  0.9940228261827427  0.12580612227928606  1.0000
  H   H4        1.0  0.9588001021285636  0.49401277011891415  0.8741979480153004  1.0000
  H   H5        1.0  0.2649372412226541  0.054684271211570504  0.43072258066123936  1.0000
  H   H6        1.0  0.7350809703892976  0.554682794712143  0.5692748510052751  1.0000
  H   H7        1.0  0.4284835812429079  0.1614867030842078  0.3405617410893526  1.0000
  H   H8        1.0  0.571523857843374  0.6614852817959331  0.6594356750446904  1.0000
  H   H9        1.0  0.5448595650028948  0.8204998406543855  0.5168525912486359  1.0000
  H   H10       1.0  0.4551469409930177  0.3205025642399946  0.48314694266116476  1.0000
  H   H11       1.0  0.07553310500652802  0.7692271054768938  0.7786493778628767  1.0000
  H   H12       1.0  0.9244635907810873  0.26924251948531014  0.2213550907533133  1.0000
  H   H13       1.0  0.9279948812873541  0.7280647094889333  0.9064270378148293  1.0000
  H   H14       1.0  0.07198154586369299  0.22808101922846188  0.09357044701889089  1.0000
  H   H15       1.0  0.25320154898066244  0.5621609517800793  0.26815188941103674  1.0000
  H   H16       1.0  0.7468525431467938  0.0621538275011062  0.7318641813148972  1.0000
  H   H17       1.0  0.3962261274868268  0.5326584886724532  0.14016254283065874  1.0000
  H   H18       1.0  0.6038099050953106  0.0326705406940562  0.859848714314168  1.0000
  C   C1        1.0  0.288984956392035  0.9912362115101775  0.19756393158209554  1.0000
  C   C2        1.0  0.7110134520563206  0.49123133639204064  0.8024440225788679  1.0000
  C   C3        1.0  0.41216785823630175  0.042263058963854405  0.0772269169174251  1.0000
  C   C4        1.0  0.5878134419583674  0.5422594463162724  0.9227654624308028  1.0000
  C   C5        1.0  0.40416811421584237  0.06617181794319293  0.3637070386427297  1.0000
  C   C6        1.0  0.59583809107  0.5661714577627138  0.636294628640364  1.0000
  C   C7        1.0  0.6312102046380729  0.8562389629006052  0.4297534698473128  1.0000
  C   C8        1.0  0.3687838233083554  0.3562364590662597  0.5702444394170314  1.0000
  C   C9        1.0  0.899509574927414  0.7840360893655642  0.44302073214325316  1.0000
  C   C10       1.0  0.10049077323326118  0.2840320132655664  0.5569746404819609  1.0000
  S   S1        1.0  0.7793458197987916  0.008322417838549302  0.4950504336782656  1.0000
  S   S2        1.0  0.22065234848199822  0.5083265802352557  0.5049432967323426  1.0000
  N   N1        1.0  0.38087640351119484  0.8642171369071436  0.250212009609676  1.0000
  N   N2        1.0  0.6191180722941211  0.36422501775973615  0.7497910661433166  1.0000
  O   O1        1.0  0.35329190216330636  0.15531760047653623  0.0413499786447815  1.0000
  O   O2        1.0  0.6466797433396322  0.6553241681133601  0.9586358955412493  1.0000
  O   O3        1.0  0.9032928296017315  0.7552385714351646  0.29964298322824584  1.0000
  O   O4        1.0  0.09670165011463891  0.25522834703593134  0.7003381518347779  1.0000
  O   O5        1.0  0.0812489008942521  0.7795318581093797  0.8953409182069334  1.0000
  O   O6        1.0  0.9187293908862626  0.2795464957494431  0.1046607094496039  1.0000
  O   O7        1.0  0.5536653701931583  0.974372861010004  0.02418023301519413  1.0000
  O   O8        1.0  0.4463500467205391  0.4743659790810356  0.9758288021217678  1.0000
  O   O9        1.0  0.1103460222344168  0.7631524961610056  0.5912243925067954  1.0000
  O   O10       1.0  0.8896488952083031  0.26315389049233323  0.40876190393572637  1.0000
  O   O11       1.0  0.3825924716504687  0.5940377245046448  0.219717201124034  1.0000
  O   O12       1.0  0.6174397410922197  0.0940383838574803  0.7802883129714003  1.0000
