data_image0
_chemical_formula_structural       Cu4H56C80S4N16O12
_chemical_formula_sum              "Cu4 H56 C80 S4 N16 O12"
_cell_length_a       10.646583018094441
_cell_length_b       13.578803870526833
_cell_length_c       17.551068374114603
_cell_angle_alpha    89.53864699525394
_cell_angle_beta     104.039481189983
_cell_angle_gamma    110.47431297567016

_space_group_name_H-M_alt    "P 1"
_space_group_IT_number       1

loop_
  _space_group_symop_operation_xyz
  'x, y, z'

loop_
  _atom_site_type_symbol
  _atom_site_label
  _atom_site_symmetry_multiplicity
  _atom_site_fract_x
  _atom_site_fract_y
  _atom_site_fract_z
  _atom_site_occupancy
  Cu  Cu1       1.0  0.022768537716295615  0.15143963994592013  0.3802671517490595  1.0000
  Cu  Cu2       1.0  0.9772170052849846  0.8485572123313575  0.6197308545624409  1.0000
  Cu  Cu3       1.0  0.6794285621296227  0.7012601242173987  0.6526928670573966  1.0000
  Cu  Cu4       1.0  0.32056965054875514  0.2987429753159461  0.3473076398272069  1.0000
  H   H1        1.0  0.016005118996254508  0.21701828750866534  0.5371700544496321  1.0000
  H   H2        1.0  0.9839827661378423  0.7829794584073755  0.4628254546528153  1.0000
  H   H3        1.0  0.7033636395175904  0.6722777809512976  0.48481760407494784  1.0000
  H   H4        1.0  0.2966243470346513  0.32771800027735776  0.5151875791181766  1.0000
  H   H5        1.0  0.6676954709962218  0.48621477979458666  0.6741424662798392  1.0000
  H   H6        1.0  0.33230129361275107  0.5137871739872395  0.3258669332824411  1.0000
  H   H7        1.0  0.6201146246305455  0.8785525279678126  0.8617836008190449  1.0000
  H   H8        1.0  0.3799054349389479  0.12144375673123159  0.1382102705640662  1.0000
  H   H9        1.0  0.782264510540351  0.556530758008421  0.4197830781384296  1.0000
  H   H10       1.0  0.2177176845723281  0.44346506912583555  0.5802206978384774  1.0000
  H   H11       1.0  0.7482619328451391  0.36216002638081324  0.616858502192315  1.0000
  H   H12       1.0  0.2517477444498368  0.6378425751586292  0.3831550557511818  1.0000
  H   H13       1.0  0.6545509915456407  0.5153958707816244  0.1763631460038653  1.0000
  H   H14       1.0  0.34546665582000463  0.4846052088304092  0.8236492613191189  1.0000
  H   H15       1.0  0.2813262150771294  0.007686756683675396  0.6074005855008338  1.0000
  H   H16       1.0  0.7186664141193904  0.9923047396537543  0.39259323246834305  1.0000
  H   H17       1.0  0.5407926653506367  0.824188984868954  0.7070962802882335  1.0000
  H   H18       1.0  0.45920758578540694  0.1758062279882182  0.29290382847583624  1.0000
  H   H19       1.0  0.8985805727756926  0.9122521734744495  0.2779148745276174  1.0000
  H   H20       1.0  0.1014194156410255  0.08774857118405782  0.7220852825327453  1.0000
  H   H21       1.0  0.2543570752079916  0.28690114900643243  0.0534358252795002  1.0000
  H   H22       1.0  0.7456603219130713  0.7131137474858562  0.9465670713387908  1.0000
  H   H23       1.0  0.38662934651656394  0.9191473059461258  0.6528666378592758  1.0000
  H   H24       1.0  0.6133606646875336  0.08084878342245364  0.34713086301819357  1.0000
  H   H25       1.0  0.6841164447033918  0.1168982329213364  0.17246828890993976  1.0000
  H   H26       1.0  0.31586876909398137  0.8830879432602573  0.8275198131315165  1.0000
  H   H27       1.0  0.7444102438097174  0.9097108671033639  0.11459013114661323  1.0000
  H   H28       1.0  0.25558333496363866  0.09028468890357293  0.8854010375296752  1.0000
  H   H29       1.0  0.9242822251690583  0.3320242289467927  0.5935671607993314  1.0000
  H   H30       1.0  0.07574095977372504  0.6679947303307969  0.40643321658688336  1.0000
  H   H31       1.0  0.4643670284473273  0.9906017342398172  0.19747435600010727  1.0000
  H   H32       1.0  0.5356188013533368  0.0093837397244201  0.8025115441945516  1.0000
  H   H33       1.0  0.4877294544770621  0.4192449474383082  0.04813554037139768  1.0000
  H   H34       1.0  0.5122927253754739  0.5807656403875257  0.9518765310692316  1.0000
  H   H35       1.0  0.41516414674156005  0.8375376999066405  0.42069436119744097  1.0000
  H   H36       1.0  0.5848365861289437  0.1624586625920372  0.5792967151365004  1.0000
  H   H37       1.0  0.5847638696313384  0.8127120931347636  0.9915198226876284  1.0000
  H   H38       1.0  0.4152460704692301  0.18729141103293045  0.00847098719708578  1.0000
  H   H39       1.0  0.9660664333161506  0.14921363300104676  0.9826093496691114  1.0000
  H   H40       1.0  0.03394828294574381  0.8507855399344779  0.0173912037394146  1.0000
  H   H41       1.0  0.13196099598498276  0.010065084679773404  0.321173453650239  1.0000
  H   H42       1.0  0.8680520584314592  0.9899427635221231  0.6788275646722113  1.0000
  H   H43       1.0  0.8738046627311248  0.2897969317640303  0.3093776107813824  1.0000
  H   H44       1.0  0.12615902822622616  0.710196667316417  0.6906217431667229  1.0000
  H   H45       1.0  0.5610288668649731  0.7424266356547878  0.4831818751736065  1.0000
  H   H46       1.0  0.4389741095862476  0.25757028199706156  0.5168152344733272  1.0000
  H   H47       1.0  0.27352451778813247  0.9069091119046674  0.37119320082449997  1.0000
  H   H48       1.0  0.726481375961029  0.0930979072397804  0.6288084785417708  1.0000
  H   H49       1.0  0.46082731087032164  0.8271317980153868  0.2585845213757593  1.0000
  H   H50       1.0  0.5391677582593246  0.1728627359643227  0.741412547026755  1.0000
  H   H51       1.0  0.5850847354581604  0.4719854895170315  0.30121752586590833  1.0000
  H   H52       1.0  0.41492745250649693  0.528006221165427  0.6987916653781525  1.0000
  H   H53       1.0  0.13670317912424682  0.10661436219346142  0.5473701553307107  1.0000
  H   H54       1.0  0.863287927530827  0.8933698033951532  0.45262902801764676  1.0000
  H   H55       1.0  0.7737072843756181  0.4091037350993574  0.3569991579477901  1.0000
  H   H56       1.0  0.22627587050187262  0.5908920655792046  0.6430053264830419  1.0000
  C   C1        1.0  0.9592959946765732  0.2585748867760104  0.49819240867110887  1.0000
  C   C2        1.0  0.04069746878656854  0.7414243943048222  0.5018045014818638  1.0000
  C   C3        1.0  0.7146289808101615  0.6032382444604565  0.5133518611716495  1.0000
  C   C4        1.0  0.2853570336513371  0.39675740915392055  0.4866564547253772  1.0000
  C   C5        1.0  0.1697556354246217  0.23224582319987525  0.186595990064319  1.0000
  C   C6        1.0  0.8302457901217295  0.7677619588532636  0.8134061947359752  1.0000
  C   C7        1.0  0.6973326132047362  0.500316314049833  0.618694613067717  1.0000
  C   C8        1.0  0.30266437765502724  0.49968410379302963  0.3813136552573226  1.0000
  C   C9        1.0  0.3024163144683811  0.3099526543151256  0.1794180376446661  1.0000
  C   C10       1.0  0.6975902369054198  0.6900597347807322  0.8205878106806495  1.0000
  C   C11       1.0  0.6860631053853865  0.9237885535391257  0.9169815888770642  1.0000
  C   C12       1.0  0.3139530260952199  0.0762116523193868  0.08301291536113808  1.0000
  C   C13       1.0  0.8062725371014491  0.024176786381886507  0.225629655106033  1.0000
  C   C14       1.0  0.1937265674398319  0.975820124264182  0.7743674642325403  1.0000
  C   C15       1.0  0.7786557932775081  0.4492114282333191  0.5135786670631859  1.0000
  C   C16       1.0  0.22133639875821126  0.5507891218879806  0.48642605899220825  1.0000
  C   C17       1.0  0.7581272441376044  0.5359596105671472  0.4760306164484048  1.0000
  C   C18       1.0  0.2418591761689726  0.46404105315686917  0.5239709962863656  1.0000
  C   C19       1.0  0.9349061048624846  0.094727350031711  0.20706981420856602  1.0000
  C   C20       1.0  0.06509098454938565  0.9052734062967431  0.7929299235944285  1.0000
  C   C21       1.0  0.3829407528432186  0.8873476196344331  0.5304783761549529  1.0000
  C   C22       1.0  0.617056215440094  0.1126550336842911  0.46951339366177075  1.0000
  C   C23       1.0  0.742870584128795  0.43090386186805313  0.5858668999913803  1.0000
  C   C24       1.0  0.25713013123179  0.5690983697080227  0.4141356654616358  1.0000
  C   C25       1.0  0.8624360647136982  0.040353441251511406  0.05798274806100781  1.0000
  C   C26       1.0  0.13756533596941986  0.9596442050733814  0.9420158549787984  1.0000
  C   C27       1.0  0.5550177894463743  0.454229431357149  0.17481403683248686  1.0000
  C   C28       1.0  0.44498911729424856  0.5457695019097529  0.8251922229740102  1.0000
  C   C29       1.0  0.24885238466108459  0.0031466965342872018  0.5434375199172763  1.0000
  C   C30       1.0  0.7511472898925077  0.9968493539344863  0.4565613784847712  1.0000
  C   C31       1.0  0.8370905035349381  0.3809116081545412  0.48048306883857345  1.0000
  C   C32       1.0  0.162906723098068  0.6190914275716678  0.5195190043979848  1.0000
  C   C33       1.0  0.7946178480621812  0.017770909082571507  0.9147141257517859  1.0000
  C   C34       1.0  0.20539229562646014  0.9822268601924338  0.0852817541498609  1.0000
  C   C35       1.0  0.5070356879223256  0.8261221968966341  0.6436590348300086  1.0000
  C   C36       1.0  0.4929688840074107  0.1738740597792869  0.35633487531963937  1.0000
  C   C37       1.0  0.8054121770693425  0.9321062907213291  0.26283629527472385  1.0000
  C   C38       1.0  0.19458604513147998  0.06790096263432593  0.7371591477586463  1.0000
  C   C39       1.0  0.3320299343982711  0.3296852651483775  0.10635543920426468  1.0000
  C   C40       1.0  0.6679749798756589  0.6703217127546424  0.8936472378124873  1.0000
  C   C41       1.0  0.6812156548512007  0.8615177560169727  0.2746308792547083  1.0000
  C   C42       1.0  0.3187861027337107  0.13848061120100405  0.7253694966828873  1.0000
  C   C43       1.0  0.42127524479050055  0.8809768418032037  0.6121924875228685  1.0000
  C   C44       1.0  0.5787250194858231  0.11901841618538363  0.3878064838382613  1.0000
  C   C45       1.0  0.6836764382334978  0.046054589906148614  0.2024306651946617  1.0000
  C   C46       1.0  0.3163059641713561  0.9539378280741037  0.7975594074849752  1.0000
  C   C47       1.0  0.29234480172016225  0.9457786910709346  0.4956792986506215  1.0000
  C   C48       1.0  0.7076515177091522  0.05422455163661512  0.5043175165202527  1.0000
  C   C49       1.0  0.7558660276507325  0.9434463517473548  0.059387066292323674  1.0000
  C   C50       1.0  0.24413391914463725  0.05654832074238671  0.9406067199621971  1.0000
  C   C51       1.0  0.9072850675680754  0.3245535280002798  0.5297906126219728  1.0000
  C   C52       1.0  0.09272241870730372  0.6754486989116374  0.4702123623967792  1.0000
  C   C53       1.0  0.5607029635642888  0.9753299448088629  0.2152202366623186  1.0000
  C   C54       1.0  0.43929433380527877  0.024659162418082303  0.7847742194414662  1.0000
  C   C55       1.0  0.9585603533659679  0.10391485469040161  0.13014583433594137  1.0000
  C   C56       1.0  0.041442717267713806  0.8960883156558598  0.869853096505075  1.0000
  C   C57       1.0  0.4612599506702749  0.402551090590336  0.104317036680051  1.0000
  C   C58       1.0  0.5387616657400826  0.5974603799785001  0.8956926869956234  1.0000
  C   C59       1.0  0.4362128686590482  0.8357677041684896  0.4844916985928761  1.0000
  C   C60       1.0  0.5637891086065209  0.16422910454480896  0.515508114808945  1.0000
  C   C61       1.0  0.667394155071193  0.8871346899302707  0.9893835042790825  1.0000
  C   C62       1.0  0.3326130896126003  0.11286309101468113  0.01061195636518871  1.0000
  C   C63       1.0  0.8813571737733383  0.0762852762079334  0.9845559677867468  1.0000
  C   C64       1.0  0.1186542734416348  0.9237131423730459  0.015443530869553966  1.0000
  C   C65       1.0  0.16302958675088772  0.005780199998390902  0.38448600394250576  1.0000
  C   C66       1.0  0.8369789249906958  0.9942222261148999  0.6155119925154722  1.0000
  C   C67       1.0  0.8821034135282629  0.3013971557649385  0.37207520912544106  1.0000
  C   C68       1.0  0.11786971748009743  0.6986020716112622  0.6279221784347299  1.0000
  C   C69       1.0  0.5207795625975038  0.7815872233010451  0.5200585388395992  1.0000
  C   C70       1.0  0.47922742955493897  0.21841200332004013  0.47994032784779944  1.0000
  C   C71       1.0  0.24595051913840385  0.9479579012657453  0.4139124364063207  1.0000
  C   C72       1.0  0.7540583692154001  0.0520453134377448  0.5860856268450405  1.0000
  C   C73       1.0  0.5584672955677945  0.8824144120708584  0.2505686157799118  1.0000
  C   C74       1.0  0.4415266700057572  0.11757784640107623  0.7494259774365801  1.0000
  C   C75       1.0  0.5165429209177645  0.43040589528840206  0.2452915389874377  1.0000
  C   C76       1.0  0.4834664819349257  0.5695921474555378  0.7547173480889312  1.0000
  C   C77       1.0  0.16625121755833308  0.05950035640289288  0.5099132284481485  1.0000
  C   C78       1.0  0.8337491941271153  0.9404930948582545  0.4900914360933725  1.0000
  C   C79       1.0  0.8272702039840495  0.3688090157553674  0.3994883577501581  1.0000
  C   C80       1.0  0.17271201083904938  0.6311868790760116  0.6005137121223427  1.0000
  S   S1        1.0  0.8235916026936464  0.05981000557056861  0.8207963033458866  1.0000
  S   S2        1.0  0.17642344867676496  0.9402081059738524  0.17920516403315637  1.0000
  S   S3        1.0  0.6779843342863784  0.7398458867539901  0.31675441842291713  1.0000
  S   S4        1.0  0.32201059105198476  0.2601463452622567  0.6832408832474995  1.0000
  N   N1        1.0  0.5570785972246455  0.776080833395632  0.5989072397127231  1.0000
  N   N2        1.0  0.44293365644141863  0.2239111029438875  0.40109626451664576  1.0000
  N   N3        1.0  0.6879561167164567  0.5884186795424641  0.5849392491161538  1.0000
  N   N4        1.0  0.3120299138376268  0.411581150459945  0.4150634342281734  1.0000
  N   N5        1.0  0.9465612392580238  0.24531431921275268  0.42003604958603086  1.0000
  N   N6        1.0  0.05341196106957112  0.7546810251296135  0.5799595774077275  1.0000
  N   N7        1.0  0.1229793733507165  0.061719000920582814  0.43103437582422527  1.0000
  N   N8        1.0  0.877033237217141  0.9382736563120203  0.5689709013029328  1.0000
  N   N9        1.0  0.15490600015527184  0.22152685135428385  0.2608717037476751  1.0000
  N   N10       1.0  0.8450911900091995  0.7784801802342899  0.7391292865479427  1.0000
  N   N11       1.0  0.39360180282606894  0.3592095769785147  0.24826475185738414  1.0000
  N   N12       1.0  0.6063983096715048  0.6407934019463397  0.7517388780394896  1.0000
  N   N13       1.0  0.032564674444707016  0.15423330981658273  0.2694224477432599  1.0000
  N   N14       1.0  0.9674307895902386  0.8457721259158717  0.7305788379145994  1.0000
  N   N15       1.0  0.07647587980709862  0.1779575904254997  0.1221831650741194  1.0000
  N   N16       1.0  0.9235244224727379  0.8220478484227555  0.877818250644566  1.0000
  O   O1        1.0  0.9735149383494316  0.09116035870412992  0.8303285413405986  1.0000
  O   O2        1.0  0.02650303688906069  0.9088678768985973  0.16967692705631518  1.0000
  O   O3        1.0  0.7422245873794039  0.9635805106514896  0.7667915575044475  1.0000
  O   O4        1.0  0.2578000193522314  0.03643950411480291  0.23320220200996994  1.0000
  O   O5        1.0  0.6365140703092464  0.6629598132677472  0.24915996687134617  1.0000
  O   O6        1.0  0.36347243902699217  0.3370370351195504  0.7508381791926054  1.0000
  O   O7        1.0  0.7704620278425836  0.14575802926054143  0.8037923370201199  1.0000
  O   O8        1.0  0.22953983926558416  0.8542525725577834  0.1962185057232944  1.0000
  O   O9        1.0  0.5762534755561076  0.7180061209594159  0.3643861858999883  1.0000
  O   O10       1.0  0.4237481864290089  0.2819960390295648  0.6356182254098854  1.0000
  O   O11       1.0  0.8206068288398425  0.7610571933912383  0.36489549070201116  1.0000
  O   O12       1.0  0.17939773651975344  0.23893904071898223  0.6350989881491029  1.0000
