data_image0
_chemical_formula_structural       Ag4H16C20S4N8O12F12
_chemical_formula_sum              "Ag4 H16 C20 S4 N8 O12 F12"
_cell_length_a       8.860418686290975
_cell_length_b       8.860430741456803
_cell_length_c       12.186252577619886
_cell_angle_alpha    88.17011989194671
_cell_angle_beta     88.17021084290161
_cell_angle_gamma    77.8062254220418

_space_group_name_H-M_alt    "P 1"
_space_group_IT_number       1

loop_
  _space_group_symop_operation_xyz
  'x, y, z'

loop_
  _atom_site_type_symbol
  _atom_site_label
  _atom_site_symmetry_multiplicity
  _atom_site_fract_x
  _atom_site_fract_y
  _atom_site_fract_z
  _atom_site_occupancy
  Ag  Ag1       1.0  0.6831762204952483  0.8140542641778981  0.5415944135382134  1.0000
  Ag  Ag2       1.0  0.18594468893157773  0.3168200730103194  0.9584105231046606  1.0000
  Ag  Ag3       1.0  0.31682036950203246  0.18594172523161495  0.45840849679603224  1.0000
  Ag  Ag4       1.0  0.8140561473463566  0.6831828064223942  0.0415904933255788  1.0000
  H   H1        1.0  0.7031848604757869  0.47891006031764494  0.6332860628361914  1.0000
  H   H2        1.0  0.521090443808923  0.2968154172151857  0.8667173076012774  1.0000
  H   H3        1.0  0.2968123932533473  0.5210882335360412  0.36671349775404133  1.0000
  H   H4        1.0  0.47890992193376997  0.7031897715796237  0.1332844876980346  1.0000
  H   H5        1.0  0.41419416483389443  0.7479723114330314  0.4058574755958588  1.0000
  H   H6        1.0  0.25202549398637336  0.585807381713657  0.09414293177284351  1.0000
  H   H7        1.0  0.58580308889524  0.2520259824206477  0.594142084994381  1.0000
  H   H8        1.0  0.7479757663848403  0.4141989524653981  0.9058604584280374  1.0000
  H   H9        1.0  0.9344944442976983  0.8269547728085911  0.3662266609934193  1.0000
  H   H10       1.0  0.17304703262576032  0.0654966237945303  0.1337741426542394  1.0000
  H   H11       1.0  0.06550327727685358  0.17304120898830183  0.6337754032385874  1.0000
  H   H12       1.0  0.8269561139211421  0.9345004769781797  0.866221208304097  1.0000
  H   H13       1.0  0.8352216563684111  0.04754455621560541  0.6643691912514244  1.0000
  H   H14       1.0  0.9524570946056627  0.16477894670668292  0.8356328228062254  1.0000
  H   H15       1.0  0.16477333286126586  0.9524537515159679  0.3356337027987166  1.0000
  H   H16       1.0  0.04754331825144931  0.835220478653362  0.16436499922566838  1.0000
  C   C1        1.0  0.6117844175240849  0.4886237322789172  0.5739970046494207  1.0000
  C   C2        1.0  0.5113804807627673  0.3882209098530042  0.9260061099234207  1.0000
  C   C3        1.0  0.3882175503311204  0.5113791395411768  0.4260031656785728  1.0000
  C   C4        1.0  0.4886205446770545  0.6117865793439352  0.0739972593981335  1.0000
  C   C5        1.0  0.4524872393676065  0.6370613886272525  0.4484047708009342  1.0000
  C   C6        1.0  0.36293140720894  0.5475176123424887  0.0515957595156848  1.0000
  C   C7        1.0  0.5475127460339522  0.3629345786180807  0.5515947805988688  1.0000
  C   C8        1.0  0.6370637294478315  0.45249107397746274  0.9484068956715105  1.0000
  C   C9        1.0  0.9636404385821608  0.9046007933347512  0.42592084930709717  1.0000
  C   C10       1.0  0.09540081485668142  0.03635148704069022  0.0740799119631461  1.0000
  C   C11       1.0  0.03635502051029961  0.09539520436105421  0.57408208650169  1.0000
  C   C12       1.0  0.9046036968539756  0.9636444497541773  0.9259162550276868  1.0000
  C   C13       1.0  0.9097028862390816  0.026669340180845304  0.5910247427086759  1.0000
  C   C14       1.0  0.9733304367852041  0.09029867929155701  0.9089732429031088  1.0000
  C   C15       1.0  0.0902962025165976  0.9733254796592167  0.4089756756726999  1.0000
  C   C16       1.0  0.026672006312423842  0.9097018878821503  0.0910204041618456  1.0000
  C   C17       1.0  0.4154989414594682  0.8820714051737683  0.8296898123037267  1.0000
  C   C18       1.0  0.11792835597977097  0.5844995598203014  0.6703124045053245  1.0000
  C   C19       1.0  0.5845034962585274  0.11792915661055764  0.1703103997829132  1.0000
  C   C20       1.0  0.8820706890237631  0.41550102682289497  0.3296878840049118  1.0000
  S   S1        1.0  0.4493182992260645  0.0455798687195852  0.7376934557312468  1.0000
  S   S2        1.0  0.9544230804418277  0.5506740064002927  0.7623085003002572  1.0000
  S   S3        1.0  0.5506816410784411  0.9544218639815372  0.2623076070528469  1.0000
  S   S4        1.0  0.045577331070376155  0.44932541761239975  0.2376909629870525  1.0000
  N   N1        1.0  0.5644233183755104  0.6259786850033038  0.522031289963536  1.0000
  N   N2        1.0  0.374022573575914  0.4355774204840231  0.9779677884611502  1.0000
  N   N3        1.0  0.4355757286453894  0.37402190366091054  0.4779665366635726  1.0000
  N   N4        1.0  0.6259775579078378  0.5644289240023427  0.022033165331137604  1.0000
  N   N5        1.0  0.8734572065733418  0.9313371563503311  0.5171675492109955  1.0000
  N   N6        1.0  0.0686640157064389  0.1265395267353924  0.9828349065381516  1.0000
  N   N7        1.0  0.12654051365630184  0.06865882409921654  0.4828361562764272  1.0000
  N   N8        1.0  0.931340025468984  0.8734587194215708  0.01716203932174658  1.0000
  O   O1        1.0  0.44171124929459177  0.9855790223487095  0.6274731455467162  1.0000
  O   O2        1.0  0.014422773743312727  0.5582905589280144  0.8725272651900866  1.0000
  O   O3        1.0  0.5582889259413121  0.014421555334529004  0.372527938116697  1.0000
  O   O4        1.0  0.985579899578525  0.4417088485120999  0.1274721471481541  1.0000
  O   O5        1.0  0.6025033364255705  0.06747723812356549  0.765823042697619  1.0000
  O   O6        1.0  0.9325319980625723  0.39748635368955837  0.734182186563288  1.0000
  O   O7        1.0  0.3974966045513924  0.9325244952512294  0.2341771994587702  1.0000
  O   O8        1.0  0.06746841344962454  0.6025130703231414  0.2658172767240288  1.0000
  O   O9        1.0  0.32146148827727233  0.17196365453069265  0.7662959005893981  1.0000
  O   O10       1.0  0.8280319405874792  0.6785232383485394  0.7337062507086571  1.0000
  O   O11       1.0  0.678538921217566  0.8280357674609891  0.2337060245810534  1.0000
  O   O12       1.0  0.171968470252267  0.32147618499048053  0.2662940332063712  1.0000
  F   F1        1.0  0.5037725668364388  0.7452885473722546  0.7984624186220444  1.0000
  F   F2        1.0  0.2547143646443004  0.4962248519403829  0.7015357753821619  1.0000
  F   F3        1.0  0.4962330279921759  0.25471314389741206  0.20153851678937681  1.0000
  F   F4        1.0  0.7452858126089624  0.5037757277638661  0.2984628463981238  1.0000
  F   F5        1.0  0.44822068413693467  0.9055578488669839  0.9350935913794629  1.0000
  F   F6        1.0  0.09443915310324505  0.5517859878614007  0.5649076872451246  1.0000
  F   F7        1.0  0.5517794910989622  0.09444272881624731  0.0649074922839503  1.0000
  F   F8        1.0  0.9055601275041385  0.4482134444375845  0.4350918015167196  1.0000
  F   F9        1.0  0.2652722469932628  0.870160440701625  0.8280376384371523  1.0000
  F   F10       1.0  0.12984045571435834  0.7347250754007109  0.6719661424337174  1.0000
  F   F11       1.0  0.7347326881382229  0.12983895016590452  0.17196172295201964  1.0000
  F   F12       1.0  0.8701585913065416  0.2652755132635037  0.328031684193391  1.0000
