data_image0
_chemical_formula_structural       Zn2Si2H64C40O4
_chemical_formula_sum              "Zn2 Si2 H64 C40 O4"
_cell_length_a       8.36850171580409
_cell_length_b       11.015121416222124
_cell_length_c       12.651
_cell_angle_alpha    83.9875766193245
_cell_angle_beta     76.35240645671662
_cell_angle_gamma    89.80845435399623

_space_group_name_H-M_alt    "P 1"
_space_group_IT_number       1

loop_
  _space_group_symop_operation_xyz
  'x, y, z'

loop_
  _atom_site_type_symbol
  _atom_site_label
  _atom_site_symmetry_multiplicity
  _atom_site_fract_x
  _atom_site_fract_y
  _atom_site_fract_z
  _atom_site_occupancy
  Zn  Zn1       1.0  0.5891993281283447  0.1090564538499592  0.024679047928025027  1.0000
  Zn  Zn2       1.0  0.4108014466422674  0.8909434825991339  0.9753206788528741  1.0000
  Si  Si1       1.0  0.6103078750293776  0.2967553238455878  0.3794398675423166  1.0000
  Si  Si2       1.0  0.3896891835121679  0.7032436995158234  0.6205589416309891  1.0000
  H   H1        1.0  0.6690727241894548  0.9171929273715163  0.2502536059868988  1.0000
  H   H2        1.0  0.3309293074571613  0.0828079221652658  0.7497450508984969  1.0000
  H   H3        1.0  0.5010487750333468  0.9285544774377  0.3652731228930932  1.0000
  H   H4        1.0  0.49895325661326945  0.0714463720990821  0.6347263244436545  1.0000
  H   H5        1.0  0.5590061651666502  0.055774135071352794  0.2634209012383407  1.0000
  H   H6        1.0  0.4409958936794354  0.9442276275531112  0.7365776681283833  1.0000
  H   H7        1.0  0.643332083487209  0.7002295970671781  0.2434179065604525  1.0000
  H   H8        1.0  0.35667109623753396  0.2997685132065442  0.7565863541149368  1.0000
  H   H9        1.0  0.6100953372860544  0.7146837751229355  0.11010122029004779  1.0000
  H   H10       1.0  0.3899090721152234  0.2853143351507939  0.8899012675571711  1.0000
  H   H11       1.0  0.5121769685249689  0.5938822743790269  0.20647787480908866  1.0000
  H   H12       1.0  0.4878249815232394  0.4061158358947026  0.7935249968890828  1.0000
  H   H13       1.0  0.259918624019285  0.5461195706570833  0.3021922116398413  1.0000
  H   H14       1.0  0.7400784345222602  0.45387945270432783  0.6978160829496358  1.0000
  H   H15       1.0  0.0721714335369583  0.603534524298631  0.27697138380713676  1.0000
  H   H16       1.0  0.9278281659560577  0.3964672383258331  0.7230370548267044  1.0000
  H   H17       1.0  0.11214781825711378  0.6081857929667294  0.40705741809578194  1.0000
  H   H18       1.0  0.887855579063377  0.3918196220084766  0.5929485137842362  1.0000
  H   H19       1.0  0.9265099271302262  0.9452055444638958  0.3635212594359274  1.0000
  H   H20       1.0  0.073494591068922  0.0547962181605683  0.6364777165311892  1.0000
  H   H21       1.0  0.9644391576436179  0.8160346819980048  0.4489793607884565  1.0000
  H   H22       1.0  0.03555923937233979  0.18396799371414826  0.5510212777387123  1.0000
  H   H23       1.0  0.9020549497838103  0.794849221527407  0.3288760826667101  1.0000
  H   H24       1.0  0.0979458793857404  0.20515254109705688  0.6711250499795298  1.0000
  H   H25       1.0  0.0861236064036746  0.1025242245504785  0.280725315295669  1.0000
  H   H26       1.0  0.9138746002160048  0.89747205954788  0.719269612251459  1.0000
  H   H27       1.0  0.2774276435057956  0.1404876712355048  0.18535347945264383  1.0000
  H   H28       1.0  0.7225706175128151  0.8595104390382176  0.8146436444111699  1.0000
  H   H29       1.0  0.2673155232862428  0.1258992692900378  0.3257588594320069  1.0000
  H   H30       1.0  0.7326791303011789  0.8741015802467444  0.6742385776522041  1.0000
  H   H31       1.0  0.8265850409048667  0.22729491746168407  0.14717385692448912  1.0000
  H   H32       1.0  0.17341207203561737  0.7727059320750982  0.8528263581141573  1.0000
  H   H33       1.0  0.7189934632474574  0.311926275734173  0.966456060617453  1.0000
  H   H34       1.0  0.28100610904609613  0.6880745738026093  0.03354377057024041  1.0000
  H   H35       1.0  0.4025787940134863  0.3740792413739058  0.03032881417212248  1.0000
  H   H36       1.0  0.5974258601830015  0.625927086688982  0.969668143298918  1.0000
  H   H37       1.0  0.3409494430690643  0.3806699082852418  0.2453170124434223  1.0000
  H   H38       1.0  0.6590553199253009  0.6193400721283878  0.7546780140502135  1.0000
  H   H39       1.0  0.7202921827451192  0.0858813753134484  0.3982590185828697  1.0000
  H   H40       1.0  0.2797035373220211  0.9141139956972282  0.60173796123658  1.0000
  H   H41       1.0  0.7647746385253242  0.1745147969099037  0.49764048914760645  1.0000
  H   H42       1.0  0.23522231121835094  0.8254805741007728  0.5023570891977158  1.0000
  H   H43       1.0  0.8825300752453912  0.19756204317049955  0.3603996092520702  1.0000
  H   H44       1.0  0.11746687449828389  0.802433327840177  0.6395971786418997  1.0000
  H   H45       1.0  0.3087797229657028  0.3246474133635289  0.4546836643749187  1.0000
  H   H46       1.0  0.6912187284491864  0.6753570885239881  0.5453104755041094  1.0000
  H   H47       1.0  0.4068785950606327  0.2710309044921643  0.5597418119222366  1.0000
  H   H48       1.0  0.5931173426022625  0.7289717712199887  0.440254467747799  1.0000
  H   H49       1.0  0.3604950663522359  0.1683624120874327  0.4714509254895205  1.0000
  H   H50       1.0  0.6394983847581202  0.8316393505370313  0.5285442446474419  1.0000
  H   H51       1.0  0.8133915911000855  0.468611209416366  0.3514610893255323  1.0000
  H   H52       1.0  0.1866114526273108  0.5313823354189395  0.6485428184918901  1.0000
  H   H53       1.0  0.692627425006684  0.45234363921792203  0.48865680958566315  1.0000
  H   H54       1.0  0.3073718480927142  0.5476471663543235  0.51134635566153  1.0000
  H   H55       1.0  0.6097015911109054  0.5232585942842575  0.38147960209582976  1.0000
  H   H56       1.0  0.3903041023658389  0.4767413421648427  0.6185240996912567  1.0000
  H   H57       1.0  0.9245327836016698  0.883662521397838  0.9137117888086407  1.0000
  H   H58       1.0  0.0754653686190707  0.1163319365251496  0.08628963738662068  1.0000
  H   H59       1.0  0.7635645133087222  0.8645935981813934  0.03702535325410853  1.0000
  H   H60       1.0  0.23643249083389148  0.135403599004654  0.9629760023105971  1.0000
  H   H61       1.0  0.9555215722178829  0.2081830791240336  0.9350261943886123  1.0000
  H   H62       1.0  0.0444754319247309  0.7918141180620069  0.0649791134328339  1.0000
  H   H63       1.0  0.0375583837141207  0.0890954439651352  0.8530759461748261  1.0000
  H   H64       1.0  0.9624399861023674  0.9109063186593287  0.14692398941966903  1.0000
  C   C1        1.0  0.42836279452802023  0.9107693555065595  0.2132615440732621  1.0000
  C   C2        1.0  0.5716379258436532  0.0892287547671629  0.7867383577449942  1.0000
  C   C3        1.0  0.4076496139194176  0.771637619483485  0.23144468767598161  1.0000
  C   C4        1.0  0.5923560251583879  0.2283604907902443  0.7685544464403691  1.0000
  C   C5        1.0  0.2492647345620114  0.7424909474861606  0.2830537526862358  1.0000
  C   C6        1.0  0.75073106710353  0.2575071627875687  0.7169532404447023  1.0000
  C   C7        1.0  0.154927564860067  0.8560918387450585  0.3019632152874435  1.0000
  C   C8        1.0  0.8450782374145547  0.1439117500547766  0.6980369746195407  1.0000
  C   C9        1.0  0.254997747660724  0.9545153865015763  0.2602367970415145  1.0000
  C   C10       1.0  0.7450004589589482  0.04548089759678219  0.7397644541163898  1.0000
  C   C11       1.0  0.5466198884765987  0.9556521806695741  0.27722501499555813  1.0000
  C   C12       1.0  0.4533808862940205  0.04434775577951909  0.7227747117853411  1.0000
  C   C13       1.0  0.5487262721910612  0.6907133972126616  0.19682575881277128  1.0000
  C   C14       1.0  0.45127447538008875  0.30928562614874977  0.8031772172921947  1.0000
  C   C15       1.0  0.17068900550205512  0.6187940456926738  0.3189132741841902  1.0000
  C   C16       1.0  0.8293130533440305  0.3812077169317902  0.6810931996960148  1.0000
  C   C17       1.0  0.9787986465897944  0.8537835530770295  0.3630172308684294  1.0000
  C   C18       1.0  0.0212021553802941  0.1462172964597528  0.6369831988451365  1.0000
  C   C19       1.0  0.21878054947655556  0.08628222080722028  0.26289926850655115  1.0000
  C   C20       1.0  0.7812177659409939  0.913717715641873  0.7370976803199055  1.0000
  C   C21       1.0  0.5921628267513056  0.30125684613332027  0.23497575096605772  1.0000
  C   C22       1.0  0.40783682714064884  0.6987467426665147  0.7650222367629168  1.0000
  C   C23       1.0  0.7070077772155017  0.2656500787636347  0.14537063606264408  1.0000
  C   C24       1.0  0.2929918222775214  0.7343516838608294  0.8546275267036805  1.0000
  C   C25       1.0  0.6405393642636598  0.2837483897707784  0.04786952700587219  1.0000
  C   C26       1.0  0.3594577214773551  0.7162515466783148  0.9521291946487549  1.0000
  C   C27       1.0  0.48161568421121365  0.340953333244748  0.08357266111027428  1.0000
  C   C28       1.0  0.5183828216026142  0.6590529948181469  0.9164220941827493  1.0000
  C   C29       1.0  0.45348242331091637  0.34831829851307816  0.19454830451910957  1.0000
  C   C30       1.0  0.5465148528263839  0.6516880295498167  0.8054529663101702  1.0000
  C   C31       1.0  0.7580538238485488  0.17730062743726188  0.4116430448880664  1.0000
  C   C32       1.0  0.2419419234180609  0.8226956566610966  0.588353847412705  1.0000
  C   C33       1.0  0.4023548514151685  0.2620397300565998  0.47484386430436115  1.0000
  C   C34       1.0  0.5976410862477195  0.7379629456555534  0.5251524153656746  1.0000
  C   C35       1.0  0.6885603861624077  0.44943728111612546  0.4027959139221905  1.0000
  C   C36       1.0  0.3114415094868619  0.5505590029822329  0.5972063423619856  1.0000
  C   C37       1.0  0.8805928740758233  0.9117372284528072  0.9965526325435903  1.0000
  C   C38       1.0  0.1194053597433182  0.0882599687332331  0.0034485310956427037  1.0000
  C   C39       1.0  0.9915148588236278  0.1122696094139641  0.937392149326527  1.0000
  C   C40       1.0  0.008484631871517895  0.887728500859758  0.06260952531989969  1.0000
  O   O1        1.0  0.4896939188229439  0.9511753117493384  0.09887927532874125  1.0000
  O   O2        1.0  0.5103069103466068  0.0488264508751328  0.9011202764148079  1.0000
  O   O3        1.0  0.8447712129906365  0.0400224594150203  0.9877722110355761  1.0000
  O   O4        1.0  0.1552270208285123  0.95997473777102  0.012227371700959107  1.0000
