data_image0
_chemical_formula_structural       Zr6H66C88N14O32
_chemical_formula_sum              "Zr6 H66 C88 N14 O32"
_cell_length_a       19.071119427090114
_cell_length_b       19.065710958442224
_cell_length_c       19.068220081590702
_cell_angle_alpha    59.87028489866706
_cell_angle_beta     59.988454748897425
_cell_angle_gamma    59.99869691003427

_space_group_name_H-M_alt    "P 1"
_space_group_IT_number       1

loop_
  _space_group_symop_operation_xyz
  'x, y, z'

loop_
  _atom_site_type_symbol
  _atom_site_label
  _atom_site_symmetry_multiplicity
  _atom_site_fract_x
  _atom_site_fract_y
  _atom_site_fract_z
  _atom_site_occupancy
  Zr  Zr1       1.0  0.9078263609703116  0.4063233602471568  0.59277908956129  1.0000
  Zr  Zr2       1.0  0.09303696419682686  0.5922655191375127  0.40687750266697253  1.0000
  Zr  Zr3       1.0  0.09292612835325541  0.4066380339377106  0.5929181228752894  1.0000
  Zr  Zr4       1.0  0.9074912320720259  0.5923789191663786  0.40717607532798883  1.0000
  Zr  Zr5       1.0  0.9076902887664533  0.5920372824579659  0.59255404101075  1.0000
  Zr  Zr6       1.0  0.0930212576048178  0.40674154053829886  0.4072376774148124  1.0000
  H   H1        1.0  0.9278796574806876  0.42530534627882566  0.7191266205277099  1.0000
  H   H2        1.0  0.927639790857839  0.7186059969475593  0.4258502679453641  1.0000
  H   H3        1.0  0.21901480125627157  0.42662486381128434  0.4271278071268867  1.0000
  H   H4        1.0  0.927234485733351  0.42664440468483655  0.4270883499654871  1.0000
  H   H5        1.0  0.2890856548642234  0.632813094533816  0.14718290807388007  1.0000
  H   H6        1.0  0.6435361435378939  0.43491170126036144  0.7876277660449701  1.0000
  H   H7        1.0  0.7195835076874033  0.5622529810096284  0.8574669942202959  1.0000
  H   H8        1.0  0.59314198231705  0.5552913380751859  0.9931285217545986  1.0000
  H   H9        1.0  0.35972285426162653  0.3599540645134026  0.2180146698800981  1.0000
  H   H10       1.0  0.49562822488603336  0.35978472673623674  0.09203017754558127  1.0000
  H   H11       1.0  0.1337354219258909  0.7873811593625109  0.43518154734116615  1.0000
  H   H12       1.0  0.9308178969735366  0.1467609661270971  0.6331153703991816  1.0000
  H   H13       1.0  0.06208355310138106  0.21781587092313975  0.36024118909516284  1.0000
  H   H14       1.0  0.05220561536648922  0.09197176688086026  0.3599375469925831  1.0000
  H   H15       1.0  0.860511958583892  0.8571450982509249  0.5625647029710661  1.0000
  H   H16       1.0  0.8581655947903712  0.9929319008529448  0.5554220960365369  1.0000
  H   H17       1.0  0.28641064467435484  0.14259390176038525  0.4367643033373269  1.0000
  H   H18       1.0  0.6435457793003608  0.7852188300235455  0.6343371582870533  1.0000
  H   H19       1.0  0.7204566341792004  0.860464273974614  0.3599260886652544  1.0000
  H   H20       1.0  0.5949605589643955  0.9966929553916087  0.3587518624486634  1.0000
  H   H21       1.0  0.35992827242435493  0.21930962855434907  0.5603506444852115  1.0000
  H   H22       1.0  0.49633044927676917  0.09385526915286152  0.5510032809498994  1.0000
  H   H23       1.0  0.9370141370365273  0.633954894093989  0.7855496066891728  1.0000
  H   H24       1.0  0.1344849839882727  0.4365097068958478  0.14292820380277496  1.0000
  H   H25       1.0  0.8606352413314439  0.5600504262262548  0.21954106822308012  1.0000
  H   H26       1.0  0.8591662968232183  0.5507703142257655  0.09398011886256812  1.0000
  H   H27       1.0  0.05933762831524089  0.35955083053895015  0.860856930948891  1.0000
  H   H28       1.0  0.04999341342442415  0.35845385237514926  0.9969539548411316  1.0000
  H   H29       1.0  0.11429683483098772  0.8173994197994644  0.17774735980428594  1.0000
  H   H30       1.0  0.893970103949087  0.8143370859145662  0.17626536150240912  1.0000
  H   H31       1.0  0.8905415991737018  0.17715857185613293  0.8180244842302427  1.0000
  H   H32       1.0  0.11548260564893545  0.1755990615164793  0.8148649861054549  1.0000
  H   H33       1.0  0.2909627202951126  0.4288757972742375  0.6321962555815615  1.0000
  H   H34       1.0  0.6480162423627222  0.6316056719827473  0.42929338418766605  1.0000
  H   H35       1.0  0.7177503894437861  0.3594525464342911  0.5652015833663313  1.0000
  H   H36       1.0  0.592521095518876  0.35737242444605505  0.5562069339952346  1.0000
  H   H37       1.0  0.3576286194169426  0.5645213716914129  0.35999867331177876  1.0000
  H   H38       1.0  0.4939023317972367  0.5555317117397395  0.3579537474546725  1.0000
  H   H39       1.0  0.4669511156963607  0.6541910931710506  0.9464687015973609  1.0000
  H   H40       1.0  0.37192647747252044  0.7062366745901443  0.008535043231141601  1.0000
  H   H41       1.0  0.4532071782866537  0.4194607568403654  0.9773618086783599  1.0000
  H   H42       1.0  0.51841127966253  0.3928752652523787  0.8859628739023292  1.0000
  H   H43       1.0  0.14963787263101838  0.977281912711568  0.41957565295190574  1.0000
  H   H44       1.0  0.20247792576285656  0.8858586654732009  0.39301019460349096  1.0000
  H   H45       1.0  0.9320148238260373  0.946252043604126  0.6543225406461488  1.0000
  H   H46       1.0  0.9130310815458457  0.008231505896120067  0.7064118433821489  1.0000
  H   H47       1.0  0.477721219269405  0.9539673598739  0.4181971970428934  1.0000
  H   H48       1.0  0.3855217453895392  0.018243840709409737  0.3929463197934382  1.0000
  H   H49       1.0  0.4531717935485132  0.9753916303041803  0.6510001556439701  1.0000
  H   H50       1.0  0.5182571930548785  0.8836831912913539  0.7041320989743339  1.0000
  H   H51       1.0  0.920871290974361  0.6507788465307129  0.9754804435084025  1.0000
  H   H52       1.0  0.8942792933062548  0.7038277602761698  0.8838402463073222  1.0000
  H   H53       1.0  0.15044784718795504  0.4180717663404536  0.9541767073840217  1.0000
  H   H54       1.0  0.20362660059055313  0.392744917294486  0.018476111339012405  1.0000
  H   H55       1.0  0.4697601574702899  0.4308172201837976  0.6511840941721657  1.0000
  H   H56       1.0  0.37371418215502683  0.413924761694368  0.7037228535834926  1.0000
  H   H57       1.0  0.4481928218613474  0.6505941888879151  0.43145517998281946  1.0000
  H   H58       1.0  0.5085874771895716  0.7031318039818757  0.4145535652862051  1.0000
  H   H59       1.0  0.2034912077587449  0.11147531365369212  0.8650725439999146  1.0000
  H   H60       1.0  0.2559466544778389  0.022570451075822166  0.928408886604785  1.0000
  H   H61       1.0  0.18165343394860384  0.8883596638265557  0.13228267446250178  1.0000
  H   H62       1.0  0.2105925883048697  0.9756395297775526  0.06551133748262569  1.0000
  H   H63       1.0  0.7979220123532187  0.13152842193392916  0.8887011506742509  1.0000
  H   H64       1.0  0.7482393951506124  0.06507691054041964  0.976147270399579  1.0000
  H   H65       1.0  0.8201210496044665  0.8643303647425852  0.11185693767596652  1.0000
  H   H66       1.0  0.792960586490267  0.9280119269601455  0.02313325843945799  1.0000
  C   C1        1.0  0.7639597297901659  0.5007544772891493  0.734590591304986  1.0000
  C   C2        1.0  0.000586449430492797  0.7341807007578611  0.5012215075201992  1.0000
  C   C3        1.0  0.23534603363346915  0.49934187991905077  0.2636449478397437  1.0000
  C   C4        1.0  0.0016373154982147289  0.2632184016834032  0.4997311361779423  1.0000
  C   C5        1.0  0.002831230705709186  0.259816591071946  0.7333038458287076  1.0000
  C   C6        1.0  0.7637547069821053  0.4993799421995248  0.5020132908760004  1.0000
  C   C7        1.0  0.0040265639835723515  0.7327517860286791  0.26040969564997596  1.0000
  C   C8        1.0  0.23477421938732593  0.5015004540568598  0.49996255641049453  1.0000
  C   C9        1.0  0.0020289782535768625  0.4995956960446719  0.734682783750358  1.0000
  C   C10       1.0  0.23460204426287842  0.26261515697502363  0.5022852200188481  1.0000
  C   C11       1.0  0.0005784042049725041  0.5018625017125445  0.2630776694557325  1.0000
  C   C12       1.0  0.7636930536822176  0.7342011527481557  0.5000791110024422  1.0000
  C   C13       1.0  0.31611113096253257  0.49726802851435536  0.18839496541838932  1.0000
  C   C14       1.0  0.6881780569741591  0.4987968277833447  0.8150104768510146  1.0000
  C   C15       1.0  0.33439646885449975  0.5734438493011352  0.13333650182964618  1.0000
  C   C16       1.0  0.4083869308186578  0.5750285121101227  0.060113619191952114  1.0000
  C   C17       1.0  0.6312791616532536  0.4616808410697077  0.8331802728869488  1.0000
  C   C18       1.0  0.5576317159462076  0.4613031865046936  0.9068428211822519  1.0000
  C   C19       1.0  0.6742966550738528  0.5341294191856821  0.8718911106118554  1.0000
  C   C20       1.0  0.6033865905466412  0.5307287689918284  0.9467496200554846  1.0000
  C   C21       1.0  0.3736482629414298  0.4194474603140109  0.17353936333277883  1.0000
  C   C22       1.0  0.4484829495621057  0.4202141484770933  0.10270997888062545  1.0000
  C   C23       1.0  0.4667607350804983  0.4966380687198537  0.04403047426495021  1.0000
  C   C24       1.0  0.5437464282345773  0.49577265633469386  0.9656136283006658  1.0000
  C   C25       1.0  0.9978311452207862  0.8147111689192174  0.4991160612636704  1.0000
  C   C26       1.0  0.9980554330013052  0.1880868619931918  0.49756593186254594  1.0000
  C   C27       1.0  0.07365294283388825  0.8329458838004413  0.4619067553771785  1.0000
  C   C28       1.0  0.0739579868696506  0.9066846293371499  0.46144232349642067  1.0000
  C   C29       1.0  0.9586521867098837  0.13299776359581741  0.5737097974679913  1.0000
  C   C30       1.0  0.9562079270165073  0.05986046179589992  0.5752175793904468  1.0000
  C   C31       1.0  0.033105865596716834  0.17333466305840525  0.4197048950935382  1.0000
  C   C32       1.0  0.02827439378722113  0.1025754796687438  0.4203987878421456  1.0000
  C   C33       1.0  0.9194764306929525  0.8716373247238353  0.5343601994490328  1.0000
  C   C34       1.0  0.9188771352965404  0.9465671969560747  0.5308689196698354  1.0000
  C   C35       1.0  0.9945858075764848  0.9654534719903438  0.4958866352654212  1.0000
  C   C36       1.0  0.9922581761957686  0.0438658234771625  0.49678208982548716  1.0000
  C   C37       1.0  0.315286042696556  0.18714852696962944  0.49950324124642254  1.0000
  C   C38       1.0  0.6882198077430033  0.8148949381103351  0.4978766624397437  1.0000
  C   C39       1.0  0.3326787721359423  0.13042144237522293  0.4626615093670949  1.0000
  C   C40       1.0  0.40666282789131697  0.057117335845973234  0.4613364401361791  1.0000
  C   C41       1.0  0.6313637869266271  0.8317910877428575  0.574303076266105  1.0000
  C   C42       1.0  0.5578237682272018  0.9056020857798402  0.5752019263858726  1.0000
  C   C43       1.0  0.6748817058939731  0.8735182853145602  0.41945574201569275  1.0000
  C   C44       1.0  0.60418005549527  0.9485652475763332  0.419613247752345  1.0000
  C   C45       1.0  0.3734655495823346  0.173791124122836  0.5330332096061525  1.0000
  C   C46       1.0  0.4486049245198629  0.10320617101492509  0.52857333438088  1.0000
  C   C47       1.0  0.4663154009829569  0.04336465355262935  0.49459543986814214  1.0000
  C   C48       1.0  0.5441262442693426  0.9656958667760378  0.4959601948357458  1.0000
  C   C49       1.0  0.999144311771836  0.49748800539017435  0.8152731705838149  1.0000
  C   C50       1.0  0.998283246720817  0.4991923778583852  0.1874759625602919  1.0000
  C   C51       1.0  0.962719512298257  0.573940612760744  0.8321032884202991  1.0000
  C   C52       1.0  0.961696899419522  0.5748966910759422  0.9058149555264237  1.0000
  C   C53       1.0  0.07450313337143642  0.462410757946607  0.13072904553715864  1.0000
  C   C54       1.0  0.07521041244411446  0.46111864289792953  0.0573758551503474  1.0000
  C   C55       1.0  0.9199656515042917  0.5327457305840185  0.17404196332657318  1.0000
  C   C56       1.0  0.9199370156745844  0.5283206988980993  0.10340527577973553  1.0000
  C   C57       1.0  0.03236731486832408  0.41909961892151415  0.8738743214824393  1.0000
  C   C58       1.0  0.027981903525116515  0.4192992687047266  0.9488413483916103  1.0000
  C   C59       1.0  0.9945871568362535  0.49567810826936687  0.9659163759241592  1.0000
  C   C60       1.0  0.9960813184184047  0.4943625569527795  0.04357621083414652  1.0000
  C   C61       1.0  0.06655203877565417  0.8486756070274737  0.14636030049390303  1.0000
  C   C62       1.0  0.06737956943486988  0.9227904539989422  0.07301541307649731  1.0000
  C   C63       1.0  0.13100969826404443  0.962613602330428  0.03513315703184361  1.0000
  C   C64       1.0  0.9409228932770616  0.8466615203358147  0.14510605653834563  1.0000
  C   C65       1.0  0.9386060574770383  0.9209850152894389  0.0720392891050777  1.0000
  C   C66       1.0  0.8737169237472456  0.9594553384441935  0.033611848849972065  1.0000
  C   C67       1.0  0.9384037375897734  0.14576707975140857  0.8492882088093264  1.0000
  C   C68       1.0  0.9368022583211727  0.07243670604564317  0.9233997693780082  1.0000
  C   C69       1.0  0.8712560512352138  0.034521672277300484  0.9632012078871383  1.0000
  C   C70       1.0  0.06734348453375807  0.14445783862899494  0.8472198399456656  1.0000
  C   C71       1.0  0.06838747258988305  0.0714207397090335  0.9215739564531871  1.0000
  C   C72       1.0  0.13321550867060966  0.03301612155825512  0.9600699560779089  1.0000
  C   C73       1.0  0.004109911505153505  0.8110134767303805  0.1818379314768278  1.0000
  C   C74       1.0  0.002806111220806161  0.9597874624678299  0.03478712165060221  1.0000
  C   C75       1.0  0.0030669927528279147  0.1812210601112697  0.8115688064439864  1.0000
  C   C76       1.0  0.00261913104439776  0.03418943655198352  0.9604002332182019  1.0000
  C   C77       1.0  0.3160429501663344  0.49796511128947435  0.4970189606865104  1.0000
  C   C78       1.0  0.6889606553488362  0.49643857168776145  0.49849491451704614  1.0000
  C   C79       1.0  0.3356627671099872  0.4575504693783472  0.5725217865500409  1.0000
  C   C80       1.0  0.4101725024083932  0.4551710545352066  0.5730134600212293  1.0000
  C   C81       1.0  0.6342934891568814  0.5719254536621179  0.45802572356938487  1.0000
  C   C82       1.0  0.5616299753583645  0.572427425178397  0.45570795365244987  1.0000
  C   C83       1.0  0.6739730976983436  0.4183661321525208  0.5348706305292196  1.0000
  C   C84       1.0  0.603757890950085  0.41793083770481604  0.530140074786516  1.0000
  C   C85       1.0  0.37276075702553885  0.5342597790543239  0.41893590193922847  1.0000
  C   C86       1.0  0.4481481630402227  0.5295096830987518  0.41852038073344733  1.0000
  C   C87       1.0  0.46808125060859146  0.49191991131445434  0.49420699151034614  1.0000
  C   C88       1.0  0.5457502999478834  0.4936242868894352  0.4925068831396828  1.0000
  N   N1        1.0  0.42396591055733507  0.6522051723236117  0.006389334737931964  1.0000
  N   N2        1.0  0.4978584541080195  0.43219801431806126  0.9182762745588061  1.0000
  N   N3        1.0  0.15137364260253608  0.9181834035053242  0.4323027405750182  1.0000
  N   N4        1.0  0.9171365498245974  0.0061425543285765815  0.652363867536337  1.0000
  N   N5        1.0  0.41811477227718535  0.9974378840797442  0.4321736114755481  1.0000
  N   N6        1.0  0.4980116811823475  0.9164100723309119  0.6527098293996542  1.0000
  N   N7        1.0  0.933265919386201  0.6524384058940811  0.9165331382693719  1.0000
  N   N8        1.0  0.1526092014483282  0.43199751640047174  0.9976832843261288  1.0000
  N   N9        1.0  0.4262986187130977  0.4158011271739641  0.650051181237238  1.0000
  N   N10       1.0  0.5078166120292238  0.649477042496038  0.4163605457950155  1.0000
  N   N11       1.0  0.19779202039555335  0.06815197238227476  0.9254713454744348  1.0000
  N   N12       1.0  0.1952279312627566  0.928816210260983  0.07054041675008448  1.0000
  N   N13       1.0  0.8054644393185697  0.0698834287211059  0.9293695449402007  1.0000
  N   N14       1.0  0.8086301203382004  0.9248278529123652  0.0687277363634567  1.0000
  O   O1        1.0  0.792087302991781  0.44346935302910856  0.7018390669594297  1.0000
  O   O2        1.0  0.0625145439629621  0.7013665211579576  0.44397684890807193  1.0000
  O   O3        1.0  0.2018223658965112  0.5614430265997044  0.2916712152235092  1.0000
  O   O4        1.0  0.9450933338814522  0.2911595372953214  0.5619041021440622  1.0000
  O   O5        1.0  0.06265268394153596  0.29044196940603245  0.7020880839080164  1.0000
  O   O6        1.0  0.7915486484919114  0.5618750857944406  0.4453988813318403  1.0000
  O   O7        1.0  0.9448445016864538  0.7014939420389793  0.2909792109672652  1.0000
  O   O8        1.0  0.20105840451105186  0.44493023678074917  0.5624776433388803  1.0000
  O   O9        1.0  0.945438633697499  0.561766167633472  0.7009718034342213  1.0000
  O   O10       1.0  0.2009597514037508  0.2904475349199559  0.445731284939768  1.0000
  O   O11       1.0  0.06291101549647485  0.4452807518320654  0.29095301034719506  1.0000
  O   O12       1.0  0.7917899035193302  0.7004352790102146  0.5622872399772588  1.0000
  O   O13       1.0  0.2057590717076821  0.2944806784205695  0.5605270782956779  1.0000
  O   O14       1.0  0.9392478946946595  0.5600331094260087  0.2949935617885444  1.0000
  O   O15       1.0  0.7952618478689998  0.7053942111929319  0.4388474182607708  1.0000
  O   O16       1.0  0.060456210903566766  0.4383181304457509  0.7059303767141285  1.0000
  O   O17       1.0  0.9418601881178219  0.29187111377540736  0.7038533379182323  1.0000
  O   O18       1.0  0.20550531475122824  0.5603231062829864  0.43894565707865496  1.0000
  O   O19       1.0  0.06237443417671061  0.7033271768940567  0.2924756670655881  1.0000
  O   O20       1.0  0.7952272733208118  0.4383760662112763  0.5608359797960817  1.0000
  O   O21       1.0  0.06039148256108719  0.29469141903803836  0.4386772155459224  1.0000
  O   O22       1.0  0.7956837208462558  0.5593966529472784  0.7050117379083645  1.0000
  O   O23       1.0  0.939829621303886  0.7045775417300251  0.5599103733214293  1.0000
  O   O24       1.0  0.2062344196603263  0.4382292472497014  0.29515097008120955  1.0000
  O   O25       1.0  0.9480305662230322  0.44736579460141035  0.4478059320942123  1.0000
  O   O26       1.0  0.15678327986042703  0.4473093348252633  0.44788146732423667  1.0000
  O   O27       1.0  0.9483279667025143  0.6562834291668338  0.4470877762781384  1.0000
  O   O28       1.0  0.948268668988298  0.4465375739839105  0.65680779744131  1.0000
  O   O29       1.0  0.03874009513362594  0.537884341850507  0.5383055622713753  1.0000
  O   O30       1.0  0.8850607079738563  0.5377568110122012  0.5384076117699053  1.0000
  O   O31       1.0  0.038725184396262935  0.53804281436355  0.38432455363213336  1.0000
  O   O32       1.0  0.03891677193327333  0.38380481843513087  0.5385410873979594  1.0000
