data_image0
_chemical_formula_structural       Cu2H30C40N14O12
_chemical_formula_sum              "Cu2 H30 C40 N14 O12"
_cell_length_a       7.541932513479133
_cell_length_b       11.670999604159306
_cell_length_c       12.293130281907974
_cell_angle_alpha    75.33651182493091
_cell_angle_beta     72.77955957489804
_cell_angle_gamma    84.36104671868802

_space_group_name_H-M_alt    "P 1"
_space_group_IT_number       1

loop_
  _space_group_symop_operation_xyz
  'x, y, z'

loop_
  _atom_site_type_symbol
  _atom_site_label
  _atom_site_symmetry_multiplicity
  _atom_site_fract_x
  _atom_site_fract_y
  _atom_site_fract_z
  _atom_site_occupancy
  Cu  Cu1       1.0  0.5000097556012193  0.49999471915099053  7.213983295182776e-07  1.0000
  Cu  Cu2       1.0  0.4999951405528051  0.999997629241712  0.5000027068875851  1.0000
  H   H1        1.0  0.8204201827797207  0.30412248363750655  0.6471752523099211  1.0000
  H   H2        1.0  0.1795707052976425  0.6958896462310309  0.35282379729575547  1.0000
  H   H3        1.0  0.7502411326259236  0.5073423121954905  0.6745896611956893  1.0000
  H   H4        1.0  0.24975808050781725  0.49267245455149594  0.32540323530994186  1.0000
  H   H5        1.0  0.6844788162637911  0.6687975131175323  0.5115767793496174  1.0000
  H   H6        1.0  0.3155234121472433  0.33121372177836866  0.4884091054392029  1.0000
  H   H7        1.0  0.6981453790954574  0.6228879064319558  0.3232217670900894  1.0000
  H   H8        1.0  0.30185289463743453  0.3771162578921548  0.6767664896791885  1.0000
  H   H9        1.0  0.7974152475284342  0.32863528066815934  0.2520281483408837  1.0000
  H   H10       1.0  0.20259826152980057  0.6713634727356139  0.7479692977818075  1.0000
  H   H11       1.0  0.6620896040922516  0.46265161201606747  0.22821534917579095  1.0000
  H   H12       1.0  0.33792267322198194  0.537345393144996  0.7717770333585605  1.0000
  H   H13       1.0  0.7739219829302827  0.16134889520125742  0.5471999162336586  1.0000
  H   H14       1.0  0.22608159474646072  0.8386560939848169  0.45279941754282754  1.0000
  H   H15       1.0  0.7890412978769348  0.19652350939374236  0.3958127378885407  1.0000
  H   H16       1.0  0.2109609292091648  0.8034797109860252  0.6041880661220701  1.0000
  H   H17       1.0  0.17512034763802828  0.7077202449402339  0.015204795414312843  1.0000
  H   H18       1.0  0.8249000958287523  0.2922766981757833  0.9847951188571996  1.0000
  H   H19       1.0  0.14775521425499963  0.3389441228429251  0.14838528324839473  1.0000
  H   H20       1.0  0.8522514436944421  0.6610511124037332  0.851615012749093  1.0000
  H   H21       1.0  0.44662074572247695  0.19323976341473784  0.264918968528093  1.0000
  H   H22       1.0  0.5533817474436232  0.806755488716974  0.7350820536037544  1.0000
  H   H23       1.0  0.0659368892180439  0.06894585237306933  0.596341909561005  1.0000
  H   H24       1.0  0.9340611240069238  0.9310600478289649  0.40365736993606277  1.0000
  H   H25       1.0  0.5347932908806926  0.7855913125859505  0.24812402761195773  1.0000
  H   H26       1.0  0.46519798424689185  0.21440574615498792  0.7518817863278995  1.0000
  H   H27       1.0  0.8212871003328885  0.10663572355534971  0.048229442942954386  1.0000
  H   H28       1.0  0.17870000205254402  0.8933631316461973  0.9517742354863188  1.0000
  H   H29       1.0  0.697358929753719  0.8621913407421716  0.8714619788175425  1.0000
  H   H30       1.0  0.3026379886150892  0.1378021491864843  0.1285445065940252  1.0000
  C   C1        1.0  0.7707851184794166  0.43888046558878113  0.3765719230033682  1.0000
  C   C2        1.0  0.22921168581619616  0.5611219093654258  0.6234243378224987  1.0000
  C   C3        1.0  0.8028787060913699  0.34755901356383134  0.4690595264229315  1.0000
  C   C4        1.0  0.19712075136952484  0.6524460002186461  0.5309380833044982  1.0000
  C   C5        1.0  0.795222163087395  0.3745072200455724  0.5753502222210115  1.0000
  C   C6        1.0  0.20477432260190648  0.6255048950209033  0.42464540902209785  1.0000
  C   C7        1.0  0.7564424341780054  0.4892907951066833  0.5908968843049605  1.0000
  C   C8        1.0  0.24355544666943268  0.5107230964774488  0.40909482652060086  1.0000
  C   C9        1.0  0.720287373774603  0.5789480007981072  0.5001574804490262  1.0000
  C   C10       1.0  0.27971208607301185  0.42106146577894793  0.49983175007432823  1.0000
  C   C11       1.0  0.726901597136006  0.5535758725249239  0.39437413798423654  1.0000
  C   C12       1.0  0.2730966617410573  0.44642828922874156  0.6056149355128538  1.0000
  C   C13       1.0  0.7837783435706669  0.42185941620557815  0.25627886158480345  1.0000
  C   C14       1.0  0.21623096648227144  0.5781420195909208  0.7437162432965393  1.0000
  C   C15       1.0  0.8405110377168796  0.21949793891367622  0.4620963941961875  1.0000
  C   C16       1.0  0.15949249884088346  0.7805079336340558  0.5379035505773544  1.0000
  C   C17       1.0  0.12223080249204803  0.6205764097653487  0.06130085647120613  1.0000
  C   C18       1.0  0.8777854533767525  0.3794223272408246  0.9386977390175344  1.0000
  C   C19       1.0  0.113247927642341  0.4323150720922161  0.12579393633713915  1.0000
  C   C20       1.0  0.8867628277083098  0.5676819155631495  0.8742060387922663  1.0000
  C   C21       1.0  0.3194695032506801  0.17814847152958896  0.33636461217470526  1.0000
  C   C22       1.0  0.680532948796447  0.8218476639637732  0.6636370209541838  1.0000
  C   C23       1.0  0.12977100232134833  0.11280157543984616  0.5055820921906927  1.0000
  C   C24       1.0  0.8702284665468624  0.8872025498400761  0.4944165399953063  1.0000
  C   C25       1.0  0.6105167853188789  0.810405837590132  0.06091313803006664  1.0000
  C   C26       1.0  0.3894758929256525  0.18959121809290747  0.939091617137194  1.0000
  C   C27       1.0  0.6006920132714413  0.8438720836147912  0.16405637171936854  1.0000
  C   C28       1.0  0.3992937385233546  0.15612500278044913  0.8359487769440221  1.0000
  C   C29       1.0  0.6744352794974944  0.9509160306338277  0.15984998073005832  1.0000
  C   C30       1.0  0.32555184915108987  0.049081938635616516  0.8401539034299716  1.0000
  C   C31       1.0  0.7608488818022252  0.024574433148480106  0.05168477262356669  1.0000
  C   C32       1.0  0.23912983504172305  0.975425336614386  0.9483217857992797  1.0000
  C   C33       1.0  0.7650455750565044  0.9911348340814785  0.9498271870205458  1.0000
  C   C34       1.0  0.2349527236145974  0.008860429794388804  0.0501761947012795  1.0000
  C   C35       1.0  0.690800182550966  0.8855405409901567  0.9526263145164859  1.0000
  C   C36       1.0  0.3091937229272617  0.11446093358415514  0.04737880340779551  1.0000
  C   C37       1.0  0.5403382398181761  0.6922865098825356  0.06700773260827479  1.0000
  C   C38       1.0  0.45967252004277276  0.30770780712426676  0.9329969433524565  1.0000
  C   C39       1.0  0.6579278236865138  0.9901229733021852  0.27018935525529025  1.0000
  C   C40       1.0  0.34206358965384  0.009871437924232403  0.7298138089656163  1.0000
  N   N1        1.0  0.9467765824495942  0.48095412851451874  0.16807394707047515  1.0000
  N   N2        1.0  0.05323548582123292  0.5190464023818182  0.8319233296354794  1.0000
  N   N3        1.0  0.9493714810967971  0.6012265331541474  0.12749538249138226  1.0000
  N   N4        1.0  0.05064607734664861  0.398773073873983  0.8725060321330387  1.0000
  N   N5        1.0  0.22855648323989902  0.5188473841814769  0.05730271677252572  1.0000
  N   N6        1.0  0.7714584711160554  0.4811469210811696  0.9426995995982278  1.0000
  N   N7        1.0  0.0388791625177802  0.1857833314541679  0.43559497032735084  1.0000
  N   N8        1.0  0.961125777156923  0.8142225380356652  0.564403915673587  1.0000
  N   N9        1.0  0.1571596046141792  0.22833434223404944  0.3281178514307682  1.0000
  N   N10       1.0  0.8428468694932222  0.7716670945373497  0.6718810044513859  1.0000
  N   N11       1.0  0.30850290113003354  0.10551219652078458  0.4444459981096287  1.0000
  N   N12       1.0  0.6914953336074561  0.8944857277218505  0.555555949692099  1.0000
  N   N13       1.0  0.8463200133807263  0.06956611149325913  0.8352576602133792  1.0000
  N   N14       1.0  0.15366863829323313  0.930428313560306  0.16474517136929723  1.0000
  O   O1        1.0  0.5319042588659572  0.6755798397679913  0.967831329092121  1.0000
  O   O2        1.0  0.46810516181167117  0.32441181992994933  0.032175839561297444  1.0000
  O   O3        1.0  0.49920760112853907  0.6170269872081494  0.1622120017621284  1.0000
  O   O4        1.0  0.5007935082867547  0.38296559990335066  0.8377939632458364  1.0000
  O   O5        1.0  0.548877231212849  0.9271208316687167  0.36415030632856826  1.0000
  O   O6        1.0  0.4511100550146309  0.07287182200809643  0.6358548122160315  1.0000
  O   O7        1.0  0.7418208318986856  0.07952545808525713  0.2661631160611718  1.0000
  O   O8        1.0  0.2581679179308481  0.920463641093882  0.733844216817303  1.0000
  O   O9        1.0  0.9272654427331162  0.15875968759906567  0.8310540307671771  1.0000
  O   O10       1.0  0.07272589181778949  0.8412373814236677  0.16894851626145166  1.0000
  O   O11       1.0  0.8283856578247325  0.04281093958100259  0.7471616334937748  1.0000
  O   O12       1.0  0.17159867944580037  0.9571870383746915  0.25284355148364307  1.0000
