data_image0
_chemical_formula_structural       Sr4H12C12O28
_chemical_formula_sum              "Sr4 H12 C12 O28"
_cell_length_a       5.7313092101438246
_cell_length_b       6.408390315303933
_cell_length_c       17.016886449008656
_cell_angle_alpha    89.99988563509343
_cell_angle_beta     90.0000044002859
_cell_angle_gamma    97.87324016770678

_space_group_name_H-M_alt    "P 1"
_space_group_IT_number       1

loop_
  _space_group_symop_operation_xyz
  'x, y, z'

loop_
  _atom_site_type_symbol
  _atom_site_label
  _atom_site_symmetry_multiplicity
  _atom_site_fract_x
  _atom_site_fract_y
  _atom_site_fract_z
  _atom_site_occupancy
  Sr  Sr1       1.0  0.7327796717413904  0.8785233272402238  0.4195441097631019  1.0000
  Sr  Sr2       1.0  0.7672171492913336  0.6214783594567878  0.9195440162746706  1.0000
  Sr  Sr3       1.0  0.267218767078667  0.12147750971417542  0.5804551424499567  1.0000
  Sr  Sr4       1.0  0.23278327015138703  0.37852405849476867  0.08045641124094523  1.0000
  H   H1        1.0  0.4672613393886138  0.717102122407596  0.5701798334881901  1.0000
  H   H2        1.0  0.032737123568438234  0.7828978492088653  0.0701794090006445  1.0000
  H   H3        1.0  0.5327353537664976  0.28289870883676127  0.42982059402800143  1.0000
  H   H4        1.0  0.9672630609161673  0.2171029934508297  0.929820430863991  1.0000
  H   H5        1.0  0.6949840028874804  0.8696590756886027  0.6052696279463987  1.0000
  H   H6        1.0  0.8050174894615623  0.6303395979994593  0.10527049478675113  1.0000
  H   H7        1.0  0.30501594663874704  0.1303401916760549  0.3947307995703895  1.0000
  H   H8        1.0  0.19498269502278737  0.36966124465705963  0.8947305203810245  1.0000
  H   H9        1.0  0.9919989060450121  0.6422964979217908  0.25497707858779967  1.0000
  H   H10       1.0  0.5080042656612491  0.8577013736905741  0.7549762191274638  1.0000
  H   H11       1.0  0.008000808522837114  0.3577011941478291  0.7450239365811415  1.0000
  H   H12       1.0  0.4919974295297891  0.142297899382541  0.24502362073776143  1.0000
  C   C1        1.0  0.5753587511010637  0.6327532412912973  0.23838826432677965  1.0000
  C   C2        1.0  0.9246404667068049  0.867241557829871  0.7383874011775122  1.0000
  C   C3        1.0  0.42464096346679275  0.3672444507783225  0.7616127508421615  1.0000
  C   C4        1.0  0.07536122848436828  0.13275771524482852  0.2616118510361504  1.0000
  C   C5        1.0  0.09381116398962773  0.585106038861703  0.5184665432143305  1.0000
  C   C6        1.0  0.4061895374531375  0.9148973680803182  0.0184666110005693  1.0000
  C   C7        1.0  0.9061857641237339  0.4148963676761071  0.48153388430127114  1.0000
  C   C8        1.0  0.5938126276543941  0.08510505557970302  0.9815332288634835  1.0000
  C   C9        1.0  0.3365835065803608  0.6529609568714748  0.2792176990844198  1.0000
  C   C10       1.0  0.16341812016153776  0.8470363229442271  0.7792174365085458  1.0000
  C   C11       1.0  0.6634166779038537  0.3470398857834596  0.7207839037349191  1.0000
  C   C12       1.0  0.8365818293648247  0.1529629444220078  0.22078240335667945  1.0000
  O   O1        1.0  0.15623739830398622  0.6187758585993636  0.23065594848672796  1.0000
  O   O2        1.0  0.34376646552813384  0.8812248395414815  0.7306544865933163  1.0000
  O   O3        1.0  0.843762316263998  0.38122183347184097  0.7693444790306502  1.0000
  O   O4        1.0  0.6562352296630394  0.1187744335332184  0.26934476562034604  1.0000
  O   O5        1.0  0.7561827736935173  0.6758044929505262  0.28199258299449076  1.0000
  O   O6        1.0  0.7438226016288355  0.8241963891923876  0.7819893998587091  1.0000
  O   O7        1.0  0.2438169408743392  0.3241931991190868  0.7180084321744502  1.0000
  O   O8        1.0  0.25618130914350706  0.17580604017609158  0.2180098523537808  1.0000
  O   O9        1.0  0.5698681639645075  0.8571152941547735  0.5643978779209321  1.0000
  O   O10       1.0  0.9301300901164354  0.6428851639508224  0.06439756113106652  1.0000
  O   O11       1.0  0.4301302748552871  0.14288554279645643  0.4356025495952594  1.0000
  O   O12       1.0  0.0698718400325902  0.35711568441257663  0.9356034540367091  1.0000
  O   O13       1.0  0.0683623283350556  0.7764489364449361  0.5082383962166405  1.0000
  O   O14       1.0  0.43163767276315207  0.7235497998050917  0.008238606926582303  1.0000
  O   O15       1.0  0.9316376211914345  0.2235503309228903  0.49176085599701486  1.0000
  O   O16       1.0  0.5683627466796963  0.2764526181480563  0.9917612329374637  1.0000
  O   O17       1.0  0.571148140749287  0.5791963590297726  0.16740115020087393  1.0000
  O   O18       1.0  0.928858091159427  0.9207988459587855  0.6673967212314551  1.0000
  O   O19       1.0  0.42885355444162343  0.4208029140417509  0.8325992773159215  1.0000
  O   O20       1.0  0.07114313411550909  0.07919727653218442  0.3326013556802394  1.0000
  O   O21       1.0  0.25960074810859624  0.5182566726738644  0.5562026142491804  1.0000
  O   O22       1.0  0.24039993662013615  0.981746530651485  0.05620321846366491  1.0000
  O   O23       1.0  0.7403959450463804  0.48174415856890823  0.4437984009185812  1.0000
  O   O24       1.0  0.7596007177813534  0.018257462599869708  0.9437948584450953  1.0000
  O   O25       1.0  0.3276582628047038  0.6987675965715  0.3493527212732986  1.0000
  O   O26       1.0  0.172340311460907  0.8012324439910401  0.8493501423283052  1.0000
  O   O27       1.0  0.6723449430931652  0.3012301069197961  0.6506453556378133  1.0000
  O   O28       1.0  0.8276601079822046  0.1987699739652768  0.15064852223260772  1.0000
