data_image0
_chemical_formula_structural       Zn4H56C84N16O24
_chemical_formula_sum              "Zn4 H56 C84 N16 O24"
_cell_length_a       8.701499698045787
_cell_length_b       10.337726267617077
_cell_length_c       27.04515053000123
_cell_angle_alpha    89.99996732234618
_cell_angle_beta     90.00001413845783
_cell_angle_gamma    95.58072771250566

_space_group_name_H-M_alt    "P 1"
_space_group_IT_number       1

loop_
  _space_group_symop_operation_xyz
  'x, y, z'

loop_
  _atom_site_type_symbol
  _atom_site_label
  _atom_site_symmetry_multiplicity
  _atom_site_fract_x
  _atom_site_fract_y
  _atom_site_fract_z
  _atom_site_occupancy
  Zn  Zn1       1.0  0.308622349401027  0.42782204463708223  0.4328542767202777  1.0000
  Zn  Zn2       1.0  0.19137899068038422  0.5721784403896419  0.9328544314464083  1.0000
  Zn  Zn3       1.0  0.6913800302895367  0.5721771579100333  0.5671452647134032  1.0000
  Zn  Zn4       1.0  0.8086213131211509  0.42782270447470677  0.0671458494910908  1.0000
  H   H1        1.0  0.9473668908466095  0.3437501481989003  0.5781731547631068  1.0000
  H   H2        1.0  0.5526334212561892  0.6562506694063187  0.07817293004819702  1.0000
  H   H3        1.0  0.052634450899333274  0.6562500255070984  0.42182638667042494  1.0000
  H   H4        1.0  0.44736792048996676  0.34374950429914003  0.9218273508894514  1.0000
  H   H5        1.0  0.9959711414078853  0.2938848280175605  0.4890111514488211  1.0000
  H   H6        1.0  0.5040281572634911  0.7061144230737424  0.9890112621872478  1.0000
  H   H7        1.0  0.004028939649202792  0.7061143729728983  0.5109883899847674  1.0000
  H   H8        1.0  0.4959730731104486  0.2938847786947747  0.0109886489984419  1.0000
  H   H9        1.0  0.3636976839652348  0.6633257736490563  0.6128647137299694  1.0000
  H   H10       1.0  0.1363032407905536  0.33667322999500016  0.1128649349451933  1.0000
  H   H11       1.0  0.6363025084640695  0.33667439927835113  0.38713519745557085  1.0000
  H   H12       1.0  0.8636968402667549  0.6633259709949256  0.8871353459925048  1.0000
  H   H13       1.0  0.3526949309749127  0.5771744951579691  0.5327527633144129  1.0000
  H   H14       1.0  0.1473037583055401  0.42282559465438396  0.0327540759073983  1.0000
  H   H15       1.0  0.6473052614540649  0.4228256777702341  0.46724603861496666  1.0000
  H   H16       1.0  0.8526952848073605  0.5771745774938919  0.9672469445342673  1.0000
  H   H17       1.0  0.417231748619308  0.7170485821439596  0.6990394938127621  1.0000
  H   H18       1.0  0.08276933937172969  0.2829512688859666  0.19903972247997362  1.0000
  H   H19       1.0  0.5827684438100036  0.2829515907834476  0.300960417372778  1.0000
  H   H20       1.0  0.9172308530576886  0.7170489040411708  0.800960558457625  1.0000
  H   H21       1.0  0.06188681769587129  0.41832485505374695  0.7442420707854256  1.0000
  H   H22       1.0  0.43811084954972296  0.5816749283078619  0.24424300208720243  1.0000
  H   H23       1.0  0.9381109647275139  0.5816743443805948  0.25575673114396125  1.0000
  H   H24       1.0  0.5618880821909612  0.41832427190346516  0.7557576486025113  1.0000
  H   H25       1.0  0.008686858567536095  0.3640376215658989  0.6574483258363629  1.0000
  H   H26       1.0  0.4913142043927365  0.6359622895763906  0.1574496192889399  1.0000
  H   H27       1.0  0.9913142604339525  0.6359606082662166  0.3425504760932654  1.0000
  H   H28       1.0  0.508687025981537  0.36403691219133083  0.8425514011529245  1.0000
  H   H29       1.0  0.2543778100186813  0.9224551887929164  0.42825080765609164  1.0000
  H   H30       1.0  0.24562030208623753  0.07754724442671798  0.9282510743281023  1.0000
  H   H31       1.0  0.74562249378274  0.07754595607170238  0.5717491035293563  1.0000
  H   H32       1.0  0.7543778144538179  0.9224548708184555  0.0717488368571466  1.0000
  H   H33       1.0  0.6880542294291345  0.7541085081356937  0.4236411442729989  1.0000
  H   H34       1.0  0.8119451412721049  0.2458918093747613  0.9236406400557655  1.0000
  H   H35       1.0  0.3119470009449116  0.2458906936325604  0.5763591366647489  1.0000
  H   H36       1.0  0.188055385273536  0.7541112793642738  0.0763592711294763  1.0000
  H   H37       1.0  0.6816567755649885  0.16633769971597448  0.4455719418960271  1.0000
  H   H38       1.0  0.8183427197074165  0.8336635580336562  0.9455724195214259  1.0000
  H   H39       1.0  0.31834456618094714  0.8336624739900245  0.5544275995375045  1.0000
  H   H40       1.0  0.1816566575213727  0.16633952992732048  0.0544271219117149  1.0000
  H   H41       1.0  0.45525790766290436  0.7567184639072762  0.776447823326599  1.0000
  H   H42       1.0  0.044739667592970996  0.2432803009695518  0.2764480576156814  1.0000
  H   H43       1.0  0.5447397633884847  0.24327976358958367  0.22355134835494542  1.0000
  H   H44       1.0  0.9552592641475997  0.7567188992420455  0.723552223321974  1.0000
  H   H45       1.0  0.12112229814253789  0.4646770392038418  0.8278378313088837  1.0000
  H   H46       1.0  0.37887634598644837  0.5353206802381436  0.32783839825526684  1.0000
  H   H47       1.0  0.8788764108536995  0.5353202171336092  0.1721620798769194  1.0000
  H   H48       1.0  0.6211224743818987  0.4646775480365122  0.6721615129304368  1.0000
  H   H49       1.0  0.0547056982423655  0.09830652899957926  0.4467381224545832  1.0000
  H   H50       1.0  0.44529335156147454  0.9016939344034679  0.9467385953286468  1.0000
  H   H51       1.0  0.9452946055589493  0.9016946158653097  0.5532614189788063  1.0000
  H   H52       1.0  0.5547060256676488  0.0983091535567056  0.05326205536066201  1.0000
  H   H53       1.0  0.4514400576957697  0.7691634162050176  0.8705389971384392  1.0000
  H   H54       1.0  0.0485587235044633  0.2308352134567002  0.37053960419049053  1.0000
  H   H55       1.0  0.5485588740444669  0.23083578400738244  0.1294601745430484  1.0000
  H   H56       1.0  0.9514413575528452  0.7691639875332256  0.6294606767472147  1.0000
  C   C1        1.0  0.18130116776529093  0.5102768740947495  0.628179113796513  1.0000
  C   C2        1.0  0.3186998775794835  0.48972307935184733  0.1281796859006974  1.0000
  C   C3        1.0  0.818700173980531  0.4897232996115192  0.3718200578849675  1.0000
  C   C4        1.0  0.6813003148500485  0.5102770935750272  0.8718209647889594  1.0000
  C   C5        1.0  0.2433760670340703  0.5720310905552637  0.7290319406910797  1.0000
  C   C6        1.0  0.256622629002038  0.4279677436314344  0.2290325213188495  1.0000
  C   C7        1.0  0.7566214926453155  0.42796616500412205  0.27096760074262255  1.0000
  C   C8        1.0  0.7433763027386463  0.5720314565798998  0.7709681293708641  1.0000
  C   C9        1.0  0.06807372850173718  0.3626988726902097  0.5111847682322406  1.0000
  C   C10       1.0  0.4319259857425947  0.6373002771370364  0.0111849474338257  1.0000
  C   C11       1.0  0.931927390499979  0.6372993571413659  0.4888147732014971  1.0000
  C   C12       1.0  0.5680742066868233  0.3626998957901009  0.988815333503773  1.0000
  C   C13       1.0  0.295324975647567  0.6103363076047541  0.6414646685301051  1.0000
  C   C14       1.0  0.2046760776928309  0.38966362664003634  0.14146488362799664  1.0000
  C   C15       1.0  0.7046752167817374  0.3896638653226531  0.3585352426554352  1.0000
  C   C16       1.0  0.7953251526812152  0.610335575128218  0.8585353973097513  1.0000
  C   C17       1.0  0.2738371014044034  0.6008615523629217  0.7809425390890611  1.0000
  C   C18       1.0  0.22616162587340227  0.39913720679561476  0.2809431235788438  1.0000
  C   C19       1.0  0.7261617189638302  0.3991366759119969  0.21905700234459155  1.0000
  C   C20       1.0  0.7738371944951723  0.6008610214785006  0.7190575271109694  1.0000
  C   C21       1.0  0.15882575182433806  0.47547584193554127  0.5764585689210051  1.0000
  C   C22       1.0  0.34117537376534557  0.5245251582014631  0.07645950498324791  1.0000
  C   C23       1.0  0.841175589921491  0.5245243317707207  0.4235406027604753  1.0000
  C   C24       1.0  0.6588259679809313  0.47547501550373983  0.9235411457064514  1.0000
  C   C25       1.0  0.24958678943294638  0.5098129572762174  0.5354375362364793  1.0000
  C   C26       1.0  0.25041293940770265  0.4901861574974048  0.0354381028314563  1.0000
  C   C27       1.0  0.750414440940773  0.4901862444928398  0.4645616354451009  1.0000
  C   C28       1.0  0.7495872530218292  0.5098140154294697  0.9645625478582007  1.0000
  C   C29       1.0  0.32561800434271493  0.6402580583186646  0.6907577920017403  1.0000
  C   C30       1.0  0.1743819293474616  0.35974180390249444  0.1907583809644606  1.0000
  C   C31       1.0  0.6743821880864829  0.3597421146090056  0.3092417494317488  1.0000
  C   C32       1.0  0.8256181517098469  0.6402573970874312  0.8092418999732445  1.0000
  C   C33       1.0  0.12851147460271053  0.47267763129672596  0.7155844344470523  1.0000
  C   C34       1.0  0.3714884740291495  0.5273221950413927  0.2155853723013053  1.0000
  C   C35       1.0  0.8714886064541502  0.5273215696942727  0.2844143674824267  1.0000
  C   C36       1.0  0.6285105690836446  0.47267797710715337  0.7844152783883018  1.0000
  C   C37       1.0  0.09778869690291  0.4421646975564712  0.666331613996789  1.0000
  C   C38       1.0  0.4022146700366847  0.5578352023042112  0.1663314383875587  1.0000
  C   C39       1.0  0.9022124220989127  0.5578335322748414  0.3336682971890071  1.0000
  C   C40       1.0  0.5977867830814745  0.44216594333872894  0.8336684727979318  1.0000
  C   C41       1.0  0.3717274800826118  0.17477349896960695  0.4408291190887185  1.0000
  C   C42       1.0  0.12827167753697208  0.8252279449114039  0.9408292137441876  1.0000
  C   C43       1.0  0.6282738616633309  0.8252266747363916  0.5591704223448134  1.0000
  C   C44       1.0  0.8717263276309738  0.17477319839655786  0.0591706974411608  1.0000
  C   C45       1.0  0.3802179765314122  0.9341871987679865  0.4305909721220758  1.0000
  C   C46       1.0  0.1197799142374478  0.06581328719544638  0.930590491876835  1.0000
  C   C47       1.0  0.6197821045258963  0.06581200222193928  0.5694093088156293  1.0000
  C   C48       1.0  0.8802182023024939  0.9341888280499899  0.0694090495563628  1.0000
  C   C49       1.0  0.8754818943341219  0.9767587358726852  0.4321805511888286  1.0000
  C   C50       1.0  0.6245198915126055  0.023242542787983194  0.9321819293441393  1.0000
  C   C51       1.0  0.12452185741718583  0.023242411327714797  0.5678182507405866  1.0000
  C   C52       1.0  0.3754803009175943  0.9767576301372852  0.0678209398578531  1.0000
  C   C53       1.0  0.4624503427924651  0.8247228135810045  0.426108852873341  1.0000
  C   C54       1.0  0.03754880596762429  0.17527865157641287  0.9261079725397182  1.0000
  C   C55       1.0  0.5375509989539183  0.17527736012392128  0.5738921675684168  1.0000
  C   C56       1.0  0.9624505712613926  0.8247244363840307  0.0738923083975394  1.0000
  C   C57       1.0  0.4590165518956866  0.05732674891709881  0.4377139742580738  1.0000
  C   C58       1.0  0.04098260384918715  0.9426746994660956  0.9377144061915745  1.0000
  C   C59       1.0  0.5409847898503627  0.9426734247886372  0.5622859369275162  1.0000
  C   C60       1.0  0.9590166620074995  0.05732741655766918  0.062285135241666005  1.0000
  C   C61       1.0  0.6238452028198082  0.8388308075531228  0.4277032285927973  1.0000
  C   C62       1.0  0.8761542816981559  0.16117047602372736  0.9277023781474442  1.0000
  C   C63       1.0  0.3761561389265751  0.16116936615180313  0.5722977918489605  1.0000
  C   C64       1.0  0.1238425741531585  0.8388306665056428  0.07229790278992002  1.0000
  C   C65       1.0  0.7033220032256723  0.9623178755702566  0.433994919279023  1.0000
  C   C66       1.0  0.7966787457680482  0.037684371627719294  0.9339951986703883  1.0000
  C   C67       1.0  0.2966805992093384  0.03768327085074219  0.5660053616585685  1.0000
  C   C68       1.0  0.20332189214992977  0.9623196890479945  0.0660054520188638  1.0000
  C   C69       1.0  0.6205173376950627  0.0707243832784314  0.4398297004572883  1.0000
  C   C70       1.0  0.8794821541213339  0.929276882770935  0.9398297923640158  1.0000
  C   C71       1.0  0.3794828547342489  0.9292757896489758  0.560170210728252  1.0000
  C   C72       1.0  0.12051952174104488  0.07072620674642847  0.06017011882126871  1.0000
  C   C73       1.0  0.2094883706023367  0.5451487289127286  0.8235952909665444  1.0000
  C   C74       1.0  0.29051027097333554  0.454848996661134  0.32359586842780175  1.0000
  C   C75       1.0  0.790510338393787  0.4548485274249857  0.17640425046720054  1.0000
  C   C76       1.0  0.7094874000783803  0.5451492308349303  0.6764044125099106  1.0000
  C   C77       1.0  0.3738960289806883  0.6940067221400738  0.4187689155369227  1.0000
  C   C78       1.0  0.1261039305625857  0.3059918385921776  0.9187687532728005  1.0000
  C   C79       1.0  0.6261050900212483  0.30599150769096883  0.5812313654009316  1.0000
  C   C80       1.0  0.8738963732388356  0.6940093062724343  0.0812311579126401  1.0000
  C   C81       1.0  0.3797341388631352  0.7011263375769445  0.8478876210300186  1.0000
  C   C82       1.0  0.12026451733244407  0.2988713528866426  0.3478878492019604  1.0000
  C   C83       1.0  0.6202645701329884  0.2988709187607696  0.1521119204037262  1.0000
  C   C84       1.0  0.8797332650913887  0.7011278465466332  0.6521124317356524  1.0000
  N   N1        1.0  0.192398497964497  0.4382607799371669  0.4954362853848481  1.0000
  N   N2        1.0  0.307600581147689  0.5617396130807178  0.9954368213398369  1.0000
  N   N3        1.0  0.8076016944647009  0.5617393929905035  0.504563256048641  1.0000
  N   N4        1.0  0.6923985733372078  0.4382615310050325  0.0045638293496779  1.0000
  N   N5        1.0  0.04488293724644879  0.3833643517150662  0.5593959960787203  1.0000
  N   N6        1.0  0.4551170287573854  0.6166366723052757  0.05939618161439601  1.0000
  N   N7        1.0  0.955117255182749  0.6166358212126041  0.44060354535476887  1.0000
  N   N8        1.0  0.5448832750441424  0.3833644725590729  0.9406040993231032  1.0000
  N   N9        1.0  0.3811768611605188  0.6994955948451532  0.7978254114611119  1.0000
  N   N10       1.0  0.11882187627790593  0.30050313991225847  0.29782563916376864  1.0000
  N   N11       1.0  0.6188206985189737  0.3005016607139694  0.20217449972464865  1.0000
  N   N12       1.0  0.8811782047794023  0.6994960610776673  0.7021746417739365  1.0000
  N   N13       1.0  0.2754911372503202  0.6083857943074233  0.8643464002406348  1.0000
  N   N14       1.0  0.22450752885075786  0.3916118723677329  0.3643466164850295  1.0000
  N   N15       1.0  0.7245065338012893  0.39161243318890365  0.1356535109450192  1.0000
  N   N16       1.0  0.7754923294623309  0.6083853847477697  0.6356536644528745  1.0000
  O   O1        1.0  0.2261796828053733  0.16423908009756613  0.44197164832282004  1.0000
  O   O2        1.0  0.2738194755018242  0.8357623621321081  0.9419717522131351  1.0000
  O   O3        1.0  0.773821547568673  0.8357601216706882  0.5580286326149277  1.0000
  O   O4        1.0  0.7261763424047488  0.1642397515564156  0.058028158972028614  1.0000
  O   O5        1.0  0.4522292801550165  0.2865454720984458  0.4404264501253721  1.0000
  O   O6        1.0  0.04777195311148568  0.7134540300467832  0.9404265627309344  1.0000
  O   O7        1.0  0.5477730995356609  0.713453730448407  0.5595734610603672  1.0000
  O   O8        1.0  0.9522269786289713  0.28654517016508396  0.0595733484546699  1.0000
  O   O9        1.0  0.9380552097421954  0.09217168000335357  0.449537181163393  1.0000
  O   O10       1.0  0.5619453258610322  0.9078286008568597  0.9495368828366395  1.0000
  O   O11       1.0  0.061946132003967556  0.907828493702112  0.5504630997742552  1.0000
  O   O12       1.0  0.4380539399958678  0.09217351516637248  0.0504633981007103  1.0000
  O   O13       1.0  0.9526540350913492  0.8933387723069327  0.41555207388215365  1.0000
  O   O14       1.0  0.5473465914306743  0.10666252960992752  0.915552318513953  1.0000
  O   O15       1.0  0.047351311465476394  0.10666626341983226  0.5844478373030668  1.0000
  O   O16       1.0  0.45265197059793383  0.8933434733838224  0.0844479624229493  1.0000
  O   O17       1.0  0.4457225170593802  0.5937524162612318  0.429438124852453  1.0000
  O   O18       1.0  0.054277671649231286  0.40624807292489606  0.9294379350804577  1.0000
  O   O19       1.0  0.5542799740036344  0.4062477582222925  0.5705625258372962  1.0000
  O   O20       1.0  0.9457215942076757  0.5937540430983431  0.07056234585689941  1.0000
  O   O21       1.0  0.2376987516643112  0.6887111517451315  0.4028170675409584  1.0000
  O   O22       1.0  0.2623021248512956  0.31128548894623254  0.9028176544156354  1.0000
  O   O23       1.0  0.7623031825379201  0.31128416305286777  0.5971828436451858  1.0000
  O   O24       1.0  0.737697141005718  0.6887166270767294  0.09718299627377291  1.0000
