data_image0
_chemical_formula_structural       Al4H15C37NO22
_chemical_formula_sum              "Al4 H15 C37 N1 O22"
_cell_length_a       6.674852700666939
_cell_length_b       16.82589410102251
_cell_length_c       18.330528341769565
_cell_angle_alpha    106.6523380844327
_cell_angle_beta     90.44659844819824
_cell_angle_gamma    90.5203500324006

_space_group_name_H-M_alt    "P 1"
_space_group_IT_number       1

loop_
  _space_group_symop_operation_xyz
  'x, y, z'

loop_
  _atom_site_type_symbol
  _atom_site_label
  _atom_site_symmetry_multiplicity
  _atom_site_fract_x
  _atom_site_fract_y
  _atom_site_fract_z
  _atom_site_occupancy
  Al  Al1       1.0  0.1421754004449767  0.5001619834732124  0.4981658658778302  1.0000
  Al  Al2       1.0  0.6426639730450177  0.5008132446032433  0.49813252515269824  1.0000
  Al  Al3       1.0  0.631519297060393  0.0005543699316917001  0.00048736392658099963  1.0000
  Al  Al4       1.0  0.13026123525916944  0.00032950632230210127  0.9996753717245215  1.0000
  H   H1        1.0  0.7558063758263458  0.7914291613479633  0.6399996901746263  1.0000
  H   H2        1.0  0.5369206469971104  0.797754830798908  0.7740414645316493  1.0000
  H   H3        1.0  0.0173881032532393  0.7106915548858623  0.8587369874223827  1.0000
  H   H4        1.0  0.23436480062326132  0.7050992821074045  0.7242281465139586  1.0000
  H   H5        1.0  0.0897173531392568  0.8669563497546307  0.7332785160390147  1.0000
  H   H6        1.0  0.4838117593937739  0.12396691071246119  0.28157324497084363  1.0000
  H   H7        1.0  0.7200220191111556  0.27223318835784494  0.30856464717273724  1.0000
  H   H8        1.0  0.053219671315162  0.22808538451551644  0.1887901049336591  1.0000
  H   H9        1.0  0.1432847543035649  0.2243685739708496  0.3404753042043396  1.0000
  H   H10       1.0  0.15047724087412462  0.3764112940169753  0.17991937575954614  1.0000
  H   H11       1.0  0.6051651486173244  0.6293582735484406  0.8126932949123786  1.0000
  H   H12       1.0  0.39545542181105736  0.603371990435214  0.5480006771943877  1.0000
  H   H13       1.0  0.8898701310073278  0.4073826194420391  0.519590399854515  1.0000
  H   H14       1.0  0.37814425245865374  0.893277621071995  0.9618586969836829  1.0000
  H   H15       1.0  0.8829053759149377  0.10915230689777643  0.01452328554667302  1.0000
  C   C1        1.0  0.3871889197721714  0.3864476456855286  0.38382635011717536  1.0000
  C   C2        1.0  0.3933542775430823  0.4141672264132196  0.5856278437579832  1.0000
  C   C3        1.0  0.8974474358230465  0.6164009511535653  0.6140313080435007  1.0000
  C   C4        1.0  0.8925998930618421  0.5823204986192534  0.40990826652812734  1.0000
  C   C5        1.0  0.893149212752043  0.6324993989079317  0.35804801582582974  1.0000
  C   C6        1.0  0.8911958166423232  0.6773494636784819  0.31581781510332974  1.0000
  C   C7        1.0  0.8886387782817664  0.7266995278255736  0.26993864522523847  1.0000
  C   C8        1.0  0.8858678430724752  0.7724384013759221  0.2280098113249523  1.0000
  C   C9        1.0  0.8835149381577028  0.8216625203983554  0.18200671614453512  1.0000
  C   C10       1.0  0.8817980754101808  0.8663720450436613  0.13960837464696135  1.0000
  C   C11       1.0  0.6912250780016507  0.7766664194640142  0.7626774983300635  1.0000
  C   C12       1.0  0.8134232040662753  0.7747089538743525  0.6895837597768164  1.0000
  C   C13       1.0  0.8965949766060176  0.685786131805493  0.6852951160713091  1.0000
  C   C14       1.0  0.7728507935284625  0.687865986587191  0.7587152729123332  1.0000
  C   C15       1.0  0.9600898903754782  0.727917975322086  0.8092785446837782  1.0000
  C   C16       1.0  0.08039873146034181  0.7263566058027136  0.7358451345433892  1.0000
  C   C17       1.0  9.326784859099759e-05  0.8146385744744578  0.7395850027569113  1.0000
  C   C18       1.0  0.8760814661415421  0.8165343923815553  0.812860253055142  1.0000
  C   C19       1.0  0.5709231992008766  0.2611194712572029  0.2823355820713616  1.0000
  C   C20       1.0  0.4394982158669549  0.180717832111803  0.2683703470393723  1.0000
  C   C21       1.0  0.38562579668350583  0.18490049516076826  0.18540839540926876  1.0000
  C   C22       1.0  0.5241250863544451  0.264970988749063  0.19910565603897373  1.0000
  C   C23       1.0  0.3273382206767508  0.3191446237638544  0.2304847630878726  1.0000
  C   C24       1.0  0.1997477635601399  0.2382148585651507  0.21704491336513604  1.0000
  C   C25       1.0  0.2511005988093018  0.2347485279062624  0.29944095810049737  1.0000
  C   C26       1.0  0.38601441162538214  0.31507917676864855  0.3139990987381154  1.0000
  C   C27       1.0  0.3931630814299255  0.3642679720417021  0.6377294808173987  1.0000
  C   C28       1.0  0.3913958985122363  0.32009004757721743  0.680602594121581  1.0000
  C   C29       1.0  0.3893229895954775  0.2717379479203573  0.7274009911361647  1.0000
  C   C30       1.0  0.38719346821071104  0.22715714132606019  0.7703803621931159  1.0000
  C   C31       1.0  0.38492558051763137  0.17907621757922237  0.8174148651348929  1.0000
  C   C32       1.0  0.38276208620694513  0.13533757379030217  0.860662627110159  1.0000
  C   C33       1.0  0.3815539512195159  0.08600233734052408  0.9132773056031526  1.0000
  C   C34       1.0  0.38557142902389785  0.1141231390864021  0.11496545848337551  1.0000
  C   C35       1.0  0.880733550737787  0.916262992007745  0.08751231316108493  1.0000
  C   C36       1.0  0.8760110466805955  0.8857110478011877  0.884206305347206  1.0000
  C   C37       1.0  0.6748663944656244  0.2799997851104692  0.15034022565882316  1.0000
  N   N1        1.0  0.8072379059722652  0.29413734255670226  0.11418384335032536  1.0000
  O   O1        1.0  0.5643865445727414  0.43331576460035137  0.5648996447754229  1.0000
  O   O2        1.0  0.2177408666633056  0.413232593326157  0.4108941846135609  1.0000
  O   O3        1.0  0.0626996399148041  0.5638577496164319  0.43165290088127517  1.0000
  O   O4        1.0  0.22182585423984594  0.4328828871377866  0.5647778495056246  1.0000
  O   O5        1.0  0.0672426972480054  0.5891668654381946  0.5869863169392036  1.0000
  O   O6        1.0  0.5579519701709968  0.41416627688276014  0.4114007124599512  1.0000
  O   O7        1.0  0.39341695333044413  0.5503157732077638  0.5090071329568105  1.0000
  O   O8        1.0  0.7260739960445548  0.5910840728600562  0.5846370464389637  1.0000
  O   O9        1.0  0.7216243680056922  0.5626383236490325  0.42985044609721973  1.0000
  O   O10       1.0  0.891004406693554  0.4507962195547037  0.4943120427931902  1.0000
  O   O11       1.0  0.21499488397407873  0.0866430428497083  0.08724184587343593  1.0000
  O   O12       1.0  0.5524195622246922  0.06686540054149501  0.9341318522567336  1.0000
  O   O13       1.0  0.7071833272520038  0.9115230013058806  0.9131454878940987  1.0000
  O   O14       1.0  0.555452242344046  0.0877112547095749  0.088113033968547  1.0000
  O   O15       1.0  0.709484921214397  0.9356554760149222  0.06732346337995657  1.0000
  O   O16       1.0  0.210038862763966  0.0674870926764299  0.9340485899819412  1.0000
  O   O17       1.0  0.3797034877336785  0.9511291341285784  0.9913817693011711  1.0000
  O   O18       1.0  0.0511516131930208  0.9347573309128097  0.06593984283911428  1.0000
  O   O19       1.0  0.04781441557804561  0.9126873928995137  0.9120640877399069  1.0000
  O   O20       1.0  0.8820981346999801  0.049727945287962406  0.007168173167372102  1.0000
  O   O21       1.0  0.26969891758793807  0.38920931945826004  0.21272393973740125  1.0000
  O   O22       1.0  0.6638429136732711  0.6185774929420447  0.7622984089792197  1.0000
