data_image0
_chemical_formula_structural       Hg4H36C48I12N8
_chemical_formula_sum              "Hg4 H36 C48 I12 N8"
_cell_length_a       4.339734537382834
_cell_length_b       15.540012215707424
_cell_length_c       23.376170826248455
_cell_angle_alpha    90.00051785972377
_cell_angle_beta     89.99980655286696
_cell_angle_gamma    95.78472915896513

_space_group_name_H-M_alt    "P 1"
_space_group_IT_number       1

loop_
  _space_group_symop_operation_xyz
  'x, y, z'

loop_
  _atom_site_type_symbol
  _atom_site_label
  _atom_site_symmetry_multiplicity
  _atom_site_fract_x
  _atom_site_fract_y
  _atom_site_fract_z
  _atom_site_occupancy
  Hg  Hg1       1.0  0.29308727775565296  0.7969444799386236  0.7454913892506454  1.0000
  Hg  Hg2       1.0  0.7069220652892624  0.7030550865429318  0.24549418870503095  1.0000
  Hg  Hg3       1.0  0.7069210158094279  0.203058828960593  0.2545104045918123  1.0000
  Hg  Hg4       1.0  0.2930906317906619  0.2969411119671364  0.7545028994677168  1.0000
  H   H1        1.0  0.5655236506588964  0.002457093329738299  0.7597209038894019  1.0000
  H   H2        1.0  0.4344916104686901  0.4975467984111574  0.2597209687353156  1.0000
  H   H3        1.0  0.434477956757675  0.9975468579997011  0.24028003438517223  1.0000
  H   H4        1.0  0.5655337519753373  0.5024526413235505  0.7402765472289514  1.0000
  H   H5        1.0  0.5159516247031702  0.13291926039214988  0.8198214072989385  1.0000
  H   H6        1.0  0.4840405936097555  0.3670808815030426  0.31981979227433743  1.0000
  H   H7        1.0  0.4840721176865372  0.8670821183206099  0.18018423660689104  1.0000
  H   H8        1.0  0.5159665586447417  0.6329191934096696  0.6801781514841777  1.0000
  H   H9        1.0  0.8865703407571458  0.9742639542004595  0.9288853170249067  1.0000
  H   H10       1.0  0.11343409974802651  0.5257367302751489  0.42888830607039796  1.0000
  H   H11       1.0  0.11344233416222951  0.025738710802343693  0.07111519345590979  1.0000
  H   H12       1.0  0.8865673015375108  0.4742601077974554  0.571113487754829  1.0000
  H   H13       1.0  0.96701065643866  0.8484699603228804  0.8641240880249722  1.0000
  H   H14       1.0  0.033019893061684444  0.6515298880131865  0.36412575537150355  1.0000
  H   H15       1.0  0.0329838083061702  0.15153333984104478  0.13587428353373096  1.0000
  H   H16       1.0  0.9669983266806241  0.34846890058977914  0.6358743273096079  1.0000
  H   H17       1.0  0.2929535895440837  0.20006758956257187  0.9008576283241251  1.0000
  H   H18       1.0  0.7070259303611055  0.29993296449813295  0.4008520309781287  1.0000
  H   H19       1.0  0.7070720011315929  0.7999324970037732  0.09914587664685826  1.0000
  H   H20       1.0  0.2929572607673662  0.70006450871589  0.599144629422568  1.0000
  H   H21       1.0  0.5621074336187635  0.13374567619983677  0.036670888393594184  1.0000
  H   H22       1.0  0.4378774796495931  0.36625331998575206  0.5366649869005541  1.0000
  H   H23       1.0  0.4378932607463498  0.8662556879437773  0.9633274831571085  1.0000
  H   H24       1.0  0.562104319746119  0.6337467389366438  0.46333039015027555  1.0000
  H   H25       1.0  0.41358689160504986  0.25827327744012507  0.09531394074149088  1.0000
  H   H26       1.0  0.58639087907995  0.2417277795939938  0.5953106051656221  1.0000
  H   H27       1.0  0.5863951360472939  0.7417274282857633  0.9046831474554506  1.0000
  H   H28       1.0  0.4135939098973366  0.758274221185381  0.4046890497506509  1.0000
  H   H29       1.0  0.016595450723904913  0.43172722001178687  0.9906233404579364  1.0000
  H   H30       1.0  0.983345002841588  0.06827125801190449  0.4906259890241315  1.0000
  H   H31       1.0  0.9834057001669336  0.5682754377247363  0.009376314454705399  1.0000
  H   H32       1.0  0.016630817293588344  0.9317249173062833  0.5093775159521171  1.0000
  H   H33       1.0  0.1708544601317072  0.31023797941625736  0.9356464218675381  1.0000
  H   H34       1.0  0.8290658920414131  0.18975976218349183  0.4356507679325288  1.0000
  H   H35       1.0  0.8291328619263894  0.689764669599043  0.06435194969164829  1.0000
  H   H36       1.0  0.17091661426225366  0.8102357706819703  0.5643501703231236  1.0000
  C   C1        1.0  0.4174544765359513  0.998795592356849  0.7976185447075748  1.0000
  C   C2        1.0  0.5825549427246839  0.5012066003468617  0.29761764034388694  1.0000
  C   C3        1.0  0.5825512839508209  0.0012070683036356  0.20238410470590648  1.0000
  C   C4        1.0  0.4174616570182508  0.4987941271722391  0.7023811589854745  1.0000
  C   C5        1.0  0.38807318220084847  0.0712726640281858  0.8312551303560622  1.0000
  C   C6        1.0  0.6119241970228018  0.42872957159899977  0.33125508416778615  1.0000
  C   C7        1.0  0.6119482553996392  0.9287287132127415  0.16874751904813928  1.0000
  C   C8        1.0  0.3880709746549442  0.5712692024798542  0.6687445707351498  1.0000
  C   C9        1.0  0.19131435542036707  0.06413804960182999  0.8790324624252078  1.0000
  C   C10       1.0  0.8086753232973009  0.43586416351256213  0.3790323241749149  1.0000
  C   C11       1.0  0.8086980912248974  0.9358639686171841  0.1209693314119065  1.0000
  C   C12       1.0  0.1913244579988529  0.5641346134649154  0.6209664751543258  1.0000
  C   C13       1.0  0.037671508946800644  0.9822833771978167  0.8916575513231775  1.0000
  C   C14       1.0  0.9623331379522568  0.5177161706437942  0.3916586247831545  1.0000
  C   C15       1.0  0.9623358715443402  0.0177173445409053  0.10834552586993597  1.0000
  C   C16       1.0  0.03765995717292004  0.4822832487892298  0.6083431690527447  1.0000
  C   C17       1.0  0.08178482015292587  0.913170641403596  0.8561579285018152  1.0000
  C   C18       1.0  0.9182324500444139  0.586830386993057  0.3561603064810369  1.0000
  C   C19       1.0  0.9182232451480417  0.08683202070057659  0.14384343755269668  1.0000
  C   C20       1.0  0.08178093181037838  0.4131677519218542  0.6438410595579497  1.0000
  C   C21       1.0  0.1443755381127545  0.14100618722697789  0.9126494232580807  1.0000
  C   C22       1.0  0.8555985496862136  0.358992578726216  0.4126470759941937  1.0000
  C   C23       1.0  0.855641061607706  0.8589945403174539  0.08735322614582229  1.0000
  C   C24       1.0  0.1443800318163682  0.6410048915976249  0.5873517233383722  1.0000
  C   C25       1.0  0.8751457163523215  0.2122026414352973  0.982458939112092  1.0000
  C   C26       1.0  0.12483170948191  0.28779575235466137  0.4824549518952351  1.0000
  C   C27       1.0  0.1248602724160506  0.7878006660005425  0.017541143586910793  1.0000
  C   C28       1.0  0.8751558629883718  0.7122010769770171  0.5175425640741194  1.0000
  C   C29       1.0  0.6619518902779192  0.19959077458776162  0.027818876556985093  1.0000
  C   C30       1.0  0.338035659404035  0.3004087533825981  0.5278147838165167  1.0000
  C   C31       1.0  0.3380511088764067  0.8004105910276778  0.9721824894953456  1.0000
  C   C32       1.0  0.6619502930493935  0.6995900148849186  0.4721844433035115  1.0000
  C   C33       1.0  0.5790240234598016  0.26881806490393956  0.06028037647511299  1.0000
  C   C34       1.0  0.42096314722871137  0.23118189017405644  0.5602749518366322  1.0000
  C   C35       1.0  0.42096745167098965  0.7311832934395924  0.9397192784369179  1.0000
  C   C36       1.0  0.5790304044421717  0.768818822829374  0.4397247030727271  1.0000
  C   C37       1.0  0.7058767880911107  0.35255868311902816  0.0465589208372634  1.0000
  C   C38       1.0  0.2940805802887922  0.1474410725676307  0.5465577818523073  1.0000
  C   C39       1.0  0.2941123822354755  0.6474426737695539  0.9534403062894936  1.0000
  C   C40       1.0  0.7059056004237547  0.8525583425005648  0.4534427286277775  1.0000
  C   C41       1.0  0.9174027948886376  0.36668318953662277  0.0015686310371591996  1.0000
  C   C42       1.0  0.08255555529657953  0.13331726777776962  0.5015688352918203  1.0000
  C   C43       1.0  0.08259351811718565  0.6333188185090322  0.9984318794472954  1.0000
  C   C44       1.0  0.9174253310002171  0.8666802040122688  0.4984321029702554  1.0000
  C   C45       1.0  0.0030724422503495843  0.2971950009412864  0.9700588340160646  1.0000
  C   C46       1.0  0.9968751658445213  0.20280321084705116  0.47005972142977714  1.0000
  C   C47       1.0  0.9969266320979032  0.702808302138159  0.029941248685297194  1.0000
  C   C48       1.0  0.0031013391079781597  0.7971949048281459  0.5299407890496964  1.0000
  I   I1        1.0  0.70683557793906  0.8615577954339529  0.6662684590125635  1.0000
  I   I2        1.0  0.2931783866208661  0.6384381443877842  0.16626986819944986  1.0000
  I   I3        1.0  0.2931768908542693  0.13843775630638788  0.33373205144678747  1.0000
  I   I4        1.0  0.7068260043061798  0.3615606354742553  0.8337259366257965  1.0000
  I   I5        1.0  0.9028927692497392  0.6768914045612532  0.7973380586417488  1.0000
  I   I6        1.0  0.09714501789823513  0.8231062757933643  0.29733858222068926  1.0000
  I   I7        1.0  0.09713697451861239  0.3231073913108061  0.20266330739360672  1.0000
  I   I8        1.0  0.9028637543806043  0.17689186017507547  0.7026563670289859  1.0000
  I   I9        1.0  0.5729413525159471  0.4598848223299895  0.09197690970832177  1.0000
  I   I10       1.0  0.42704405634170667  0.0401181355393874  0.5919750292484166  1.0000
  I   I11       1.0  0.42706141838425543  0.5401158964791436  0.908022317411827  1.0000
  I   I12       1.0  0.5729471905174819  0.9598825760175415  0.40802548123384935  1.0000
  N   N1        1.0  0.26654228975723976  0.9212372834839188  0.8097311239703372  1.0000
  N   N2        1.0  0.7334692928761868  0.5787650700612303  0.30973272455130996  1.0000
  N   N3        1.0  0.7334593176668278  0.0787666678370726  0.19026853094606364  1.0000
  N   N4        1.0  0.2665314014764277  0.4212362940964454  0.6902677859296844  1.0000
  N   N5        1.0  0.9359200124741065  0.13811089731556336  0.9520798946144635  1.0000
  N   N6        1.0  0.06405338668067627  0.36188774066907564  0.4520793924621529  1.0000
  N   N7        1.0  0.06408551975104601  0.8618911165470562  0.0479218992250168  1.0000
  N   N8        1.0  0.9359254230810234  0.6381103764554439  0.5479206902304767  1.0000
