data_image0
_chemical_formula_structural       Na2H8C12N6O16
_chemical_formula_sum              "Na2 H8 C12 N6 O16"
_cell_length_a       3.741092093947064
_cell_length_b       11.950516810121565
_cell_length_c       11.945925192725422
_cell_angle_alpha    116.09370432791987
_cell_angle_beta     89.4655599649328
_cell_angle_gamma    89.5333959557785

_space_group_name_H-M_alt    "P 1"
_space_group_IT_number       1

loop_
  _space_group_symop_operation_xyz
  'x, y, z'

loop_
  _atom_site_type_symbol
  _atom_site_label
  _atom_site_symmetry_multiplicity
  _atom_site_fract_x
  _atom_site_fract_y
  _atom_site_fract_z
  _atom_site_occupancy
  Na  Na1       1.0  0.5003990459688482  0.4998922662600053  0.4999274235401786  1.0000
  Na  Na2       1.0  0.9999165071433326  0.9999896694791347  0.9999939469486635  1.0000
  H   H1        1.0  0.4658324613744399  0.7799059207978587  0.8558232717387071  1.0000
  H   H2        1.0  0.5339319934378963  0.14426510280300417  0.220199010024217  1.0000
  H   H3        1.0  0.5343029823036647  0.22002272758250296  0.14416569787169212  1.0000
  H   H4        1.0  0.4658523149610831  0.8557401174425507  0.7798484734983405  1.0000
  H   H5        1.0  0.2505739670415537  0.9210424514683879  0.3828576230130523  1.0000
  H   H6        1.0  0.748835586505017  0.6171181713945444  0.07899010584606009  1.0000
  H   H7        1.0  0.7495050715741557  0.0789511419877726  0.6170499694973941  1.0000
  H   H8        1.0  0.25065313700604724  0.3829258470381163  0.9211300429080183  1.0000
  C   C1        1.0  0.0002025082077495008  0.6333197161257259  0.366602433858688  1.0000
  C   C2        1.0  0.00020193895041840072  0.366651002354459  0.6333596726913058  1.0000
  C   C3        1.0  0.14527221904577206  0.7591515027922995  0.4120604468808581  1.0000
  C   C4        1.0  0.85447668236737  0.5879721304445552  0.24087417163672598  1.0000
  C   C5        1.0  0.8550091196943655  0.2408540756585822  0.5878855800534666  1.0000
  C   C6        1.0  0.1454222882865039  0.4120746360922638  0.7591958192261854  1.0000
  C   C7        1.0  0.1418205844239111  0.8275932804589131  0.3440579313616539  1.0000
  C   C8        1.0  0.8577937943088402  0.6559614827239884  0.17241944542637105  1.0000
  C   C9        1.0  0.8581663512456573  0.17241662615901276  0.6559034959423968  1.0000
  C   C10       1.0  0.1418831427413636  0.3440826399787937  0.8276562589860814  1.0000
  C   C11       1.0  0.9997087708665477  0.7753840937443284  0.22463222310993552  1.0000
  C   C12       1.0  8.453249252229234e-05  0.2246025877093629  0.7753705823142597  1.0000
  N   N1        1.0  0.2935202569917337  0.8212267152892352  0.5361605615556471  1.0000
  N   N2        1.0  0.7065890313244126  0.4638414170224507  0.1788355583438559  1.0000
  N   N3        1.0  0.7069514100159326  0.17882679648597838  0.46377629709279933  1.0000
  N   N4        1.0  0.29325569075436425  0.5362220522758675  0.8212708262854703  1.0000
  N   N5        1.0  0.9997993316389825  0.8466191163570187  0.1531992035248494  1.0000
  N   N6        1.0  0.9999160565415866  0.1533161257657127  0.8467753183661272  1.0000
  O   O1        1.0  0.0005568358267637981  0.5715455478187721  0.42843866585104  1.0000
  O   O2        1.0  0.0002643227941873993  0.42842741173184606  0.5715366987888331  1.0000
  O   O3        1.0  0.4010540334806265  0.7575682903058976  0.5891148920482223  1.0000
  O   O4        1.0  0.5996270376831279  0.410751966055443  0.24249982008936397  1.0000
  O   O5        1.0  0.59921324770297  0.24252893306239542  0.41088325665190695  1.0000
  O   O6        1.0  0.400961086708236  0.5891689215099448  0.7575592829190327  1.0000
  O   O7        1.0  0.3105128431895992  0.936833694058592  0.5846629567553094  1.0000
  O   O8        1.0  0.6886147161629453  0.41545551659772434  0.06322012193460586  1.0000
  O   O9        1.0  0.6899090409252866  0.0632237755193543  0.41523373906213124  1.0000
  O   O10       1.0  0.31019517784367423  0.5846626787079074  0.9369125103247172  1.0000
  O   O11       1.0  0.1648153793304914  0.946560913487744  0.1948338072395616  1.0000
  O   O12       1.0  0.8348428335124044  0.8049384767571867  0.05323247127767428  1.0000
  O   O13       1.0  0.8350638445021732  0.0533233787692353  0.8050176808052001  1.0000
  O   O14       1.0  0.16455669575345408  0.19511184160955253  0.9468200597151082  1.0000
  O   O15       1.0  0.4685155025154801  0.8659159224549313  0.86591805251539  1.0000
  O   O16       1.0  0.5314107662084454  0.1340244019182606  0.1341010929928856  1.0000
