data_image0
_chemical_formula_structural       Zn8H54C90O32
_chemical_formula_sum              "Zn8 H54 C90 O32"
_cell_length_a       18.183979110577766
_cell_length_b       18.302317606577724
_cell_length_c       18.360273704960633
_cell_angle_alpha    90.31573885674928
_cell_angle_beta     119.31438726336313
_cell_angle_gamma    120.33482766269529

_space_group_name_H-M_alt    "P 1"
_space_group_IT_number       1

loop_
  _space_group_symop_operation_xyz
  'x, y, z'

loop_
  _atom_site_type_symbol
  _atom_site_label
  _atom_site_symmetry_multiplicity
  _atom_site_fract_x
  _atom_site_fract_y
  _atom_site_fract_z
  _atom_site_occupancy
  Zn  Zn1       1.0  0.5798859168156412  0.19905574606072207  0.790879570329139  1.0000
  Zn  Zn2       1.0  0.4200906813229749  0.8008895769742563  0.20905289225041906  1.0000
  Zn  Zn3       1.0  0.584434092957359  0.3785408211606337  0.7910159808517677  1.0000
  Zn  Zn4       1.0  0.41561200407937093  0.6214144690585712  0.20903367838720044  1.0000
  Zn  Zn5       1.0  0.409664000358049  0.20253531222867582  0.7926341969808632  1.0000
  Zn  Zn6       1.0  0.5903350021312265  0.7974503746570675  0.2073436040997834  1.0000
  Zn  Zn7       1.0  0.41012001032537165  0.20359518077280817  0.6168394691935433  1.0000
  Zn  Zn8       1.0  0.5898784318179721  0.7963811146916483  0.3831287725412552  1.0000
  H   H1        1.0  0.4531216635008022  0.8544064620886542  0.5208737821323269  1.0000
  H   H2        1.0  0.26636363926307627  0.49418236371444363  0.3374554562529823  1.0000
  H   H3        1.0  0.8979233750052699  0.5874812529196016  0.8138765249431117  1.0000
  H   H4        1.0  0.10256063275163282  0.4138553715430432  0.1863244538966455  1.0000
  H   H5        1.0  0.6389379348027474  0.6627830418951458  0.5611632038930452  1.0000
  H   H6        1.0  0.3608266977299337  0.3372806424113221  0.4389534433169899  1.0000
  H   H7        1.0  0.008986770061468963  0.13728791970427778  0.6870342726304983  1.0000
  H   H8        1.0  0.9910785471890265  0.8627034946171223  0.31295404391001114  1.0000
  H   H9        1.0  0.12160123343166154  0.23898784974168302  0.6414442574479509  1.0000
  H   H10       1.0  0.8783822083692241  0.7611476871087743  0.35854111071591893  1.0000
  H   H11       1.0  0.30320849732818544  0.3675940542743844  0.7552940689039218  1.0000
  H   H12       1.0  0.5468834114193868  0.14557579904779766  0.4790465084475599  1.0000
  H   H13       1.0  0.696775759007622  0.6325522268426128  0.2447075221765972  1.0000
  H   H14       1.0  0.08003795824851775  0.16498616043109843  0.8478369083200192  1.0000
  H   H15       1.0  0.9200973086301829  0.8348583795172074  0.1521485425460228  1.0000
  H   H16       1.0  0.7896122728052147  0.06056342748007637  0.8200534775101359  1.0000
  H   H17       1.0  0.21022409317937726  0.939340829416757  0.17979479896150263  1.0000
  H   H18       1.0  0.92250244508093  0.32976775137841935  0.8104644081225628  1.0000
  H   H19       1.0  0.07766940004850645  0.6702055862955445  0.18957353963584475  1.0000
  H   H20       1.0  0.10111969555813251  0.4396185049096174  0.021715151963213882  1.0000
  H   H21       1.0  0.8988999174965288  0.5603364459316678  0.9782322890698723  1.0000
  H   H22       1.0  0.38270435293861005  0.9750203656277703  0.3426610552828748  1.0000
  H   H23       1.0  0.9394530020194053  0.7100859218887549  0.9198982367886188  1.0000
  H   H24       1.0  0.6173072025309596  0.024965963430666697  0.6572683934016438  1.0000
  H   H25       1.0  0.32822186315613056  0.8575363594059763  0.9294461143649926  1.0000
  H   H26       1.0  0.67182442464172  0.14247102063622924  0.07054442212446325  1.0000
  H   H27       1.0  0.44874777326199206  0.9211767427287965  0.8574729067558664  1.0000
  H   H28       1.0  0.551293666320433  0.07882524846018406  0.14251307506393826  1.0000
  H   H29       1.0  0.6260862566771336  0.9687816422885119  0.026508415130059814  1.0000
  H   H30       1.0  0.3739625971164671  0.031221065692307096  0.9734817230076231  1.0000
  H   H31       1.0  0.9250637615278806  0.0676668621414365  0.5270362282444764  1.0000
  H   H32       1.0  0.07492888487136887  0.9322913740189944  0.4729536487260333  1.0000
  H   H33       1.0  0.9427068575380344  0.9726158183853423  0.34430615940411263  1.0000
  H   H34       1.0  0.0597928646187497  0.2901055920790795  0.0806045617681974  1.0000
  H   H35       1.0  0.05728295442926879  0.02734575805361319  0.6556883385974004  1.0000
  H   H36       1.0  0.26195908107170135  0.2935460806477365  0.9614624833124735  1.0000
  H   H37       1.0  0.738172463982302  0.7063118448649561  0.03853317707559256  1.0000
  H   H38       1.0  0.2517349309718139  0.8678893407630068  0.3937783543608687  1.0000
  H   H39       1.0  0.7482774375073904  0.1320642483352898  0.60617699349703  1.0000
  H   H40       1.0  0.34541399870956724  0.458302211893823  0.9952131714418542  1.0000
  H   H41       1.0  0.6546107752431637  0.5416843216065245  0.004785348658174308  1.0000
  H   H42       1.0  0.7988188416706948  0.11079702932318715  0.9528697144874342  1.0000
  H   H43       1.0  0.2009091384546691  0.8890931459487205  0.04691703931006687  1.0000
  H   H44       1.0  0.8846175374522645  0.3309291007713426  0.03885564218604277  1.0000
  H   H45       1.0  0.8159463393770635  0.751722197692949  0.873566839290753  1.0000
  H   H46       1.0  0.11543824410881587  0.6690601835647099  0.9610958910224453  1.0000
  H   H47       1.0  0.8393495482385448  0.10926055178765637  0.7257575617478338  1.0000
  H   H48       1.0  0.16070238769854925  0.8906899292965206  0.2742121383570151  1.0000
  H   H49       1.0  0.0633823715083537  0.14396572427822457  0.4730729644810907  1.0000
  H   H50       1.0  0.9366053862541576  0.8559918225476648  0.5269199770334012  1.0000
  H   H51       1.0  0.18226163154452013  0.24727544819759825  0.1270851280401075  1.0000
  H   H52       1.0  0.6532610389052208  0.672351689895386  0.7214866051786828  1.0000
  H   H53       1.0  0.3452219074128065  0.3266664830484343  0.27898774902903506  1.0000
  H   H54       1.0  0.7342998053657437  0.5070592326019677  0.6626033031142029  1.0000
  C   C1        1.0  0.5035465934877549  0.38601997530578547  0.6086635280161374  1.0000
  C   C2        1.0  0.4960202071150165  0.051157066885302485  0.9469857379000787  1.0000
  C   C3        1.0  0.5702493561565661  0.9831057402884154  0.014166764161139192  1.0000
  C   C4        1.0  0.4297960681367314  0.016895607643363092  0.9858217003753325  1.0000
  C   C5        1.0  0.033911973162922486  0.07939602963477199  0.4842677954374182  1.0000
  C   C6        1.0  0.9660791366702168  0.9205608689125453  0.5157267761251562  1.0000
  C   C7        1.0  0.960358256563069  0.03873487422755059  0.516256570928924  1.0000
  C   C8        1.0  0.039625027161093646  0.9612159422399382  0.48372927088870915  1.0000
  C   C9        1.0  0.8952475267735379  0.9442833394441336  0.4447094131954897  1.0000
  C   C10       1.0  0.10474387838227978  0.055670211376643394  0.555283658411746  1.0000
  C   C11       1.0  0.9693598474032182  0.9855331687484818  0.4137896626470903  1.0000
  C   C12       1.0  0.4963502496973006  0.6139974370560637  0.39138826681060124  1.0000
  C   C13       1.0  0.030633612669745996  0.014424410632244597  0.5862044211346671  1.0000
  C   C14       1.0  0.798590361083292  0.6984181142484542  0.8272725958287028  1.0000
  C   C15       1.0  0.20018733361880692  0.30110231173928526  0.17323560998814708  1.0000
  C   C16       1.0  0.495798042090023  0.10733670409681648  0.8892680933148613  1.0000
  C   C17       1.0  0.5042375483073869  0.8926726283971573  0.11072323211179477  1.0000
  C   C18       1.0  0.7073494039431693  0.6541553377489959  0.7418152724074575  1.0000
  C   C19       1.0  0.2915543362312505  0.3453548574911807  0.2585935945843545  1.0000
  C   C20       1.0  0.6828554996239475  0.5844217986253638  0.6819665738930496  1.0000
  C   C21       1.0  0.3167558420920215  0.41571361368490034  0.31828480163342476  1.0000
  C   C22       1.0  0.752349994730963  0.5608142428362012  0.7089781230533561  1.0000
  C   C23       1.0  0.43448014667736584  0.9867105930100589  0.4127625422889807  1.0000
  C   C24       1.0  0.24779795264561247  0.43995166972751315  0.2912030053371666  1.0000
  C   C25       1.0  0.8440876983986383  0.6058958609302605  0.7939264134201379  1.0000
  C   C26       1.0  0.15594718488248552  0.39490443032784117  0.20634628307358577  1.0000
  C   C27       1.0  0.867515012645441  0.6747298250111908  0.8535609552909021  1.0000
  C   C28       1.0  0.13181944816682997  0.3254399451983189  0.1468754355766464  1.0000
  C   C29       1.0  0.5773241755263924  0.5911430238037664  0.5352661635590578  1.0000
  C   C30       1.0  0.4224429556942368  0.4089253674694006  0.46485498178893886  1.0000
  C   C31       1.0  0.49280501556520306  0.5537621628432416  0.44642389736878135  1.0000
  C   C32       1.0  0.5069861405300954  0.44630431929272846  0.5536822506447479  1.0000
  C   C33       1.0  0.41252943913067935  0.46071776767234934  0.4098425488027431  1.0000
  C   C34       1.0  0.565524580239874  0.013268331175289902  0.5871635603545047  1.0000
  C   C35       1.0  0.5871950708480541  0.539369192662363  0.5903074644796577  1.0000
  C   C36       1.0  0.15235245186534024  0.2504185114451189  0.7116473992768138  1.0000
  C   C37       1.0  0.8476684513033417  0.7496643552053042  0.2883397134755084  1.0000
  C   C38       1.0  0.2545819648622897  0.32248366028448316  0.7755810330083861  1.0000
  C   C39       1.0  0.7454365823676882  0.677598533957493  0.22441092202476653  1.0000
  C   C40       1.0  0.7745600506741751  0.38701972798274636  0.8880224553991098  1.0000
  C   C41       1.0  0.22546131180479265  0.61296329602289  0.11190140967133289  1.0000
  C   C42       1.0  0.29520389477503517  0.3389518076756841  0.8662218446846595  1.0000
  C   C43       1.0  0.7048401839586589  0.6610475260982297  0.1337670482115101  1.0000
  C   C44       1.0  0.23086266776676467  0.2815732797698587  0.89115833075045  1.0000
  C   C45       1.0  0.471579734056206  0.955381610739195  0.9214790891654304  1.0000
  C   C46       1.0  0.7692355293155444  0.7183453677971697  0.10883488783569108  1.0000
  C   C47       1.0  0.1286937393528617  0.20920985580799095  0.8271732579904736  1.0000
  C   C48       1.0  0.8714100840349416  0.7907068138800283  0.17281997068479873  1.0000
  C   C49       1.0  0.08901812190264018  0.19351304534170308  0.7372116317326416  1.0000
  C   C50       1.0  0.9110476917989275  0.8064857320641037  0.26277585866304776  1.0000
  C   C51       1.0  0.4133892821310353  0.4752034978899502  0.9975267068975456  1.0000
  C   C52       1.0  0.5866391302863646  0.5247950948860732  0.002468173176687477  1.0000
  C   C53       1.0  0.508956304626004  0.5553361220751042  0.06118983279321807  1.0000
  C   C54       1.0  0.49106965323539936  0.4446644610493065  0.9388027687847967  1.0000
  C   C55       1.0  0.5987490141069712  0.5813739497692082  0.06520355945013985  1.0000
  C   C56       1.0  0.5284683792191984  0.04462376866765538  0.07851015158914976  1.0000
  C   C57       1.0  0.40128380631685445  0.41862934818768577  0.934789667767788  1.0000
  C   C58       1.0  0.8261806499620902  0.15831986641939005  0.9214098294101446  1.0000
  C   C59       1.0  0.17366045920940082  0.8415924515655814  0.07844077976662324  1.0000
  C   C60       1.0  0.8646943035428338  0.24736944685272277  0.9556183346747176  1.0000
  C   C61       1.0  0.13520273893620757  0.7525539353611773  0.044262260898101084  1.0000
  C   C62       1.0  0.8994433322282945  0.3101505542080502  0.9156851341323177  1.0000
  C   C63       1.0  0.10056911068230763  0.689793645330958  0.08425987411082045  1.0000
  C   C64       1.0  0.21950476964028098  0.11355659994450917  0.6120476254470121  1.0000
  C   C65       1.0  0.7804857712986147  0.886390919818957  0.3879439185197384  1.0000
  C   C66       1.0  0.8950147442122044  0.28199014868469857  0.8416977738775414  1.0000
  C   C67       1.0  0.4043841853676181  0.9214313740816631  0.9598789806599796  1.0000
  C   C68       1.0  0.10506674211633527  0.7179658739079924  0.15828741815928987  1.0000
  C   C69       1.0  0.8554549151563933  0.19254378697291227  0.8073050353220239  1.0000
  C   C70       1.0  0.14457217086891191  0.8074025142695614  0.1926481972892162  1.0000
  C   C71       1.0  0.8211690409277779  0.130717386435883  0.8471669435510591  1.0000
  C   C72       1.0  0.1787267645819808  0.8692013041196487  0.15271358078346958  1.0000
  C   C73       1.0  0.05554464953547713  0.4654918019304971  0.010979404817568627  1.0000
  C   C74       1.0  0.9444717974685516  0.5344631280164405  0.9889659501225837  1.0000
  C   C75       1.0  0.1089501709038741  0.5570511116455134  0.05398936025142825  1.0000
  C   C76       1.0  0.8910733551308426  0.44290117918600186  0.9459561654451749  1.0000
  C   C77       1.0  0.05287616971853723  0.5933067765715803  0.04334567286879578  1.0000
  C   C78       1.0  0.5956626583531489  0.07857400160116865  0.04011182063243262  1.0000
  C   C79       1.0  0.9471480961220208  0.4066428438870202  0.9566012945234094  1.0000
  C   C80       1.0  0.49253278117981836  0.38652916901165185  0.8828085937207035  1.0000
  C   C81       1.0  0.5074808297017198  0.6134633106712852  0.11718069644166465  1.0000
  C   C82       1.0  0.49165043479497683  0.10151714248982557  0.6096200501849438  1.0000
  C   C83       1.0  0.5083482439459245  0.8984584090302118  0.3903090893173768  1.0000
  C   C84       1.0  0.40075634773729246  0.9518846353103355  0.47648746662768104  1.0000
  C   C85       1.0  0.5992496140121377  0.04809898369274629  0.5234403401915985  1.0000
  C   C86       1.0  0.4742168732980186  0.9197725199434994  0.5125950628590132  1.0000
  C   C87       1.0  0.5257890927255673  0.08021109274086059  0.48732947808525023  1.0000
  C   C88       1.0  0.5054843032012286  0.9536762737367109  0.4466694107596539  1.0000
  C   C89       1.0  0.5040256319255147  0.9488496421219849  0.0530051228134454  1.0000
  C   C90       1.0  0.49452543320202846  0.04631204647899519  0.553256434847235  1.0000
  O   O1        1.0  0.49708423106878297  0.2470007722325248  0.7475302854070236  1.0000
  O   O2        1.0  0.562450265493325  0.8663776320302571  0.12954549944429067  1.0000
  O   O3        1.0  0.4513113588798348  0.3021693912342016  0.5683029683452078  1.0000
  O   O4        1.0  0.5485069906123596  0.6978474669312714  0.43167847588933467  1.0000
  O   O5        1.0  0.5549788976096295  0.12478786908122425  0.8634931513874163  1.0000
  O   O6        1.0  0.4451191129733159  0.8752754329276581  0.1365472386946536  1.0000
  O   O7        1.0  0.7335760859950256  0.42954722120978767  0.8632808428216805  1.0000
  O   O8        1.0  0.2664720083582777  0.5704556692050032  0.13680533027273603  1.0000
  O   O9        1.0  0.2631414995057284  0.12374306431517106  0.6945061570480392  1.0000
  O   O10       1.0  0.7368509808858191  0.8762660604722609  0.30549631460241505  1.0000
  O   O11       1.0  0.5580458951695704  0.42755447827420306  0.863224955568633  1.0000
  O   O12       1.0  0.5029066495079562  0.7529547366103343  0.25243857164717537  1.0000
  O   O13       1.0  0.44197845192580576  0.5724267120536691  0.13678042166687016  1.0000
  O   O14       1.0  0.4243260023622142  0.11824939204532106  0.569860229864048  1.0000
  O   O15       1.0  0.5757887612735713  0.8818499202526264  0.4300669630325445  1.0000
  O   O16       1.0  0.4318494348279458  0.30194241226793384  0.8625091677765653  1.0000
  O   O17       1.0  0.5681446599740666  0.6980472532083509  0.13746298768664642  1.0000
  O   O18       1.0  0.5590073805700015  0.1293625410600399  0.6932975445491111  1.0000
  O   O19       1.0  0.4408714106913009  0.8704731874417673  0.3066441705409915  1.0000
  O   O20       1.0  0.30182725572914365  0.9060605014163269  0.4565923452866443  1.0000
  O   O21       1.0  0.6981855977551066  0.09393255184983929  0.5433497373768361  1.0000
  O   O22       1.0  0.8677443780651758  0.27049775996876935  0.028743680195155618  1.0000
  O   O23       1.0  0.727238967448301  0.30248731313201915  0.8694388312692496  1.0000
  O   O24       1.0  0.132081272893174  0.7294131151986817  0.9710955864272678  1.0000
  O   O25       1.0  0.8513693567943934  0.16788125284109864  0.7328407460168408  1.0000
  O   O26       1.0  0.1487113578553119  0.8320821270057478  0.26714409178800486  1.0000
  O   O27       1.0  0.27274950837792006  0.6974637440409379  0.1303120688786237  1.0000
  O   O28       1.0  0.2643822943090798  0.14669419020885496  0.5726796185805654  1.0000
  O   O29       1.0  0.735599624074666  0.8531769479039679  0.427292254412329  1.0000
  O   O30       1.0  0.5504248897233168  0.42317086241259005  0.6911612071179078  1.0000
  O   O31       1.0  0.44966079160211325  0.5768155018688571  0.30892796643418297  1.0000
  O   O32       1.0  0.43753478213382385  0.13357379179647913  0.8704036216113238  1.0000
