data_image0
_chemical_formula_structural       Cu4H24C24N24O12
_chemical_formula_sum              "Cu4 H24 C24 N24 O12"
_cell_length_a       6.8226397445899964
_cell_length_b       9.357103416074066
_cell_length_c       14.412082511918975
_cell_angle_alpha    94.17151580403716
_cell_angle_beta     90.00048145963079
_cell_angle_gamma    89.99685879172331

_space_group_name_H-M_alt    "P 1"
_space_group_IT_number       1

loop_
  _space_group_symop_operation_xyz
  'x, y, z'

loop_
  _atom_site_type_symbol
  _atom_site_label
  _atom_site_symmetry_multiplicity
  _atom_site_fract_x
  _atom_site_fract_y
  _atom_site_fract_z
  _atom_site_occupancy
  Cu  Cu1       1.0  0.4868882766875373  0.5292716941577422  0.6400898831904982  1.0000
  Cu  Cu2       1.0  0.9868971356391683  0.9707285919556695  0.8599083561990924  1.0000
  Cu  Cu3       1.0  0.5131153691871901  0.4707306549417751  0.3599116213819187  1.0000
  Cu  Cu4       1.0  0.013109441667609198  0.029272678886073288  0.1400903230865822  1.0000
  H   H1        1.0  0.24488183998836632  0.7295021020651615  0.7807428702658754  1.0000
  H   H2        1.0  0.7448695146189478  0.7704917376243966  0.7192499558959113  1.0000
  H   H3        1.0  0.7551218058802647  0.2705002453705773  0.2192579403665533  1.0000
  H   H4        1.0  0.255126802585707  0.22951274139931846  0.2807460962085955  1.0000
  H   H5        1.0  0.029799964320822905  0.10528998098448739  0.6825948572376745  1.0000
  H   H6        1.0  0.5297991152234829  0.39472099515445075  0.8174050679607775  1.0000
  H   H7        1.0  0.9701978188305773  0.8947102334621132  0.317410017968875  1.0000
  H   H8        1.0  0.47019866780880903  0.6052802692072418  0.18259083555572891  1.0000
  H   H9        1.0  0.20336700637020744  0.04792796910860629  0.5294039208499584  1.0000
  H   H10       1.0  0.7033704377159394  0.4520750175893864  0.9705935424096666  1.0000
  H   H11       1.0  0.7966219824608345  0.9520733087384413  0.4705975341772799  1.0000
  H   H12       1.0  0.2966346739712762  0.5479230303297767  0.029401518584990096  1.0000
  H   H13       1.0  0.3984179359131589  0.8163069335628562  0.5116905794395024  1.0000
  H   H14       1.0  0.8984183714583976  0.6836754329307196  0.988301626560002  1.0000
  H   H15       1.0  0.6015637245047073  0.18369004993405005  0.4883072077607267  1.0000
  H   H16       1.0  0.1015852745419323  0.31632153848198635  0.011691303083303205  1.0000
  H   H17       1.0  0.5534609455911621  0.22123938958598893  0.6810250963605283  1.0000
  H   H18       1.0  0.0534570624210033  0.2787642168698028  0.8189752751277481  1.0000
  H   H19       1.0  0.44653683756023105  0.7787608248606117  0.3189797788460211  1.0000
  H   H20       1.0  0.946542186411378  0.7212349077017135  0.18102191721059313  1.0000
  H   H21       1.0  0.747938469123433  0.29165400704840033  0.6497931671070774  1.0000
  H   H22       1.0  0.2479389595276587  0.20834507350316758  0.8502091479759386  1.0000
  H   H23       1.0  0.25206077968433505  0.70834727558573  0.3502103697508759  1.0000
  H   H24       1.0  0.752061755156774  0.7916508430614538  0.1497906715343618  1.0000
  C   C1        1.0  0.85061933543831  0.6117042087496286  0.4269264089907239  1.0000
  C   C2        1.0  0.3506175205298304  0.8882889039853126  0.07307062544499132  1.0000
  C   C3        1.0  0.14939163908209707  0.38829600377056284  0.5730777722896434  1.0000
  C   C4        1.0  0.6493875912032507  0.11170807405335377  0.9269250799598154  1.0000
  C   C5        1.0  0.8796091429176159  0.5991855221895079  0.32476972993465847  1.0000
  C   C6        1.0  0.379638984029441  0.9007989613989476  0.17523812155261  1.0000
  C   C7        1.0  0.12038570893933809  0.4008125608733763  0.6752399037890768  1.0000
  C   C8        1.0  0.6203617306000666  0.09919694019162507  0.8247554524977688  1.0000
  C   C9        1.0  0.23809095531288446  0.8012575650361382  0.7248071615600153  1.0000
  C   C10       1.0  0.7380864742707941  0.6987386996342336  0.7751906070335295  1.0000
  C   C11       1.0  0.7619053620567372  0.19874479419198818  0.2751985066446778  1.0000
  C   C12       1.0  0.2619142400710999  0.3012657826295068  0.224806832955565  1.0000
  C   C13       1.0  0.11967187854974531  0.0097013116980094  0.669780908717499  1.0000
  C   C14       1.0  0.6196802067609753  0.4903060840414993  0.830218510689086  1.0000
  C   C15       1.0  0.880320041523568  0.9903053304672151  0.3302235697219871  1.0000
  C   C16       1.0  0.38032490483745823  0.5096951868294255  0.16978016859506082  1.0000
  C   C17       1.0  0.2161048084443209  0.977623764304063  0.5860573517317674  1.0000
  C   C18       1.0  0.7161072334484687  0.5223765786676537  0.9139356618526335  1.0000
  C   C19       1.0  0.7838856461623963  0.022375367097673394  0.4139426163573248  1.0000
  C   C20       1.0  0.2838934810097697  0.4776236057724787  0.08605672243714221  1.0000
  C   C21       1.0  0.32471112656485696  0.8512967098520573  0.5768663146760673  1.0000
  C   C22       1.0  0.8247144951422098  0.6486961022606365  0.9231302473770029  1.0000
  C   C23       1.0  0.6752719994174542  0.1487056463111358  0.42313796563484374  1.0000
  C   C24       1.0  0.1752906165174437  0.3513030205303734  0.07686625102748221  1.0000
  N   N1        1.0  0.955204405778801  0.681449576299073  0.4947643636027337  1.0000
  N   N2        1.0  0.4552242081160003  0.8185393815813952  0.0052370534346977025  1.0000
  N   N3        1.0  0.0447963088810184  0.3185484983281696  0.5052418004271786  1.0000
  N   N4        1.0  0.5447765064461834  0.1814586664253071  0.9947580075553547  1.0000
  N   N5        1.0  0.8574562741012031  0.6621099081856199  0.573314090596746  1.0000
  N   N6        1.0  0.3574791821802635  0.8378805381181563  0.926686654135807  1.0000
  N   N7        1.0  0.1425341806950868  0.3378849453579136  0.4266891490729278  1.0000
  N   N8        1.0  0.6425200666979833  0.16211751657286297  0.0733111826126773  1.0000
  N   N9        1.0  0.6980163581378419  0.5834696632595281  0.5528769050909901  1.0000
  N   N10       1.0  0.19802346777678537  0.9165260637792794  0.9471248442024917  1.0000
  N   N11       1.0  0.3019755622260406  0.41652948142329643  0.44712861451957053  1.0000
  N   N12       1.0  0.8019787126374497  0.08346877622053478  0.052872843959527  1.0000
  N   N13       1.0  0.6911000956655826  0.5507704760558239  0.46151017174214104  1.0000
  N   N14       1.0  0.19109895632405474  0.9492257821474933  0.038489849865975104  1.0000
  N   N15       1.0  0.30890208455888063  0.4492308065199494  0.5384933651188746  1.0000
  N   N16       1.0  0.8089076211356883  0.050771200853333184  0.9615079373603378  1.0000
  N   N17       1.0  0.33616220036552147  0.7641257012260212  0.6467459518719707  1.0000
  N   N18       1.0  0.8361577857153221  0.7358644953521604  0.8532435956851073  1.0000
  N   N19       1.0  0.6638341170287062  0.23587449993949144  0.3532533718131177  1.0000
  N   N20       1.0  0.16384732586480064  0.26413677052740775  0.1467530017790608  1.0000
  N   N21       1.0  0.13148561667996012  0.9211935675736522  0.739377896019974  1.0000
  N   N22       1.0  0.631481082626614  0.5788090783817808  0.7606169727048524  1.0000
  N   N23       1.0  0.8685180293538367  0.07880449534874147  0.2606234104330625  1.0000
  N   N24       1.0  0.368516700405678  0.4211921859799119  0.23937893081166098  1.0000
  O   O1        1.0  0.7405829105501455  0.5332987524945592  0.27915409327518853  1.0000
  O   O2        1.0  0.2405646458298278  0.9667041130703851  0.2208485099614137  1.0000
  O   O3        1.0  0.259433926641421  0.46670682761301635  0.7208544993004864  1.0000
  O   O4        1.0  0.7594433972955345  0.03329285825477509  0.7791444196864886  1.0000
  O   O5        1.0  0.026925087367999395  0.6535586827750206  0.288385452840707  1.0000
  O   O6        1.0  0.5269069267677011  0.8464473309084466  0.2116157615339631  1.0000
  O   O7        1.0  0.9730976122592877  0.34645761265864633  0.711623635039544  1.0000
  O   O8        1.0  0.473098185356946  0.15353893002361468  0.7883787546324044  1.0000
  O   O9        1.0  0.6094543467940383  0.27667932484649777  0.6314786812250831  1.0000
  O   O10       1.0  0.10944231305310129  0.22332312208621372  0.8685211630615014  1.0000
  O   O11       1.0  0.39053757307119247  0.7233337549033364  0.3685295640934285  1.0000
  O   O12       1.0  0.8905525391314341  0.776663144041464  0.1314754349141012  1.0000
