data_image0
_chemical_formula_structural       Co6P4H12C16S4Br4O16
_chemical_formula_sum              "Co6 P4 H12 C16 S4 Br4 O16"
_cell_length_a       5.3195335157908135
_cell_length_b       10.545509201534617
_cell_length_c       15.057604690912544
_cell_angle_alpha    106.91674211065082
_cell_angle_beta     89.99634072416461
_cell_angle_gamma    90.01212072205318

_space_group_name_H-M_alt    "P 1"
_space_group_IT_number       1

loop_
  _space_group_symop_operation_xyz
  'x, y, z'

loop_
  _atom_site_type_symbol
  _atom_site_label
  _atom_site_symmetry_multiplicity
  _atom_site_fract_x
  _atom_site_fract_y
  _atom_site_fract_z
  _atom_site_occupancy
  Co  Co1       1.0  0.5025192031305749  0.501791408679864  0.5002463962753652  1.0000
  Co  Co2       1.0  0.0005562840480521999  0.00048750248098629957  0.4992857034964048  1.0000
  Co  Co3       1.0  0.7051666577065134  0.2887797762144117  0.5704895768515287  1.0000
  Co  Co4       1.0  0.20634985129245817  0.20998648132161424  0.42988503388679794  1.0000
  Co  Co5       1.0  0.2934798704109909  0.7126417727477373  0.4287080271479908  1.0000
  Co  Co6       1.0  0.7942827265493831  0.7877610063561348  0.5715677317765469  1.0000
  P   P1        1.0  0.0170237742118289  0.5509746706892711  0.6384308218803838  1.0000
  P   P2        1.0  0.5146730835871124  0.948838097199008  0.361115484726767  1.0000
  P   P3        1.0  0.9852881231175203  0.44922448739439585  0.36202411548404  1.0000
  P   P4        1.0  0.48465358185773516  0.050821893937154486  0.6381304699869688  1.0000
  H   H1        1.0  0.9654332636656516  0.6933490347478325  0.9895775358086568  1.0000
  H   H2        1.0  0.4661920927177191  0.8062800779952253  0.009994625730968161  1.0000
  H   H3        1.0  0.03470910171355969  0.3059483185989222  0.010644903174103607  1.0000
  H   H4        1.0  0.534668567246861  0.1935735118818371  0.9894254012385562  1.0000
  H   H5        1.0  0.37563948875405356  0.4136833951256094  0.7433171086330719  1.0000
  H   H6        1.0  0.8742547344849712  0.0863569977801646  0.256710003655698  1.0000
  H   H7        1.0  0.6248994515697034  0.5853467383233947  0.2571390927844917  1.0000
  H   H8        1.0  0.125197950545072  0.9138174748961131  0.7429854337626624  1.0000
  H   H9        1.0  0.33370901410313536  0.7277132083186331  0.5938528764211455  1.0000
  H   H10       1.0  0.834286195686971  0.7726799194835647  0.4062472714830534  1.0000
  H   H11       1.0  0.6642535143365718  0.2752049136732282  0.405836764850342  1.0000
  H   H12       1.0  0.1645682620690465  0.22631092616543214  0.5955417051566982  1.0000
  C   C1        1.0  0.02872362264775319  0.6392354089556205  0.9204376586101547  1.0000
  C   C2        1.0  0.5290149522622443  0.860422453783997  0.07919725433337993  1.0000
  C   C3        1.0  0.9714224696437055  0.35992181035202714  0.07982427617692171  1.0000
  C   C4        1.0  0.4716464352773854  0.13940817337882547  0.9202459310335913  1.0000
  C   C5        1.0  0.9449749969404807  0.6490343133247974  0.8364067556478361  1.0000
  C   C6        1.0  0.44453952321894963  0.8505808070035313  0.1631391088888563  1.0000
  C   C7        1.0  0.0553308753714035  0.3500744035436512  0.16383520974643062  1.0000
  C   C8        1.0  0.5558285887800168  0.14914495733289362  0.8362439285171988  1.0000
  C   C9        1.0  0.07027589373808499  0.5615910107488773  0.7579916776871445  1.0000
  C   C10       1.0  0.5690638515309487  0.938218892193717  0.2416676581475414  1.0000
  C   C11       1.0  0.9302762249058601  0.43746873765090993  0.2423145645072111  1.0000
  C   C12       1.0  0.43078732738081976  0.061663417257236085  0.7577529924232138  1.0000
  C   C13       1.0  0.24947649005651573  0.48700762352007115  0.7866048941092387  1.0000
  C   C14       1.0  0.7484839837854764  0.012947925498885102  0.2132529539846715  1.0000
  C   C15       1.0  0.7510229996157276  0.5121142645685808  0.21376796145265334  1.0000
  C   C16       1.0  0.25134653733361734  0.9870992087368576  0.7863265536782791  1.0000
  S   S1        1.0  0.2635520491476554  0.5231107121125474  0.904968683532772  1.0000
  S   S2        1.0  0.7636374856422067  0.9767413141137736  0.09491524457851601  1.0000
  S   S3        1.0  0.7366654749955756  0.47607863354058105  0.0954048089357471  1.0000
  S   S4        1.0  0.23679834167840133  0.02326703048922949  0.9046861393570893  1.0000
  Br  Br1       1.0  0.6879897350526604  0.7693221387816107  0.8274264959302968  1.0000
  Br  Br2       1.0  0.18767329844646946  0.7300141693831391  0.1718587289680471  1.0000
  Br  Br3       1.0  0.3121488106892372  0.2296620174575636  0.17273000463598723  1.0000
  Br  Br4       1.0  0.8129015712102114  0.269562023347511  0.8274788398306898  1.0000
  O   O1        1.0  0.22777586306064984  0.4673241802152078  0.582168703857093  1.0000
  O   O2        1.0  0.7236957752746633  0.0335808063055865  0.41763717451611637  1.0000
  O   O3        1.0  0.773945983089888  0.533667667446437  0.4175976993049347  1.0000
  O   O4        1.0  0.27291283765164553  0.9674213617523504  0.5821872042757192  1.0000
  O   O5        1.0  0.7545920545293684  0.4848727397253469  0.6106466339522074  1.0000
  O   O6        1.0  0.2509629714316404  0.014261335241016599  0.38836890593428564  1.0000
  O   O7        1.0  0.24670689712289828  0.5164792519965999  0.3891263289034371  1.0000
  O   O8        1.0  0.7460681278503782  0.9839461952668881  0.6102759332742949  1.0000
  O   O9        1.0  0.016766959571704397  0.6958449799451571  0.6334209174771956  1.0000
  O   O10       1.0  0.5152551457644705  0.8042194486055433  0.36637454490178806  1.0000
  O   O11       1.0  0.9855957514172003  0.3052458824006976  0.3685216405192265  1.0000
  O   O12       1.0  0.4852558456492843  0.1954922527163774  0.6328628037280455  1.0000
  O   O13       1.0  0.4643852527842114  0.704384380714444  0.5449942711351669  1.0000
  O   O14       1.0  0.9645503121026734  0.7968914945428976  0.4551653540847127  1.0000
  O   O15       1.0  0.5323215107768106  0.29826244364100774  0.4542223503892587  1.0000
  O   O16       1.0  0.03379860236098859  0.2028405843949699  0.5467984554029643  1.0000
