data_image0
_chemical_formula_structural       Al2H22C32N2O10
_chemical_formula_sum              "Al2 H22 C32 N2 O10"
_cell_length_a       6.635522160938609
_cell_length_b       17.01249452757144
_cell_length_c       17.780387268997238
_cell_angle_alpha    86.64279274080188
_cell_angle_beta     78.59901379185212
_cell_angle_gamma    81.93860206283645

_space_group_name_H-M_alt    "P 1"
_space_group_IT_number       1

loop_
  _space_group_symop_operation_xyz
  'x, y, z'

loop_
  _atom_site_type_symbol
  _atom_site_label
  _atom_site_symmetry_multiplicity
  _atom_site_fract_x
  _atom_site_fract_y
  _atom_site_fract_z
  _atom_site_occupancy
  Al  Al1       1.0  0.5001183285935654  0.49997255302264415  0.5000033354304705  1.0000
  Al  Al2       1.0  0.00010437022735488427  0.4999582819190564  0.5000511253375635  1.0000
  H   H1        1.0  0.7546680910256853  0.5823403697805245  0.43397944710572034  1.0000
  H   H2        1.0  0.24615189882032243  0.41720594012900847  0.5655283848759112  1.0000
  H   H3        1.0  0.17016422119955618  0.2598661480243932  0.4678351635062654  1.0000
  H   H4        1.0  0.22413318110820057  0.11058597062277897  0.4678225329202377  1.0000
  H   H5        1.0  0.5642332676057649  0.10902580978063268  0.5260979883515092  1.0000
  H   H6        1.0  0.5105098244624741  0.25873953403628047  0.5256624124849056  1.0000
  H   H7        1.0  0.4359506727774446  0.8908948029572058  0.4738367230033163  1.0000
  H   H8        1.0  0.7760408409969628  0.8893372505569487  0.5320728391747097  1.0000
  H   H9        1.0  0.8300278159553403  0.7400483548111436  0.5321285113219645  1.0000
  H   H10       1.0  0.4896845981853416  0.7411805391851088  0.47436436034278984  1.0000
  H   H11       1.0  0.6575479181306748  0.5302154061615383  0.26776797925359835  1.0000
  H   H12       1.0  0.7289490479646545  0.5384884102606476  0.12429875500978943  1.0000
  H   H13       1.0  0.177179635227347  0.4309031119470815  0.1260414460712695  1.0000
  H   H14       1.0  0.822212041627971  0.5694126851069823  0.8740099241130822  1.0000
  H   H15       1.0  0.3423481153239649  0.46988966609593763  0.7322273759584732  1.0000
  H   H16       1.0  0.2705028758245406  0.46183187471734033  0.8756900540263715  1.0000
  H   H17       1.0  0.9326114978151523  0.45296125031381956  0.3111075697159649  1.0000
  H   H18       1.0  0.09778006771866642  0.3646362526115965  0.3204969406004353  1.0000
  H   H19       1.0  0.9855273156557303  0.3826809531876306  0.23691117352046118  1.0000
  H   H20       1.0  0.014511885485340823  0.6172963883011561  0.7631859153457585  1.0000
  H   H21       1.0  0.9024943828821891  0.6353952975463527  0.6795487125434578  1.0000
  H   H22       1.0  0.06732408459347995  0.5469863551805503  0.6890070347730203  1.0000
  C   C1        1.0  0.33374464940153814  0.48609909416488506  0.3621380785020776  1.0000
  C   C2        1.0  0.19264652158166481  0.6438144943102697  0.4999298973060747  1.0000
  C   C3        1.0  0.666369577609366  0.5138845450160614  0.637890215450412  1.0000
  C   C4        1.0  0.807554618951727  0.35610371484772674  0.5001105394312121  1.0000
  C   C5        1.0  0.8373845823100794  0.26766608373952033  0.4980898736864036  1.0000
  C   C6        1.0  0.03898057515811361  0.226028693566704  0.4811234203044421  1.0000
  C   C7        1.0  0.06931352505631591  0.1437509379135875  0.481182860932293  1.0000
  C   C8        1.0  0.896540204268767  0.1017176165826328  0.4986477936133157  1.0000
  C   C9        1.0  0.6949905281079722  0.14314899394376818  0.5136447740868137  1.0000
  C   C10       1.0  0.6656867867809737  0.22568901869724559  0.513523261043737  1.0000
  C   C11       1.0  0.30520202117032375  0.8567733899944158  0.4862909056109928  1.0000
  C   C12       1.0  0.10363844797091575  0.8982007122845771  0.5012716719178698  1.0000
  C   C13       1.0  0.9308718281169635  0.8561654942552719  0.5187558956677663  1.0000
  C   C14       1.0  0.9612060305479133  0.7738881757664727  0.518842219104613  1.0000
  C   C15       1.0  0.16279248174755895  0.7322511617911757  0.5019141267897214  1.0000
  C   C16       1.0  0.33449884118791573  0.7742348376848228  0.4864662806559608  1.0000
  C   C17       1.0  0.374892825894179  0.47948912848025294  0.277100533385692  1.0000
  C   C18       1.0  0.5528096099078965  0.5092259001838144  0.23568971762453833  1.0000
  C   C19       1.0  0.5928652128927469  0.513833513587059  0.1561509126210794  1.0000
  C   C20       1.0  0.45331899678500065  0.4873616772810082  0.11584959638182109  1.0000
  C   C21       1.0  0.28058015435380684  0.4537031055646493  0.1577119458135954  1.0000
  C   C22       1.0  0.2374095816889437  0.44920683374465387  0.2378867697662486  1.0000
  C   C23       1.0  0.4855132897157972  0.495537576983935  0.034910202590055006  1.0000
  C   C24       1.0  0.5135533299304386  0.5050045625677343  0.9651501022230207  1.0000
  C   C25       1.0  0.5459902965434865  0.5130243172045751  0.8841862465107226  1.0000
  C   C26       1.0  0.7188900686376982  0.5465853626165255  0.8423350654076246  1.0000
  C   C27       1.0  0.7623954486026747  0.5509163983815312  0.7621593131204278  1.0000
  C   C28       1.0  0.625038075806458  0.5205854372808645  0.7229303742808568  1.0000
  C   C29       1.0  0.4470244338249286  0.4908939939499248  0.7643150433763921  1.0000
  C   C30       1.0  0.40663229782617094  0.48646110676947524  0.843856672378813  1.0000
  C   C31       1.0  0.05331841270612614  0.41049139745599916  0.2784737873364734  1.0000
  C   C32       1.0  0.946703625583204  0.5895229005781245  0.7216001891032988  1.0000
  N   N1        1.0  0.9090828328807277  0.0180726067660757  0.5018063641726727  1.0000
  N   N2        1.0  0.09109617805304285  0.9818405006166983  0.49809196711877496  1.0000
  O   O1        1.0  0.4899329242301036  0.4807414420569742  0.39491273414311223  1.0000
  O   O2        1.0  0.029948023031209935  0.6098477233420139  0.5084508762235345  1.0000
  O   O3        1.0  0.8555381354955501  0.4993844847912285  0.6042770888867964  1.0000
  O   O4        1.0  0.6219906672551334  0.39140581776845795  0.5111855484236969  1.0000
  O   O5        1.0  0.5102635554622026  0.5192180529994913  0.6050736485756687  1.0000
  O   O6        1.0  0.9702603867450179  0.39005687338094924  0.491683643192637  1.0000
  O   O7        1.0  0.1446004717231588  0.5005632642737439  0.3957945457322865  1.0000
  O   O8        1.0  0.37821032311720154  0.6085091475967842  0.48879994558937784  1.0000
  O   O9        1.0  0.7569347965422396  0.5332179296040848  0.4642991607021473  1.0000
  O   O10       1.0  0.24335768223762244  0.46666700024447744  0.5357379703268564  1.0000
