data_image0
_chemical_formula_structural       Zn4H9C21IO14
_chemical_formula_sum              "Zn4 H9 C21 I1 O14"
_cell_length_a       13.138932358801508
_cell_length_b       13.219428153081566
_cell_length_c       16.045535848506393
_cell_angle_alpha    79.28324008292859
_cell_angle_beta     81.11812352651201
_cell_angle_gamma    90.46096503148607

_space_group_name_H-M_alt    "P 1"
_space_group_IT_number       1

loop_
  _space_group_symop_operation_xyz
  'x, y, z'

loop_
  _atom_site_type_symbol
  _atom_site_label
  _atom_site_symmetry_multiplicity
  _atom_site_fract_x
  _atom_site_fract_y
  _atom_site_fract_z
  _atom_site_occupancy
  Zn  Zn1       1.0  0.4277216096001553  0.4050887852039367  0.4492060718387947  1.0000
  Zn  Zn2       1.0  0.5939577751209697  0.4149446345001663  0.5706232730126289  1.0000
  Zn  Zn3       1.0  0.4024993269952546  0.5695895421575088  0.5728321190364839  1.0000
  Zn  Zn4       1.0  0.581219167025651  0.6026330534078355  0.41141805174540014  1.0000
  H   H1        1.0  0.5639751632485996  0.5831747712473785  0.9763421551676786  1.0000
  H   H2        1.0  0.4458504185840085  0.9199075969494643  0.3952157271950795  1.0000
  H   H3        1.0  0.9140799323059879  0.4284051315502495  0.5362800417618632  1.0000
  H   H4        1.0  0.0830944432611815  0.6064773641253609  0.5007900581264053  1.0000
  H   H5        1.0  0.9056896189008016  0.6580201224054959  0.4538939794643185  1.0000
  H   H6        1.0  0.08855112235402632  0.368976971752737  0.5422267423463651  1.0000
  H   H7        1.0  0.49092495072811465  0.9011352550970175  0.5807089017124198  1.0000
  H   H8        1.0  0.5649041776593934  0.06862150947048921  0.5989680728159784  1.0000
  H   H9        1.0  0.3397832983313123  0.145683940118758  0.4669209726395138  1.0000
  C   C1        1.0  0.7713854001753332  0.5509260300155319  0.4798938181723075  1.0000
  C   C2        1.0  0.4722694297179402  0.9402455202963793  0.5188941591449847  1.0000
  C   C3        1.0  0.5214587876145629  0.10693879807251248  0.5501811698964189  1.0000
  C   C4        1.0  0.22868435235527326  0.4640215230027706  0.5282380887228443  1.0000
  C   C5        1.0  0.4706123913194986  0.052260159255325817  0.5046903400450518  1.0000
  C   C6        1.0  0.525455381006907  0.2203632885956637  0.5332834697557942  1.0000
  C   C7        1.0  0.46913716995128146  0.7707225670714523  0.47455253556428534  1.0000
  C   C8        1.0  0.483423477450458  0.47403669436872076  0.7286747201184198  1.0000
  C   C9        1.0  0.5110577972215397  0.5111934987923945  0.2755967748358259  1.0000
  C   C10       1.0  0.47612501564504583  0.46441582223253863  0.8204284613729272  1.0000
  C   C11       1.0  0.46714757312588534  0.45246320703977005  0.9860834056299624  1.0000
  C   C12       1.0  0.515281382541808  0.5167376400654861  0.10883379826427836  1.0000
  C   C13       1.0  0.5178296716136758  0.5208479697452759  0.021020996733526035  1.0000
  C   C14       1.0  0.40701792330383313  0.10487158120784561  0.4394351588815582  1.0000
  C   C15       1.0  0.4716857462467701  0.458714790082034  0.897737613775263  1.0000
  C   C16       1.0  0.5147376319959918  0.5153609256649716  0.1852119461798267  1.0000
  C   C17       1.0  0.11655384843827932  0.4490103494151896  0.5319362222603274  1.0000
  C   C18       1.0  0.052311191619161014  0.5269392791305735  0.5151757406487789  1.0000
  C   C19       1.0  0.8802026566129371  0.5784261514503443  0.4813925387264604  1.0000
  C   C20       1.0  0.9449917449218576  0.5073680949325592  0.5125637825964162  1.0000
  C   C21       1.0  0.4577256544807824  0.8836333932261341  0.45962628476016226  1.0000
  I   I1        1.0  0.37691332796224225  0.3276908141880241  0.0630533659605632  1.0000
  O   O1        1.0  0.5022470732098371  0.4979233170373405  0.5024007184659283  1.0000
  O   O2        1.0  0.5633588486938096  0.43782232989159553  0.690638510033942  1.0000
  O   O3        1.0  0.577271778635371  0.5680084651952555  0.297894117361011  1.0000
  O   O4        1.0  0.40917719198651537  0.5183126544091081  0.6956439949475525  1.0000
  O   O5        1.0  0.4412222984377366  0.450450910365646  0.3249231258678904  1.0000
  O   O6        1.0  0.4214679932101718  0.0965086549238237  0.3640672447999194  1.0000
  O   O7        1.0  0.4810552895212084  0.2654152702390675  0.47137756289475163  1.0000
  O   O8        1.0  0.5106540632210823  0.7346808910243181  0.4093417753720915  1.0000
  O   O9        1.0  0.7358476494977068  0.4621726851082002  0.5211682406808862  1.0000
  O   O10       1.0  0.26301351093503206  0.5468230891231656  0.5462803293418689  1.0000
  O   O11       1.0  0.7214797911486313  0.6192461833880218  0.4365956030464987  1.0000
  O   O12       1.0  0.2829175733531956  0.3903820788876828  0.505966306452642  1.0000
  O   O13       1.0  0.5733397959977681  0.2650822131015431  0.5807366600031686  1.0000
  O   O14       1.0  0.43729644012813645  0.7186098623987152  0.5498232887705966  1.0000
