data_image0
_chemical_formula_structural       Cu2H20C36N8O8
_chemical_formula_sum              "Cu2 H20 C36 N8 O8"
_cell_length_a       6.785961213420988
_cell_length_b       8.267338497008081
_cell_length_c       14.22034028821171
_cell_angle_alpha    106.23595070407794
_cell_angle_beta     97.54344667101336
_cell_angle_gamma    93.09458718679697

_space_group_name_H-M_alt    "P 1"
_space_group_IT_number       1

loop_
  _space_group_symop_operation_xyz
  'x, y, z'

loop_
  _atom_site_type_symbol
  _atom_site_label
  _atom_site_symmetry_multiplicity
  _atom_site_fract_x
  _atom_site_fract_y
  _atom_site_fract_z
  _atom_site_occupancy
  Cu  Cu1       1.0  0.5981025518015386  0.5208190032475243  0.40623417786675725  1.0000
  Cu  Cu2       1.0  0.40190087369040123  0.47918008261979855  0.5937691343734954  1.0000
  H   H1        1.0  0.5414025643945308  0.1468655274902417  0.5961071442085738  1.0000
  H   H2        1.0  0.45857225771813154  0.8531314920522276  0.40389741742342977  1.0000
  H   H3        1.0  0.0861483874887625  0.9988797733017307  0.4047012730834679  1.0000
  H   H4        1.0  0.9138359800998828  0.0011322187883920014  0.595300648026047  1.0000
  H   H5        1.0  0.9786539624028238  0.3329257045697176  0.4110669525190786  1.0000
  H   H6        1.0  0.021348643326724915  0.6670670412520325  0.5889346111210827  1.0000
  H   H7        1.0  0.1413223299307447  0.14821641344634168  0.281011543618817  1.0000
  H   H8        1.0  0.8586744473381813  0.8517763225504711  0.7189846991254356  1.0000
  H   H9        1.0  0.9840291074869257  0.07989592558455168  0.1006965168932226  1.0000
  H   H10       1.0  0.015976167398157822  0.9201042310169713  0.8992979452740639  1.0000
  H   H11       1.0  0.1245206968675134  0.44842334920995336  0.015048019602140495  1.0000
  H   H12       1.0  0.8754946043020694  0.5515855792892952  0.9849506032433907  1.0000
  H   H13       1.0  0.9921864831265311  0.6251987630819824  0.16830362017314826  1.0000
  H   H14       1.0  0.007823748254381294  0.37481654907769263  0.8316942477724112  1.0000
  H   H15       1.0  0.1815416806290244  0.6475194661124206  0.3341493890412863  1.0000
  H   H16       1.0  0.818461867043787  0.3524795128753624  0.6658482884072825  1.0000
  H   H17       1.0  0.36496964962732636  0.1503523581638291  0.7770849303697956  1.0000
  H   H18       1.0  0.6350405512083628  0.8496629807157279  0.22291434627369  1.0000
  H   H19       1.0  0.6768679176116024  0.009495183155309006  0.8059637474128252  1.0000
  H   H20       1.0  0.3231436458771455  0.9905188293836248  0.19403330494684207  1.0000
  C   C1        1.0  0.5106678965889202  0.1896692318716404  0.44755592103081193  1.0000
  C   C2        1.0  0.4893206407148014  0.8103186809944275  0.5524460417356636  1.0000
  C   C3        1.0  0.5140750173834832  0.08443708556055897  0.5165607263308587  1.0000
  C   C4        1.0  0.48588920500878874  0.9155588551902767  0.48344505620473643  1.0000
  C   C5        1.0  0.8784021708295384  0.7876193766435335  0.4068626455991193  1.0000
  C   C6        1.0  0.12158870457216861  0.2123862509423233  0.593142241070538  1.0000
  C   C7        1.0  0.0015536720334524124  0.9523072365127805  0.4534702681512499  1.0000
  C   C8        1.0  0.9984290294333605  0.047703524523825494  0.5465320508437017  1.0000
  C   C9        1.0  0.9135801482024278  0.30449417081708674  0.33311356948536996  1.0000
  C   C10       1.0  0.08642198705134523  0.6954947522733903  0.6668859589061852  1.0000
  C   C11       1.0  0.0028863613793533027  0.19777606988029112  0.2586153514297251  1.0000
  C   C12       1.0  0.9971110341515798  0.8022103452271026  0.7413813533746135  1.0000
  C   C13       1.0  0.9176953900261395  0.16226366743656936  0.16009773423888868  1.0000
  C   C14       1.0  0.08230895818828537  0.8377302426389761  0.8398999097710274  1.0000
  C   C15       1.0  0.7413336925681265  0.23501391122196216  0.13675455567116046  1.0000
  C   C16       1.0  0.2586703216323016  0.7649774681793318  0.8632426706383001  1.0000
  C   C17       1.0  0.6593045164456441  0.33882945846711726  0.2158135173709184  1.0000
  C   C18       1.0  0.34070078404479187  0.661160661393268  0.7841850063995324  1.0000
  C   C19       1.0  0.4757208586050226  0.41306583256579193  0.1986535580166588  1.0000
  C   C20       1.0  0.5242837625329669  0.586930661623782  0.8013473210895583  1.0000
  C   C21       1.0  0.3769549832806121  0.38888875879462864  0.1017977515604116  1.0000
  C   C22       1.0  0.6230407195314315  0.6111078742968914  0.8982032462149901  1.0000
  C   C23       1.0  0.20019708243430756  0.4670174194606886  0.09007053310785548  1.0000
  C   C24       1.0  0.7998043020438389  0.5329879547799549  0.9099294020631772  1.0000
  C   C25       1.0  0.12909030570226324  0.5627785121493006  0.17301405422009003  1.0000
  C   C26       1.0  0.8709147450335454  0.4372318548726356  0.8269855028805253  1.0000
  C   C27       1.0  0.23534793308531476  0.5773018389399878  0.2671169706798509  1.0000
  C   C28       1.0  0.7646590680203289  0.42270090757178747  0.7328822328949443  1.0000
  C   C29       1.0  0.6396014187000958  0.20859912260336705  0.03607956709987551  1.0000
  C   C30       1.0  0.3604037492767205  0.7914011275177585  0.963919825510139  1.0000
  C   C31       1.0  0.4610664994603155  0.2853478007194568  0.018973472106218008  1.0000
  C   C32       1.0  0.538934338178997  0.7146538175896354  0.9810279495610175  1.0000
  C   C33       1.0  0.4428385979461281  0.1669418853637836  0.8519527753849943  1.0000
  C   C34       1.0  0.557168468198114  0.8330722300259836  0.1480460971816697  1.0000
  C   C35       1.0  0.6189494489765935  0.08967782418150698  0.8690499374609428  1.0000
  C   C36       1.0  0.3810619169599292  0.9103349497401821  0.13094831474641916  1.0000
  N   N1        1.0  0.404278221519121  0.505300999420399  0.2797277267429976  1.0000
  N   N2        1.0  0.5957247793148639  0.49469422363583254  0.7202714372017738  1.0000
  N   N3        1.0  0.7462801855163261  0.3723487407187278  0.31144809937524087  1.0000
  N   N4        1.0  0.2537269633755486  0.6276438621723558  0.6885495310110343  1.0000
  N   N5        1.0  0.36450777284047575  0.2643066513028032  0.9263586195545201  1.0000
  N   N6        1.0  0.6354978656121233  0.7356974215496023  0.07364280830410047  1.0000
  N   N7        1.0  0.7172362734108688  0.10954727808508842  0.9594808786746398  1.0000
  N   N8        1.0  0.28276760827593955  0.8904542315769461  0.040517216474377386  1.0000
  O   O1        1.0  0.5610680736176974  0.3534650585307233  0.49136933376581726  1.0000
  O   O2        1.0  0.4389343498322375  0.646526435313838  0.5086327253730757  1.0000
  O   O3        1.0  0.4701894121628668  0.12816992952254944  0.356384595275351  1.0000
  O   O4        1.0  0.5298037284019088  0.8718191992695877  0.6436185735302046  1.0000
  O   O5        1.0  0.8262804014337346  0.704275309040355  0.46631227206284354  1.0000
  O   O6        1.0  0.17370966947819974  0.29572396513998456  0.5336901616577592  1.0000
  O   O7        1.0  0.8289578611779335  0.7427511413559316  0.3145872774426479  1.0000
  O   O8        1.0  0.17103941612028714  0.25724680294877095  0.6854175485410892  1.0000
