data_image0
_chemical_formula_structural       Ni2H28C36N24
_chemical_formula_sum              "Ni2 H28 C36 N24"
_cell_length_a       7.843535212013316
_cell_length_b       9.145810397727644
_cell_length_c       12.977304016910379
_cell_angle_alpha    102.54000848266644
_cell_angle_beta     90.00010092814125
_cell_angle_gamma    90.00016078810039

_space_group_name_H-M_alt    "P 1"
_space_group_IT_number       1

loop_
  _space_group_symop_operation_xyz
  'x, y, z'

loop_
  _atom_site_type_symbol
  _atom_site_label
  _atom_site_symmetry_multiplicity
  _atom_site_fract_x
  _atom_site_fract_y
  _atom_site_fract_z
  _atom_site_occupancy
  Ni  Ni1       1.0  0.9999980605750736  2.540699810500001e-06  1.6917066218999994e-06  1.0000
  Ni  Ni2       1.0  0.5000018616703841  0.5000024797199174  0.5000039306574067  1.0000
  H   H1        1.0  0.30698047907319637  0.8424637819208056  0.11282644346852065  1.0000
  H   H2        1.0  0.8069796056027769  0.6575312746120902  0.3871720286291873  1.0000
  H   H3        1.0  0.6930194194292626  0.1575311335568941  0.8871706149447361  1.0000
  H   H4        1.0  0.19301774303887242  0.3424658656455223  0.612829227327552  1.0000
  H   H5        1.0  0.9971762724875077  0.3931302394918887  0.18460376619138688  1.0000
  H   H6        1.0  0.49717186151089265  0.1068691877578303  0.31539713383511264  1.0000
  H   H7        1.0  0.0028261758873923994  0.6068680486841344  0.8153907323857579  1.0000
  H   H8        1.0  0.5028280369872179  0.8931246137837691  0.6845982108557107  1.0000
  H   H9        1.0  0.4570197734723394  0.6556084837773924  0.19185892430262896  1.0000
  H   H10       1.0  0.9570154605368303  0.8443892401925979  0.30814011931988716  1.0000
  H   H11       1.0  0.5429813999609436  0.34438644405668845  0.8081350537094563  1.0000
  H   H12       1.0  0.0429831630315789  0.1556045459039836  0.6918590758726352  1.0000
  H   H13       1.0  0.3057700634295841  0.43523627467173753  0.22892312068729123  1.0000
  H   H14       1.0  0.8057672692065126  0.0647626106673798  0.27107672286321355  1.0000
  H   H15       1.0  0.6942311100015887  0.5647575330489688  0.7710706838034226  1.0000
  H   H16       1.0  0.1942326292906245  0.9352300676722081  0.7289192184067729  1.0000
  H   H17       1.0  0.6608388296816586  0.8727910487139853  0.9878236152248262  1.0000
  H   H18       1.0  0.1608348735223259  0.6272042915360531  0.5121689918713129  1.0000
  H   H19       1.0  0.339161068829064  0.12720947350788953  0.012172770594212097  1.0000
  H   H20       1.0  0.8391599252386115  0.3727928765157031  0.48782533317874055  1.0000
  H   H21       1.0  0.5723082937239923  0.6986487778959329  0.9771442192605875  1.0000
  H   H22       1.0  0.0723036685143654  0.801347421122685  0.5228507392010754  1.0000
  H   H23       1.0  0.4276941546520305  0.3013495071914534  0.022851049417091877  1.0000
  H   H24       1.0  0.9276936801248963  0.19865085160287074  0.4771476098749118  1.0000
  H   H25       1.0  0.7199888663129174  0.5331025180803693  0.09815194940912157  1.0000
  H   H26       1.0  0.2199897211157307  0.9668978820598895  0.40184957044386477  1.0000
  H   H27       1.0  0.28000720739734664  0.4668991149835052  0.9018469202300139  1.0000
  H   H28       1.0  0.7800076275267571  0.033101507690410904  0.5981497222540212  1.0000
  C   C1        1.0  0.9815904333586332  0.5955906165082396  0.12377103182225105  1.0000
  C   C2        1.0  0.4815871821956677  0.9044105377648036  0.3762285691271073  1.0000
  C   C3        1.0  0.018413289957322797  0.4044065299357342  0.8762286839381942  1.0000
  C   C4        1.0  0.5184152661793677  0.09558662412056411  0.6237672961297349  1.0000
  C   C5        1.0  0.2390709096064327  0.7451022460674963  0.12682307170224044  1.0000
  C   C6        1.0  0.7390715914030253  0.7549004609871943  0.37317574334125675  1.0000
  C   C7        1.0  0.7609264390304488  0.2548971591260027  0.8731723704929876  1.0000
  C   C8        1.0  0.26093085698084206  0.2450978024796982  0.6268249160401353  1.0000
  C   C9        1.0  0.8009424218270735  0.7333764859945688  0.05209238521153027  1.0000
  C   C10       1.0  0.30094147559971424  0.7666219013312914  0.44790967881837657  1.0000
  C   C11       1.0  0.19905747668939713  0.2666228944934305  0.9479092177898494  1.0000
  C   C12       1.0  0.6990545981097042  0.2333774822399093  0.5520911540796192  1.0000
  C   C13       1.0  0.06604936673462451  0.7231084772867221  0.10248074486166554  1.0000
  C   C14       1.0  0.5660489173948449  0.7768914845311697  0.39752054467032844  1.0000
  C   C15       1.0  0.933946706966104  0.2768886784122913  0.8975166605914637  1.0000
  C   C16       1.0  0.4339535309912677  0.22310677275844173  0.6024816549121255  1.0000
  C   C17       1.0  0.06380264399471257  0.490324106879818  0.16902021304577625  1.0000
  C   C18       1.0  0.5638036680732341  0.009675212699448802  0.3309786719034662  1.0000
  C   C19       1.0  0.9361972545055011  0.5096708147751701  0.8309753051664187  1.0000
  C   C20       1.0  0.4361962304376306  0.9903241832317562  0.6690190805952696  1.0000
  C   C21       1.0  0.3228608212211412  0.6382866455477157  0.17078481781003058  1.0000
  C   C22       1.0  0.8228553521732138  0.8617129397377711  0.32921360202890776  1.0000
  C   C23       1.0  0.6771416271582424  0.36171163027374587  0.8292127611692377  1.0000
  C   C24       1.0  0.1771407215287795  0.1382830865819358  0.670785940204446  1.0000
  C   C25       1.0  0.7161724723107523  0.20740706558729025  0.11506576573629698  1.0000
  C   C26       1.0  0.21616887765980408  0.2925960265561329  0.38493925844883137  1.0000
  C   C27       1.0  0.28383635074784763  0.7925878251939764  0.8849374534878861  1.0000
  C   C28       1.0  0.7838271960688205  0.7074111854541415  0.6150658695008673  1.0000
  C   C29       1.0  0.23693893156224283  0.5136968055710227  0.19216137259602556  1.0000
  C   C30       1.0  0.7369389108255646  0.9863014149586675  0.30783674517167003  1.0000
  C   C31       1.0  0.7630571421243317  0.4862970114083469  0.8078301215892834  1.0000
  C   C32       1.0  0.2630546130045417  0.013695740736714902  0.6921606602795549  1.0000
  C   C33       1.0  0.6322401442817097  0.3689713224345398  0.2666018012254412  1.0000
  C   C34       1.0  0.1322342981866242  0.13103825757804094  0.23340259830792573  1.0000
  C   C35       1.0  0.3677712286623703  0.6310302828533453  0.7334039993299227  1.0000
  C   C36       1.0  0.8677579507506364  0.8689779215110891  0.7666023776087981  1.0000
  N   N1        1.0  0.8147000962765533  0.6063083125054334  0.09116592952123877  1.0000
  N   N2        1.0  0.3147007299498127  0.8936901263502365  0.4088330746915786  1.0000
  N   N3        1.0  0.18529980223123488  0.3936888401103786  0.9088322460352884  1.0000
  N   N4        1.0  0.6852991685579681  0.10630702626557562  0.5911651008649415  1.0000
  N   N5        1.0  0.9497517242974213  0.8064105451890597  0.05720485029576138  1.0000
  N   N6        1.0  0.4497505221141295  0.6935882689380932  0.4427966662777861  1.0000
  N   N7        1.0  0.05024689928682589  0.19359107861252778  0.9427963296468816  1.0000
  N   N8        1.0  0.5502468265338295  0.3064122316596566  0.5572051102430606  1.0000
  N   N9        1.0  0.6512777903998099  0.7790109735950497  0.017482655149876784  1.0000
  N   N10       1.0  0.15127934471845353  0.7209870061177882  0.4825145643546377  1.0000
  N   N11       1.0  0.3487182833062406  0.2209884192420759  0.9825158674465299  1.0000
  N   N12       1.0  0.848720553795779  0.2790123805474991  0.517485498445687  1.0000
  N   N13       1.0  0.7739612064236282  0.0975684051228072  0.06210658000151879  1.0000
  N   N14       1.0  0.27396322893621766  0.40244267692413166  0.43790359580195565  1.0000
  N   N15       1.0  0.2260374171854238  0.9024410316746412  0.937902745495485  1.0000
  N   N16       1.0  0.7260366696079998  0.5975678861657985  0.5621043630163028  1.0000
  N   N17       1.0  0.6482429230484428  0.33306387218057415  0.16406803575311094  1.0000
  N   N18       1.0  0.1482438701359428  0.1669479843681074  0.3359390450725853  1.0000
  N   N19       1.0  0.3517582504292704  0.6669433182164681  0.8359424829041229  1.0000
  N   N20       1.0  0.8517560284107972  0.8330693271998583  0.6640630239691132  1.0000
  N   N21       1.0  0.6139259043740495  0.4126895706265614  0.35798702222116663  1.0000
  N   N22       1.0  0.1139221965031254  0.0873199417986967  0.1420212004151935  1.0000
  N   N23       1.0  0.38608164377615145  0.587314253262136  0.6420245160777895  1.0000
  N   N24       1.0  0.886073877234047  0.9126906243744273  0.8579859882996742  1.0000
