data_image0
_chemical_formula_structural       Zn4H56C86O18
_chemical_formula_sum              "Zn4 H56 C86 O18"
_cell_length_a       16.52955483620668
_cell_length_b       16.661953993590018
_cell_length_c       28.808819374807133
_cell_angle_alpha    91.09639844032587
_cell_angle_beta     90.50299147405549
_cell_angle_gamma    91.16409641619819

_space_group_name_H-M_alt    "P 1"
_space_group_IT_number       1

loop_
  _space_group_symop_operation_xyz
  'x, y, z'

loop_
  _atom_site_type_symbol
  _atom_site_label
  _atom_site_symmetry_multiplicity
  _atom_site_fract_x
  _atom_site_fract_y
  _atom_site_fract_z
  _atom_site_occupancy
  Zn  Zn1       1.0  0.49994975030943334  0.0765964755498629  0.5006361769921526  1.0000
  Zn  Zn2       1.0  0.5000114517251006  0.9234145030829454  0.4993654678859301  1.0000
  Zn  Zn3       1.0  0.0773669667285404  0.500385936615217  0.00043167118701600084  1.0000
  Zn  Zn4       1.0  0.9226354767137723  0.4995998687196915  0.9995727317083193  1.0000
  H   H1        1.0  0.2747367552194078  0.10953111216914381  0.4282514463054525  1.0000
  H   H2        1.0  0.7252392082342567  0.8904918492180371  0.5717441366019855  1.0000
  H   H3        1.0  0.7967366792442052  0.8753137768678915  0.3405113096163106  1.0000
  H   H4        1.0  0.20323239925382813  0.12469782302140694  0.65949315848097  1.0000
  H   H5        1.0  0.12819249436456207  0.2141330140062792  0.1628469092837364  1.0000
  H   H6        1.0  0.8717490035338502  0.785616012851847  0.8370154624076989  1.0000
  H   H7        1.0  0.8672655633951438  0.21080701081625364  0.1607198688708422  1.0000
  H   H8        1.0  0.132674346367132  0.7894432055712104  0.8394435390740753  1.0000
  H   H9        1.0  0.24413492831843805  0.8971122177734829  0.30626384827403536  1.0000
  H   H10       1.0  0.7558291659235934  0.10289218182509072  0.6937419164529998  1.0000
  H   H11       1.0  0.6844699875508411  0.8736570997109256  0.398392616349355  1.0000
  H   H12       1.0  0.31549055024544265  0.1263508589835141  0.6016058732948865  1.0000
  H   H13       1.0  0.1289544155873799  0.32580218789156856  0.105984065526215  1.0000
  H   H14       1.0  0.8710046982996931  0.673950482360752  0.893883637145386  1.0000
  H   H15       1.0  0.8860799525459201  0.7317896772414586  0.0668127416888638  1.0000
  H   H16       1.0  0.11441957351165401  0.26866425115859727  0.9328920184526552  1.0000
  H   H17       1.0  0.8691859212630677  0.3229579954472328  0.10410241816466478  1.0000
  H   H18       1.0  0.1307757316514042  0.6772596857591396  0.8960378930025924  1.0000
  H   H19       1.0  0.6795923691181116  0.1310558317595536  0.39694735805560544  1.0000
  H   H20       1.0  0.3203657489622885  0.8689521175232714  0.6030497305683228  1.0000
  H   H21       1.0  0.15803091705605962  0.11252654682861873  0.3726114645284255  1.0000
  H   H22       1.0  0.8419444303545519  0.8874957903894157  0.6273799440569476  1.0000
  H   H23       1.0  0.8228273524057103  0.8513250815718083  0.09248249445061421  1.0000
  H   H24       1.0  0.8309250179386326  0.8705284338578497  0.15345461630688823  1.0000
  H   H25       1.0  0.8909337773105364  0.9269700447443798  0.1151514520112755  1.0000
  H   H26       1.0  0.1779662939931583  0.14940303981217803  0.9070506587773366  1.0000
  H   H27       1.0  0.1100260047533013  0.07344649435771093  0.88457789773868  1.0000
  H   H28       1.0  0.16945804750266547  0.13015035280469087  0.8461068623166099  1.0000
  H   H29       1.0  0.16066945118011236  0.7164027922269299  0.1976289365425288  1.0000
  H   H30       1.0  0.1485898497162879  0.8226310333763324  0.1975050624298191  1.0000
  H   H31       1.0  0.08962147900530941  0.7639261497915444  0.23517109817230872  1.0000
  H   H32       1.0  0.8386809696403007  0.2829632066929975  0.8028371038332907  1.0000
  H   H33       1.0  0.909584030985208  0.23569314706356442  0.7650875587241258  1.0000
  H   H34       1.0  0.8511386543020693  0.17679256521403633  0.8029113869408135  1.0000
  H   H35       1.0  0.7683580421693252  0.2073688465575927  0.3497790788742066  1.0000
  H   H36       1.0  0.8653300376356938  0.1643649673731247  0.34180104485663776  1.0000
  H   H37       1.0  0.7938226496358071  0.15947239995168164  0.29610835395257595  1.0000
  H   H38       1.0  0.2316019257107982  0.7926409343515888  0.6502232428759243  1.0000
  H   H39       1.0  0.20613005806252008  0.8405373780299995  0.7038942774947046  1.0000
  H   H40       1.0  0.1346293505665344  0.8356459808403545  0.6581953836333625  1.0000
  H   H41       1.0  0.026848430011177996  0.5354848529593426  0.14258182328375574  1.0000
  H   H42       1.0  0.0606304880252821  0.5796320624170692  0.1964295224549701  1.0000
  H   H43       1.0  0.2010912616188563  0.5274188718282319  0.1811611373216309  1.0000
  H   H44       1.0  0.12704633976620275  0.448134352941132  0.182482712678194  1.0000
  H   H45       1.0  0.16435106293331367  0.48166702221636387  0.1282109543963017  1.0000
  H   H46       1.0  0.9382895993379777  0.4198694099382508  0.8036203936269147  1.0000
  H   H47       1.0  0.9725016316109532  0.46421725950111187  0.857332957025477  1.0000
  H   H48       1.0  0.8350651107443952  0.5178379704810894  0.8720886969818693  1.0000
  H   H49       1.0  0.8717481395907642  0.5512895386563771  0.8176647720605885  1.0000
  H   H50       1.0  0.7978713727074763  0.471887406293618  0.819298538630619  1.0000
  H   H51       1.0  0.3637713169510164  0.8398627233009748  0.32670022939521465  1.0000
  H   H52       1.0  0.4371766811421339  0.8943992555845243  0.3611346683065335  1.0000
  H   H53       1.0  0.36799665442342183  0.8293112931632367  0.3881919138263541  1.0000
  H   H54       1.0  0.6361922443764172  0.16014527441203805  0.6733048714177414  1.0000
  H   H55       1.0  0.6319682368124192  0.17070270938557291  0.6118132490200097  1.0000
  H   H56       1.0  0.5627886598798497  0.10560692656626712  0.6388676480459309  1.0000
  C   C1        1.0  0.612229382964884  0.9985769353914263  0.5640060821644894  1.0000
  C   C2        1.0  0.3877326152679502  0.001443665658797501  0.4359984321852934  1.0000
  C   C3        1.0  0.9321089045648067  0.7393337685453999  0.0939634956509181  1.0000
  C   C4        1.0  0.0681866712738639  0.260906998971805  0.9058659944539613  1.0000
  C   C5        1.0  0.05274302183812551  0.7549117344329874  0.1631813552433528  1.0000
  C   C6        1.0  0.9470256910475287  0.24482447622482792  0.8369847781269115  1.0000
  C   C7        1.0  0.05189574068251092  0.6889051015069754  0.1321823217299922  1.0000
  C   C8        1.0  0.9478867182952303  0.3108526274484689  0.8679653358313573  1.0000
  C   C9        1.0  0.9243933659345062  0.23656133242725733  0.1488111266172041  1.0000
  C   C10       1.0  0.07555573012090382  0.7635719970254513  0.851276971265669  1.0000
  C   C11       1.0  0.9253873497515813  0.2986984742761507  0.1173549049552136  1.0000
  C   C12       1.0  0.0745685042942412  0.7014096081114332  0.882726747597836  1.0000
  C   C13       1.0  0.25061869684954985  0.9430175414042453  0.3336297584250545  1.0000
  C   C14       1.0  0.7493497890268515  0.056994648747618705  0.6663729764555697  1.0000
  C   C15       1.0  0.3151861432762715  0.9392473317803155  0.365106130558523  1.0000
  C   C16       1.0  0.6847841581029926  0.060764847909794625  0.6348945308701984  1.0000
  C   C17       1.0  0.768156843948262  0.0782480934333734  0.351834907415089  1.0000
  C   C18       1.0  0.231807346922814  0.9217610918634876  0.648167777729789  1.0000
  C   C19       1.0  0.7058948252381256  0.07549244695874081  0.3841287314725647  1.0000
  C   C20       1.0  0.29406329260362446  0.9245155081642412  0.6158693985570807  1.0000
  C   C21       1.0  0.9958087057804903  0.0076019553163533  0.2485380593209428  1.0000
  C   C22       1.0  0.004164068345588101  0.992382627364087  0.7514658324082218  1.0000
  C   C23       1.0  0.6108964642559587  0.0017852009410930017  0.4365414416629251  1.0000
  C   C24       1.0  0.3890617374301969  0.9982269589450112  0.5634570745575688  1.0000
  C   C25       1.0  0.19320415929404083  0.004134419561886202  0.3361225288252641  1.0000
  C   C26       1.0  0.8067680049082355  0.995880166849588  0.6638788585509445  1.0000
  C   C27       1.0  0.3224678628944986  0.00036004708934460035  0.3998040873095121  1.0000
  C   C28       1.0  0.6775025586943358  0.9996581288373253  0.600195241371992  1.0000
  C   C29       1.0  0.8012747090837707  0.0045276561691026  0.3363686131904302  1.0000
  C   C30       1.0  0.19869916096903487  0.9954815589873363  0.6636382874947485  1.0000
  C   C31       1.0  0.6760084251645397  0.0024765115108281006  0.40108663641735376  1.0000
  C   C32       1.0  0.32394603872737093  0.997530238423636  0.5989111165992682  1.0000
  C   C33       1.0  0.9976366123202  0.2050319339421307  0.1652360604660288  1.0000
  C   C34       1.0  0.0022994707382367023  0.7949634642974035  0.8347736426806023  1.0000
  C   C35       1.0  0.9991776058172093  0.3306021120587914  0.1015737304482442  1.0000
  C   C36       1.0  0.0007871483734831007  0.6693746348034467  0.8984255354330698  1.0000
  C   C37       1.0  0.9919457297763971  0.8130087398482929  0.1586524950555912  1.0000
  C   C38       1.0  0.008090316881464301  0.1869633159667288  0.8413585497947622  1.0000
  C   C39       1.0  0.9923952762498374  0.6815737642871441  0.09686204760059519  1.0000
  C   C40       1.0  0.0076419778167391  0.3184282400226408  0.9031364353344316  1.0000
  C   C41       1.0  0.06875374260567918  0.006189964036963102  0.2785290387286281  1.0000
  C   C42       1.0  0.9312097937888738  0.9938168562319802  0.7214802165484285  1.0000
  C   C43       1.0  0.9966773756294671  0.0810017131152279  0.2204861312388715  1.0000
  C   C44       1.0  0.0032869881639072977  0.9189858697837751  0.7795184389798706  1.0000
  C   C45       1.0  0.2020306261871099  0.0647997671419773  0.370622934065203  1.0000
  C   C46       1.0  0.7979453371870023  0.9352231961919204  0.6293729959774623  1.0000
  C   C47       1.0  0.9238451502984832  0.006155220674948201  0.2786459794869103  1.0000
  C   C48       1.0  0.07612413796431383  0.9938365566096223  0.7213565719347345  1.0000
  C   C49       1.0  0.9937676618659738  0.9370336885788292  0.2166959885963635  1.0000
  C   C50       1.0  0.0062323369275745005  0.0629509299004027  0.7833111677427665  1.0000
  C   C51       1.0  0.12679810617789403  0.0047531181518607  0.3046063364519256  1.0000
  C   C52       1.0  0.8731715647826733  0.9952578953683047  0.6954005591324801  1.0000
  C   C53       1.0  0.9926028239818694  0.87988622679476  0.1898387061623907  1.0000
  C   C54       1.0  0.007436235013507501  0.1200852481693104  0.8101754729249251  1.0000
  C   C55       1.0  0.9969812924098065  0.13908343740652643  0.19564576381957013  1.0000
  C   C56       1.0  0.002956581855016801  0.8609107573534447  0.8043632432573631  1.0000
  C   C57       1.0  0.8666154565235688  0.004805729817441301  0.3048152221305429  1.0000
  C   C58       1.0  0.1333577605641665  0.9952010833234369  0.6951916531173055  1.0000
  C   C59       1.0  0.9914791690103684  0.6151035457432459  0.0613559348789465  1.0000
  C   C60       1.0  0.008550657185594404  0.3848900461128012  0.9386420853715478  1.0000
  C   C61       1.0  0.00015603776945029922  0.39463068726129796  0.0660069008656166  1.0000
  C   C62       1.0  0.9997973169337939  0.6053508609423233  0.9339933917794241  1.0000
  C   C63       1.0  0.26663524328211713  0.06276043750784771  0.40156556968969437  1.0000
  C   C64       1.0  0.7333395338145794  0.9372637316585183  0.5984314066777544  1.0000
  C   C65       1.0  0.7704934999293302  0.9310831565950226  0.3530145218255996  1.0000
  C   C66       1.0  0.2294767284809681  0.06892544598836992  0.6469906188849777  1.0000
  C   C67       1.0  0.7083682158158312  0.9299899181408762  0.3850789152039695  1.0000
  C   C68       1.0  0.2915929507285925  0.07001924760459129  0.6149206301245725  1.0000
  C   C69       1.0  0.07168874103668091  0.23837772101708776  0.1499849722884434  1.0000
  C   C70       1.0  0.9282609630593655  0.7614803234026796  0.849939189134325  1.0000
  C   C71       1.0  0.0721484722402863  0.3003296808691118  0.1184347407677677  1.0000
  C   C72       1.0  0.9278089046630456  0.6995187740738872  0.8814914547543893  1.0000
  C   C73       1.0  0.9303456515970013  0.8053304921819588  0.1242439963299091  1.0000
  C   C74       1.0  0.06997363787432681  0.19491633413425555  0.8755926139472194  1.0000
  C   C75       1.0  0.865228574556646  0.8666093056028573  0.1209495503223863  1.0000
  C   C76       1.0  0.13540016698902954  0.13392186450331423  0.8787038232884541  1.0000
  C   C77       1.0  0.11661365191721272  0.7643938015106786  0.2003856952387437  1.0000
  C   C78       1.0  0.8828849264470123  0.2351180552591288  0.7999508910107451  1.0000
  C   C79       1.0  0.8002976367547349  0.156711146383806  0.33408719223044153  1.0000
  C   C80       1.0  0.19966294860034853  0.8432992236536023  0.6659130554074792  1.0000
  C   C81       1.0  0.0802410949645562  0.5611029272170569  0.1612961466162588  1.0000
  C   C82       1.0  0.1475068759931091  0.501153203095889  0.1633604315075985  1.0000
  C   C83       1.0  0.9189785583123328  0.43846443647608163  0.8388000018737358  1.0000
  C   C84       1.0  0.8515886269756765  0.49828952150225814  0.8368991601785609  1.0000
  C   C85       1.0  0.37418678877394035  0.8721039963625827  0.35986390352294245  1.0000
  C   C86       1.0  0.625780438969777  0.12790579526097906  0.6401394970709903  1.0000
  O   O1        1.0  0.5864036621105627  0.06613696327432453  0.5503638801544213  1.0000
  O   O2        1.0  0.41355572450066097  0.9338740238735141  0.4496394910403226  1.0000
  O   O3        1.0  0.5851429815805176  0.9330176724869548  0.4498530839862909  1.0000
  O   O4        1.0  0.41481870533252163  0.0669873083687662  0.5501495496236188  1.0000
  O   O5        1.0  0.5856225729218352  0.0697145585765284  0.45132775679865483  1.0000
  O   O6        1.0  0.4143336581981816  0.9302897870736899  0.5486692889895224  1.0000
  O   O7        1.0  0.5877675303330535  0.9296170769817068  0.5485518224931312  1.0000
  O   O8        1.0  0.4121851760129119  0.0703927340941846  0.45145671025318984  1.0000
  O   O9        1.0  0.05943191549494031  0.5893789084717157  0.0472186155896708  1.0000
  O   O10       1.0  0.9406205371972618  0.41056690453773126  0.9528214304837589  1.0000
  O   O11       1.0  0.9317630545271386  0.4192107030635485  0.051552881736967  1.0000
  O   O12       1.0  0.0682138404030397  0.5808292958147379  0.9484831282002517  1.0000
  O   O13       1.0  0.0695544248219164  0.4196852397753119  0.052309649702039  1.0000
  O   O14       1.0  0.930423280286  0.5802427164216155  0.9476593823760382  1.0000
  O   O15       1.0  0.9218407748703115  0.5899979958829675  0.0467176471982214  1.0000
  O   O16       1.0  0.07820953342933733  0.4100512789711317  0.9532511381383983  1.0000
  O   O17       1.0  0.10978973090838202  0.6312968721254039  0.1374751254036255  1.0000
  O   O18       1.0  0.8897858482604664  0.36828239225600623  0.8627753503504535  1.0000
