data_image0
_chemical_formula_structural       Al4H16C36S3O36
_chemical_formula_sum              "Al4 H16 C36 S3 O36"
_cell_length_a       6.984068243795091
_cell_length_b       16.314460730793066
_cell_length_c       18.56874470844984
_cell_angle_alpha    106.60698865342309
_cell_angle_beta     89.64788623868371
_cell_angle_gamma    89.26946132193086

_space_group_name_H-M_alt    "P 1"
_space_group_IT_number       1

loop_
  _space_group_symop_operation_xyz
  'x, y, z'

loop_
  _atom_site_type_symbol
  _atom_site_label
  _atom_site_symmetry_multiplicity
  _atom_site_fract_x
  _atom_site_fract_y
  _atom_site_fract_z
  _atom_site_occupancy
  Al  Al1       1.0  0.14211711529840435  0.5046189811307971  0.4988962948530968  1.0000
  Al  Al2       1.0  0.6432157528095458  0.5028266332818563  0.49829257315416  1.0000
  Al  Al3       1.0  0.6152917680841482  0.003040101196056398  0.9971795131379154  1.0000
  Al  Al4       1.0  0.11824282589640939  0.004601030260999998  0.998753403156826  1.0000
  H   H1        1.0  0.6972754712182692  0.21032935248234  0.19264479305589788  1.0000
  H   H2        1.0  0.1729055920583846  0.29556282350859675  0.16275851637126237  1.0000
  H   H3        1.0  0.03242281102830449  0.839565079153097  0.6339506129465278  1.0000
  H   H4        1.0  0.6563488145001415  0.3972420969203299  0.2428725174072284  1.0000
  H   H5        1.0  0.011162639764016501  0.1404893072382833  0.2849997469658163  1.0000
  H   H6        1.0  0.5835100658400163  0.8585405048253278  0.6834541855196222  1.0000
  H   H7        1.0  0.5611285965401435  0.6688036463107708  0.8569036472486786  1.0000
  H   H8        1.0  0.8788493392063543  0.6590789674457227  0.8778685431896703  1.0000
  H   H9        1.0  0.22374807368522195  0.6393491204068198  0.8090323086826032  1.0000
  H   H10       1.0  0.3588047608596553  0.7236163024344435  0.6788030829406466  1.0000
  H   H11       1.0  0.31102910330071143  0.09938823992543182  0.3224716749273426  1.0000
  H   H12       1.0  0.710364072020063  0.174931347787819  0.3374158634457487  1.0000
  H   H13       1.0  0.39080571019483995  0.6095558986886118  0.4941262611557491  1.0000
  H   H14       1.0  0.9014551622502436  0.391964229865927  0.466875370905278  1.0000
  H   H15       1.0  0.3692568156490167  0.9013706683866689  0.9403071801439681  1.0000
  H   H16       1.0  0.8637775817802833  0.1046459318291539  0.9857458762972371  1.0000
  C   C1        1.0  0.3917637328607171  0.3889289149360309  0.3858028570727043  1.0000
  C   C2        1.0  0.3968431236488853  0.41607315437188674  0.579966591435138  1.0000
  C   C3        1.0  0.8908894461064988  0.6088108844241589  0.617203041853287  1.0000
  C   C4        1.0  0.8870422944775311  0.5949120543783408  0.4181710388685786  1.0000
  C   C5        1.0  0.887785649306046  0.6445714630658445  0.36518448603489884  1.0000
  C   C6        1.0  0.8860980510690764  0.686949761000868  0.3202229861693127  1.0000
  C   C7        1.0  0.8831671931372964  0.7336816939074637  0.2713834722006254  1.0000
  C   C8        1.0  0.8791227103684349  0.7771127675897277  0.22679309930961727  1.0000
  C   C9        1.0  0.8745833130886492  0.8244840520881239  0.17846976430985254  1.0000
  C   C10       1.0  0.8703185306724986  0.8678390400719992  0.13431247108825062  1.0000
  C   C11       1.0  0.7547469507254688  0.8090764550377189  0.7397844273822187  1.0000
  C   C12       1.0  0.9330860555867914  0.7675172925635039  0.6911088391942927  1.0000
  C   C13       1.0  0.8856565382644774  0.6751096759803233  0.6923529113823434  1.0000
  C   C14       1.0  0.7011809346839895  0.7089017784820797  0.7408980091963145  1.0000
  C   C15       1.0  0.8252630391963718  0.7276849214321787  0.8132844672413739  1.0000
  C   C16       1.0  0.005484098023472896  0.6880417727929994  0.7672914617221238  1.0000
  C   C17       1.0  0.05814904149937657  0.7825420212038098  0.7643082452324351  1.0000
  C   C18       1.0  0.8754304614794532  0.8198417533164959  0.8125510016808593  1.0000
  C   C19       1.0  0.4915625373588027  0.2218999848766714  0.3001003239642728  1.0000
  C   C20       1.0  0.30633424809731474  0.17904185416325902  0.2637011426186787  1.0000
  C   C21       1.0  0.3702954851319049  0.18467398257013912  0.18437288638300234  1.0000
  C   C22       1.0  0.5585718581947319  0.22765856735195913  0.2200961755139801  1.0000
  C   C23       1.0  0.457015186729059  0.3172356597623959  0.2364040809418384  1.0000
  C   C24       1.0  0.2659358181136469  0.2747679697472875  0.2014628687135698  1.0000
  C   C25       1.0  0.20388339106735737  0.2689208377451989  0.2809373454280006  1.0000
  C   C26       1.0  0.3887807820617795  0.31327308497444056  0.3183620171793251  1.0000
  C   C27       1.0  0.39243995168092727  0.366615521204146  0.6328768054736429  1.0000
  C   C28       1.0  0.3854879335242813  0.3237566628795888  0.6773156835922052  1.0000
  C   C29       1.0  0.3783480964499402  0.27648847110473446  0.7255636961267342  1.0000
  C   C30       1.0  0.37207554850609625  0.23256172796136101  0.7696647481384176  1.0000
  C   C31       1.0  0.3672301532771626  0.18518535205534192  0.8178665951273842  1.0000
  C   C32       1.0  0.3641228409695144  0.14205589416668832  0.8621736940736539  1.0000
  C   C33       1.0  0.36460859091500436  0.0932863934978556  0.9154816219634867  1.0000
  C   C34       1.0  0.36371602289344906  0.1142385672277655  0.1128788947146973  1.0000
  C   C35       1.0  0.8688091420871299  0.9177991320632019  0.08158181218408347  1.0000
  C   C36       1.0  0.8714895391615869  0.8922284090075719  0.8833673568025802  1.0000
  S   S1        1.0  0.9768559933440598  0.2780969255326298  0.32144899137452404  1.0000
  S   S2        1.0  0.5380396142806062  0.6263777521050072  0.7361551489882174  1.0000
  S   S3        1.0  0.26902175864015737  0.8384919052682492  0.7663606539334467  1.0000
  O   O1        1.0  0.561271240742279  0.43879175149543675  0.5637702206401798  1.0000
  O   O2        1.0  0.22904973498162917  0.4246500961238909  0.40673559311506585  1.0000
  O   O3        1.0  0.04989858639896739  0.5812880927809659  0.44349637082649457  1.0000
  O   O4        1.0  0.23501165363197873  0.4307244819886265  0.5545306568852483  1.0000
  O   O5        1.0  0.05591533445267769  0.5828471757011755  0.5917136868035016  1.0000
  O   O6        1.0  0.55470284888667  0.4117350285274596  0.4143166447057638  1.0000
  O   O7        1.0  0.39183158928629763  0.5561026908449807  0.5072804040435486  1.0000
  O   O8        1.0  0.7301662298054621  0.5915979194455758  0.5848915577824485  1.0000
  O   O9        1.0  0.7225415052319804  0.5709830886537405  0.4337484048274547  1.0000
  O   O10       1.0  0.8945459084116291  0.4540117922878935  0.4884498717871324  1.0000
  O   O11       1.0  0.19938125754258348  0.0896412757712426  0.0868593023194393  1.0000
  O   O12       1.0  0.5297422804504919  0.07457888200965361  0.9360904415030475  1.0000
  O   O13       1.0  0.7065513893937945  0.9178453695926977  0.9095417753097691  1.0000
  O   O14       1.0  0.5261464244664394  0.0857170125465103  0.0847977776959752  1.0000
  O   O15       1.0  0.7048790879403056  0.9353871415734928  0.05988270642247072  1.0000
  O   O16       1.0  0.20035235872883558  0.0754742583024566  0.937211333251085  1.0000
  O   O17       1.0  0.36784322777523215  0.9509873503878764  0.9847951312679727  1.0000
  O   O18       1.0  0.03261218541214819  0.9380657575762185  0.062146099626886615  1.0000
  O   O19       1.0  0.03423817178912001  0.9164919744045362  0.911175299938236  1.0000
  O   O20       1.0  0.8650231161187704  0.055242537108036095  0.005083488122998899  1.0000
  O   O21       1.0  0.9800053995672683  0.7821961143868706  0.6240854077728032  1.0000
  O   O22       1.0  0.5285368231912954  0.38811265685997404  0.22076150066461517  1.0000
  O   O23       1.0  0.988326630069295  0.28263813478503147  0.4000518939525932  1.0000
  O   O24       1.0  0.854555609132788  0.3355555723133109  0.2963690283770646  1.0000
  O   O25       1.0  0.9065467171262751  0.18154600390206352  0.2790230926168746  1.0000
  O   O26       1.0  0.658981356801682  0.8770811232585984  0.7294174993858036  1.0000
  O   O27       1.0  0.37607689171468905  0.6293257414688115  0.6885455925552435  1.0000
  O   O28       1.0  0.6465307371403808  0.548632697200425  0.7256121241173474  1.0000
  O   O29       1.0  0.4511259633119237  0.6524895625208131  0.8204392654186563  1.0000
  O   O30       1.0  0.7809120932876893  0.7034140351192519  0.8774433191071723  1.0000
  O   O31       1.0  0.08898110734456567  0.6269736160625287  0.7944322048806144  1.0000
  O   O32       1.0  0.22203384710343946  0.9222462099470761  0.7600485571760061  1.0000
  O   O33       1.0  0.39061841915595596  0.826912307688019  0.8250939436261362  1.0000
  O   O34       1.0  0.3505029236537566  0.7874190279174869  0.6843997188950154  1.0000
  O   O35       1.0  0.23384295050620096  0.1076655248795575  0.2809265252876116  1.0000
  O   O36       1.0  0.5746650358226332  0.1865542732626366  0.35158878365059826  1.0000
