data_image0
_chemical_formula_structural       Cd2H18C16N2O14
_chemical_formula_sum              "Cd2 H18 C16 N2 O14"
_cell_length_a       5.595169997617203
_cell_length_b       6.520571178753055
_cell_length_c       14.449526054786096
_cell_angle_alpha    93.61202115914875
_cell_angle_beta     97.88210075699563
_cell_angle_gamma    103.91432027933641

_space_group_name_H-M_alt    "P 1"
_space_group_IT_number       1

loop_
  _space_group_symop_operation_xyz
  'x, y, z'

loop_
  _atom_site_type_symbol
  _atom_site_label
  _atom_site_symmetry_multiplicity
  _atom_site_fract_x
  _atom_site_fract_y
  _atom_site_fract_z
  _atom_site_occupancy
  Cd  Cd1       1.0  0.4666361088518726  0.7401418164764098  0.3485868102706107  1.0000
  Cd  Cd2       1.0  0.5333642238015558  0.25985755224458984  0.6514128968062209  1.0000
  H   H1        1.0  0.1152355632150446  0.0567806917184157  0.17460868262390508  1.0000
  H   H2        1.0  0.8847622192633507  0.9432107396707395  0.8253906871915858  1.0000
  H   H3        1.0  0.5131536367630504  0.2717670309175872  0.9508619762902342  1.0000
  H   H4        1.0  0.4868361725889301  0.7282277634952409  0.049137688328343615  1.0000
  H   H5        1.0  0.8951382928897617  0.4461814432943926  0.0694752243825505  1.0000
  H   H6        1.0  0.1048554047478873  0.5538196425988033  0.9305234346040407  1.0000
  H   H7        1.0  0.2900503269554876  0.6218279071924757  0.5196077749668859  1.0000
  H   H8        1.0  0.7099522538644578  0.3781730367584828  0.48039348736859466  1.0000
  H   H9        1.0  0.10973839443088451  0.5076957108514151  0.4265920796482945  1.0000
  H   H10       1.0  0.8902598270433373  0.492308513964538  0.5734089990437354  1.0000
  H   H11       1.0  0.8657524805672594  0.029564601348234017  0.2898493684329324  1.0000
  H   H12       1.0  0.1342508733212497  0.9704331323592327  0.71015186518067  1.0000
  H   H13       1.0  0.9039245368525284  0.800767526143389  0.2574775469017467  1.0000
  H   H14       1.0  0.0960783070009796  0.19922862009771336  0.7425236192595861  1.0000
  H   H15       1.0  0.7232427407740475  0.8721366537117207  0.5424124301580662  1.0000
  H   H16       1.0  0.27676032257736694  0.1278658892427771  0.4575895904415361  1.0000
  H   H17       1.0  0.9244272034793966  0.8069095776975104  0.48365736244363683  1.0000
  H   H18       1.0  0.07557334867194501  0.19309618773688442  0.5163431990714642  1.0000
  C   C1        1.0  0.49601188100377414  0.2400927047639669  0.2183326231178171  1.0000
  C   C2        1.0  0.5039835822689226  0.7599083573556554  0.7816668328633014  1.0000
  C   C3        1.0  0.2875293772528806  0.141741816474493  0.15291012363101686  1.0000
  C   C4        1.0  0.712469672296976  0.8582591750236263  0.8470895447154234  1.0000
  C   C5        1.0  0.29505719737642266  0.1543194409193163  0.05651289238258529  1.0000
  C   C6        1.0  0.7049348876456065  0.8456769171862958  0.9434876366827751  1.0000
  C   C7        1.0  0.5126423164164393  0.2656533250769257  0.026060360593746196  1.0000
  C   C8        1.0  0.48735442995982947  0.7343461142655769  0.9739391341177637  1.0000
  C   C9        1.0  0.7229471983617872  0.3617343087428466  0.09169580821069453  1.0000
  C   C10       1.0  0.2770459617373221  0.6382652012211595  0.9083034741354863  1.0000
  C   C11       1.0  0.717460299352588  0.3487227339345795  0.18755267587742708  1.0000
  C   C12       1.0  0.2825362114936568  0.6512814915806049  0.812446224196364  1.0000
  C   C13       1.0  0.9523136493830509  0.4296041918394734  0.2569227144589519  1.0000
  C   C14       1.0  0.04768468210530596  0.5703999868277806  0.7430756009856481  1.0000
  C   C15       1.0  0.48119088915935043  0.2416843067377741  0.3213295191486054  1.0000
  C   C16       1.0  0.5188186561884152  0.7583212706056841  0.6786708824679479  1.0000
  N   N1        1.0  0.0904690842158686  0.0615497912371197  0.9856113732501087  1.0000
  N   N2        1.0  0.9095261045518442  0.9384448972434501  0.014388609916459016  1.0000
  O   O1        1.0  0.3815757087263165  0.07121926799787562  0.3545885786172676  1.0000
  O   O2        1.0  0.6184457685423582  0.928784520852645  0.6454152620730795  1.0000
  O   O3        1.0  0.567014463537035  0.41816613599624475  0.37240040787488476  1.0000
  O   O4        1.0  0.43298691668993433  0.5818363961203163  0.6275987432946265  1.0000
  O   O5        1.0  0.9997459584156161  0.3106920428698103  0.319205788400609  1.0000
  O   O6        1.0  0.00025593184636112104  0.6893120767131151  0.6807934302211719  1.0000
  O   O7        1.0  0.09206842093252023  0.6130716630957522  0.247963866187817  1.0000
  O   O8        1.0  0.907932476762987  0.38692927001725513  0.7520345267175728  1.0000
  O   O9        1.0  0.1919505009321369  0.6493673494061767  0.4603645933080927  1.0000
  O   O10       1.0  0.8080502867492283  0.3506336298555368  0.539636562844727  1.0000
  O   O11       1.0  0.7768774007136443  0.8814807888532529  0.2638794641513158  1.0000
  O   O12       1.0  0.22312702825194455  0.11852009671260084  0.7361205227431071  1.0000
  O   O13       1.0  0.7670713275321931  0.8501839073978985  0.4785868758390635  1.0000
  O   O14       1.0  0.23292383373198788  0.14981079261984587  0.5214137981393563  1.0000
