data_image0
_chemical_formula_structural       Cd2H28C20O14
_chemical_formula_sum              "Cd2 H28 C20 O14"
_cell_length_a       5.252248280092663
_cell_length_b       5.252110971128465
_cell_length_c       23.487442785065387
_cell_angle_alpha    96.55420722608835
_cell_angle_beta     96.5466551274928
_cell_angle_gamma    82.40769775065922

_space_group_name_H-M_alt    "P 1"
_space_group_IT_number       1

loop_
  _space_group_symop_operation_xyz
  'x, y, z'

loop_
  _atom_site_type_symbol
  _atom_site_label
  _atom_site_symmetry_multiplicity
  _atom_site_fract_x
  _atom_site_fract_y
  _atom_site_fract_z
  _atom_site_occupancy
  Cd  Cd1       1.0  0.8136096488834424  0.18630026793585594  0.7500100416534394  1.0000
  Cd  Cd2       1.0  0.18639264419483229  0.813690937856862  0.24998961729865243  1.0000
  H   H1        1.0  0.33158680325889384  0.5023557023730802  0.7680071895151244  1.0000
  H   H2        1.0  0.497669319330562  0.6684159123577517  0.7320227558595391  1.0000
  H   H3        1.0  0.6684134296087832  0.4976473675259  0.2319943757677549  1.0000
  H   H4        1.0  0.5023425939082315  0.3315802322788103  0.26797848154839704  1.0000
  H   H5        1.0  0.6507381218822915  0.7762978208328024  0.6669612504492052  1.0000
  H   H6        1.0  0.22362767702355774  0.3492148396943193  0.8330202353973633  1.0000
  H   H7        1.0  0.34928585414633767  0.2236661988663187  0.33303659073697395  1.0000
  H   H8        1.0  0.7763663938681873  0.6507805460059116  0.16697465481326654  1.0000
  H   H9        1.0  0.38096307733018625  0.9806875836449367  0.6804882281653662  1.0000
  H   H10       1.0  0.019284346463209114  0.6189942018663857  0.8195049903746111  1.0000
  H   H11       1.0  0.6190606095527542  0.01928992156433652  0.3195103115872158  1.0000
  H   H12       1.0  0.9807198669162389  0.3809987751361916  0.1804951707530051  1.0000
  H   H13       1.0  0.46387054430595503  0.8323060607276319  0.9095595799458137  1.0000
  H   H14       1.0  0.16764413923564087  0.5361665750337039  0.5904600354228435  1.0000
  H   H15       1.0  0.5361196300192433  0.16770540603166487  0.0904393955077154  1.0000
  H   H16       1.0  0.8323407965125043  0.4638558461417546  0.4095480029509488  1.0000
  H   H17       1.0  0.7241008308681173  0.6018287109073271  0.8875283053910651  1.0000
  H   H18       1.0  0.3981199816355314  0.2758961816023985  0.612471007507928  1.0000
  H   H19       1.0  0.2758818301433124  0.39817190361303983  0.1124694388784704  1.0000
  H   H20       1.0  0.6018762240842219  0.7241110304818009  0.3875297083275697  1.0000
  H   H21       1.0  0.12584930544962702  0.5703128203492868  0.9482975661548211  1.0000
  H   H22       1.0  0.42961611004552935  0.8741559569752083  0.5516969200386228  1.0000
  H   H23       1.0  0.8741427145588431  0.42969247085447654  0.051698764175704105  1.0000
  H   H24       1.0  0.5703547306853665  0.12586521812369264  0.44830356061218174  1.0000
  H   H25       1.0  0.5872204208170545  0.2584419703705692  0.9687948488525039  1.0000
  H   H26       1.0  0.7415466322020591  0.41280360243136016  0.5312160662253689  1.0000
  H   H27       1.0  0.4127669191344551  0.7415786154108875  0.031196589536342908  1.0000
  H   H28       1.0  0.25842839424011294  0.5872194935479841  0.46878879993041533  1.0000
  C   C1        1.0  0.8367586426000814  0.9029853673188414  0.9526030807511746  1.0000
  C   C2        1.0  0.09695794258838931  0.1632512502502763  0.5473969811362309  1.0000
  C   C3        1.0  0.16324581328890284  0.0969881734624209  0.04739412820739371  1.0000
  C   C4        1.0  0.9030520783307381  0.8367529910930642  0.4526069401206244  1.0000
  C   C5        1.0  0.66645121989297  0.8070934511064679  0.9003787429168355  1.0000
  C   C6        1.0  0.19285859610966583  0.33355642008402947  0.599624231839023  1.0000
  C   C7        1.0  0.3335351791211636  0.19290076301400216  0.09961596470935061  1.0000
  C   C8        1.0  0.8071528787476436  0.6664373165318837  0.40037140953825917  1.0000
  C   C9        1.0  0.07070350058825171  0.7600907592782349  0.9706704353673246  1.0000
  C   C10       1.0  0.2398863592304963  0.9293273059134467  0.5293286864432291  1.0000
  C   C11       1.0  0.9293033968119674  0.23992034287257985  0.0293220627341171  1.0000
  C   C12       1.0  0.7600939897332353  0.0707144393996444  0.47067667486562215  1.0000
  C   C13       1.0  0.7684820753111408  0.14449820395871174  0.9825663213638905  1.0000
  C   C14       1.0  0.8555143436967327  0.23155342956489025  0.5174448931288254  1.0000
  C   C15       1.0  0.231531394465243  0.8555052506324616  0.017432969487444404  1.0000
  C   C16       1.0  0.14449175267434097  0.7684570249208847  0.4825599273464718  1.0000
  C   C17       1.0  0.6880824115273113  0.9667187599378761  0.85130926456565  1.0000
  C   C18       1.0  0.03320690198140141  0.31188185239100363  0.648706189685889  1.0000
  C   C19       1.0  0.31190301856723573  0.03326283019220001  0.14869240325914032  1.0000
  C   C20       1.0  0.9668152003817382  0.6881020905342652  0.3512979875845517  1.0000
  O   O1        1.0  0.49292341110093213  0.5074700465480932  0.7501013341891608  1.0000
  O   O2        1.0  0.5070943749681119  0.49254726779736296  0.24990727685743516  1.0000
  O   O3        1.0  0.52913158605525  0.161748661862589  0.8424879045618638  1.0000
  O   O4        1.0  0.8381017424661509  0.4707916835849844  0.6575085734732866  1.0000
  O   O5        1.0  0.47089149455503326  0.8382380745879271  0.1575065539705136  1.0000
  O   O6        1.0  0.16188879674024287  0.5291553630035466  0.3424971715490273  1.0000
  O   O7        1.0  0.8825720246553034  0.9003781185141689  0.8211457496578446  1.0000
  O   O8        1.0  0.09964176604474773  0.11742409930610621  0.6788668353090586  1.0000
  O   O9        1.0  0.11741388933976542  0.09965496804893803  0.17885486230645145  1.0000
  O   O10       1.0  0.9003705296122889  0.882562589380257  0.3211359184092046  1.0000
  O   O11       1.0  0.5620569751430509  0.902824229684093  0.6949121681686776  1.0000
  O   O12       1.0  0.09715188367400884  0.4378656348546244  0.8050762527534588  1.0000
  O   O13       1.0  0.4379548728049301  0.09716988144675298  0.3050877480584049  1.0000
  O   O14       1.0  0.9028521431601036  0.5621271548904829  0.19492177094925722  1.0000
