data_image0
_chemical_formula_structural       Zn2H30C38N2O8
_chemical_formula_sum              "Zn2 H30 C38 N2 O8"
_cell_length_a       7.589853392322446
_cell_length_b       10.808370906572184
_cell_length_c       11.133415534277761
_cell_angle_alpha    63.882586969694046
_cell_angle_beta     87.96054832476374
_cell_angle_gamma    88.8553751784559

_space_group_name_H-M_alt    "P 1"
_space_group_IT_number       1

loop_
  _space_group_symop_operation_xyz
  'x, y, z'

loop_
  _atom_site_type_symbol
  _atom_site_label
  _atom_site_symmetry_multiplicity
  _atom_site_fract_x
  _atom_site_fract_y
  _atom_site_fract_z
  _atom_site_occupancy
  Zn  Zn1       1.0  0.3778142923607036  0.3193109544876336  0.6833916857699266  1.0000
  Zn  Zn2       1.0  0.6429551996727414  0.13259615764616234  0.8586076144922714  1.0000
  H   H1        1.0  0.03802419341185731  0.1856826952799366  0.5338449249859565  1.0000
  H   H2        1.0  0.5540691563249354  0.2938410989195575  0.3200107087046291  1.0000
  H   H3        1.0  0.7082468147455785  0.28688135767748685  0.12052459756454685  1.0000
  H   H4        1.0  0.982669723607394  0.26504962313458696  0.008401521710169415  1.0000
  H   H5        1.0  0.4666435757471845  0.1575168791989086  0.22217530036495964  1.0000
  H   H6        1.0  0.31241477817058444  0.1645711755311225  0.4215949545110931  1.0000
  H   H7        1.0  0.04182937479353651  0.44641168288270444  0.8360095963877826  1.0000
  H   H8        1.0  0.5649715259969741  0.6809169797099698  0.6972195311061571  1.0000
  H   H9        1.0  0.7124183035430961  0.8921722357045991  0.6809399429003594  1.0000
  H   H10       1.0  0.978280597385634  0.00540628467524581  0.7054486563982608  1.0000
  H   H11       1.0  0.4562090104220716  0.7716625149274776  0.8422752026138413  1.0000
  H   H12       1.0  0.3083829544122453  0.5600552025334622  0.8598112902460926  1.0000
  H   H13       1.0  0.6254698033569214  0.8294154049155225  0.0047092910189832655  1.0000
  H   H14       1.0  0.23528327651665396  0.9292598950495544  0.060356196616019986  1.0000
  H   H15       1.0  0.017708813356335902  0.11412806177863645  0.9388210159801531  1.0000
  H   H16       1.0  0.6689757348514647  0.5919220217119517  0.10996593584043528  1.0000
  H   H17       1.0  0.8267261176523706  0.5285229343246486  0.23764471923324496  1.0000
  H   H18       1.0  0.8807602796546945  0.539060854802969  0.07794492985249248  1.0000
  H   H19       1.0  0.13454813648465347  0.5484024065115278  0.19519922845883295  1.0000
  H   H20       1.0  0.2423814266405415  0.6570821096033868  0.2509951944427656  1.0000
  H   H21       1.0  0.2968822694589406  0.6665267400919886  0.09110900040038676  1.0000
  H   H22       1.0  0.3925468380590402  0.6244403769091988  0.535843520098183  1.0000
  H   H23       1.0  0.7845783332195001  0.518133127562038  0.48298525941405757  1.0000
  H   H24       1.0  0.0049819106439415  0.335492673883138  0.6043286984795486  1.0000
  H   H25       1.0  0.11821403827357102  0.9366777556418954  0.3381441867988286  1.0000
  H   H26       1.0  0.33767555497247065  0.8733381334977324  0.36246611700470055  1.0000
  H   H27       1.0  0.2150617448410657  0.8857348900847413  0.4949781777925609  1.0000
  H   H28       1.0  0.7026615947999489  0.7527157032884021  0.3739618607033607  1.0000
  H   H29       1.0  0.8703467860220258  0.8705868718090246  0.27641009284307233  1.0000
  H   H30       1.0  0.8096610322794933  0.8561497295670008  0.43677329790596553  1.0000
  C   C1        1.0  0.9648335047083381  0.20913875510199634  0.44387459050960143  1.0000
  C   C2        1.0  0.7858623986316005  0.2377940366277684  0.43987022096747824  1.0000
  C   C3        1.0  0.6935449371914616  0.268125006603114  0.32141585254161953  1.0000
  C   C4        1.0  0.7788973024283905  0.2658594670307437  0.21124120964933013  1.0000
  C   C5        1.0  0.055668816971994814  0.24161123631632356  0.09849231292896127  1.0000
  C   C6        1.0  0.23467554103299193  0.21297693613486499  0.10251055160862421  1.0000
  C   C7        1.0  0.3270556652739245  0.18288582588262872  0.22087421151974956  1.0000
  C   C8        1.0  0.2416272954099483  0.1852412499072926  0.3310020603718016  1.0000
  C   C9        1.0  0.057555100386416314  0.21174665306323698  0.33036632651487713  1.0000
  C   C10       1.0  0.9629611497861532  0.2392559768021485  0.21192404493841374  1.0000
  C   C11       1.0  0.6881797105877964  0.2382733563793948  0.5592092593658791  1.0000
  C   C12       1.0  0.33247065296277617  0.21249597506793794  0.9831637999310702  1.0000
  C   C13       1.0  0.9682607513418731  0.5426899467453906  0.8049986546691417  1.0000
  C   C14       1.0  0.7933190072669944  0.5498536888951975  0.7710788815375552  1.0000
  C   C15       1.0  0.7018354895348367  0.6777163447603769  0.7244576563996504  1.0000
  C   C16       1.0  0.7837981567194492  0.7945049552908614  0.7144395420332047  1.0000
  C   C17       1.0  0.052121505679807  0.9092817696826716  0.7362667894721752  1.0000
  C   C18       1.0  0.22720280826745667  0.9023536150608108  0.7698303484910485  1.0000
  C   C19       1.0  0.31900978976228345  0.7746366317510223  0.8158030739985522  1.0000
  C   C20       1.0  0.23694653146579728  0.6576699705814092  0.8262967916699466  1.0000
  C   C21       1.0  0.05702768279547141  0.6616159867686733  0.793566607180182  1.0000
  C   C22       1.0  0.9635881570289443  0.7903638166030688  0.7475685720830257  1.0000
  C   C23       1.0  0.700394035399569  0.42546649341169024  0.7777348967998635  1.0000
  C   C24       1.0  0.3198145173495774  0.026726871875311503  0.7635929800940248  1.0000
  C   C25       1.0  0.7623259434544993  0.8461835801773674  0.020394474273722183  1.0000
  C   C26       1.0  0.87623275551681  0.7350768355701051  0.08434118178522713  1.0000
  C   C27       1.0  0.052129608126207906  0.763372660744011  0.10051554796100974  1.0000
  C   C28       1.0  0.10044376312722392  0.9018806430752381  0.05161099207863624  1.0000
  C   C29       1.0  0.9799521851165167  0.0061791647208196115  0.9853295185556094  1.0000
  C   C30       1.0  0.8094870376187872  0.5916485409845224  0.13001377056758653  1.0000
  C   C31       1.0  0.18739500700046827  0.6519772087256186  0.16335272520533559  1.0000
  C   C32       1.0  0.2559757110930576  0.606196283850558  0.5207203689413546  1.0000
  C   C33       1.0  0.14036020700342536  0.7160548303938584  0.45654957498700094  1.0000
  C   C34       1.0  0.9648163706354397  0.6858151673196673  0.4413761884761485  1.0000
  C   C35       1.0  0.9189658744384206  0.5468053635191055  0.4911222484871233  1.0000
  C   C36       1.0  0.04106238117529411  0.4437949463952436  0.557543630863428  1.0000
  C   C37       1.0  0.2056162919355558  0.8602428233274962  0.4099737644919514  1.0000
  C   C38       1.0  0.8295146805729985  0.7970629197545236  0.3783715576838204  1.0000
  N   N1        1.0  0.8120058735054628  0.9787332923804115  0.9704132476476488  1.0000
  N   N2        1.0  0.20827496845810603  0.47305900421142155  0.5718531132932085  1.0000
  O   O1        1.0  0.5439596617740817  0.3061927781277305  0.537910884515121  1.0000
  O   O2        1.0  0.7572715056342645  0.17133571449942056  0.6728330073108921  1.0000
  O   O3        1.0  0.4772949230817575  0.14534046098420111  0.004518694959259097  1.0000
  O   O4        1.0  0.26310414862543036  0.2786810040485291  0.8695179976326275  1.0000
  O   O5        1.0  0.769680143681491  0.307449375544678  0.8452150154970611  1.0000
  O   O6        1.0  0.5577016062785135  0.4475083474275648  0.7139689415453675  1.0000
  O   O7        1.0  0.4617006986882616  0.004554462078807813  0.8283105577413606  1.0000
  O   O8        1.0  0.2510386921779428  0.1448056888622276  0.6955200138404367  1.0000
