data_image0
_chemical_formula_structural       Hg2H56C56I4N4O4
_chemical_formula_sum              "Hg2 H56 C56 I4 N4 O4"
_cell_length_a       6.969877451
_cell_length_b       13.945650675
_cell_length_c       14.363
_cell_angle_alpha    90.0
_cell_angle_beta     90.0
_cell_angle_gamma    90.0

_space_group_name_H-M_alt    "P 1"
_space_group_IT_number       1

loop_
  _space_group_symop_operation_xyz
  'x, y, z'

loop_
  _atom_site_type_symbol
  _atom_site_label
  _atom_site_symmetry_multiplicity
  _atom_site_fract_x
  _atom_site_fract_y
  _atom_site_fract_z
  _atom_site_occupancy
  Hg  Hg1       1.0  0.760407917823521  7.170694473999998e-07  0.9999993037666213  1.0000
  Hg  Hg2       1.0  0.23958957840218895  0.5000003343336274  0.5000006962333785  1.0000
  H   H1        1.0  0.8457652292228204  0.017644210781867297  0.7800835480052939  1.0000
  H   H2        1.0  0.8457566207500875  0.9823535896076051  0.21991227459444215  1.0000
  H   H3        1.0  0.1542380059847019  0.48235540648231273  0.2800863329388008  1.0000
  H   H4        1.0  0.1542380059847019  0.5176459792543895  0.7199122745944422  1.0000
  H   H5        1.0  0.0982111959374237  0.9979426793579831  0.6594054166956766  1.0000
  H   H6        1.0  0.0982068917010608  0.002050818614812  0.3405924946041878  1.0000
  H   H7        1.0  0.9017891697791924  0.5020540212262289  0.1594075053958122  1.0000
  H   H8        1.0  0.9017934740155626  0.4979480815799206  0.8405924946041878  1.0000
  H   H9        1.0  0.4658604147385859  0.8831269538450568  0.8750852885887352  1.0000
  H   H10       1.0  0.46585467575676637  0.11687443189164527  0.12491680011140008  1.0000
  H   H11       1.0  0.5341471247053065  0.616877634503062  0.3750825036552284  1.0000
  H   H12       1.0  0.5341428204689365  0.3831273365808698  0.6249168001113999  1.0000
  H   H13       1.0  0.1983033431673462  0.9014724585448588  0.9839532131170399  1.0000
  H   H14       1.0  0.1983033431673462  0.09853107840018538  0.0160495718164739  1.0000
  H   H15       1.0  0.8016970225492701  0.5985342810115952  0.48395182065028297  1.0000
  H   H16       1.0  0.8016898488219939  0.401469255933442  0.5160474831163384  1.0000
  H   H17       1.0  0.5908410913895139  0.8094624096842293  0.7618965397201121  1.0000
  H   H18       1.0  0.5908367871531441  0.1905389760524727  0.23810554898001604  1.0000
  H   H19       1.0  0.4091635785634723  0.6905414615944421  0.2618951472533624  1.0000
  H   H20       1.0  0.4091607090725589  0.30945920707281965  0.7381048527466376  1.0000
  H   H21       1.0  0.8585688976699899  0.7207343876767496  0.7207602868481544  1.0000
  H   H22       1.0  0.8585660281790766  0.2792655639210579  0.2792376244517172  1.0000
  H   H23       1.0  0.1414357722829891  0.7792694836019223  0.2207616793149043  1.0000
  H   H24       1.0  0.1414372070284458  0.2207311850653397  0.7792397131518456  1.0000
  H   H25       1.0  0.0402417405430526  0.7868316979766872  0.6619786952586537  1.0000
  H   H26       1.0  0.0402431752885093  0.21317040482946226  0.3380199122745964  1.0000
  H   H27       1.0  0.9597543209372006  0.7131707391630897  0.1619779990252752  1.0000
  H   H28       1.0  0.9597571904281068  0.2868292124347249  0.8380226972081031  1.0000
  H   H29       1.0  0.8948277848278607  0.7068519232072319  0.5993169950567463  1.0000
  H   H30       1.0  0.8948263500824043  0.2931494625294704  0.40068300494325365  1.0000
  H   H31       1.0  0.1051768851251182  0.7931512310019926  0.0993149063566108  1.0000
  H   H32       1.0  0.1051768851251182  0.20684943766526934  0.9006843974100107  1.0000
  H   H33       1.0  0.904302843817675  0.9181228110749302  0.4246048875583099  1.0000
  H   H34       1.0  0.9043057133085883  0.08187498931454228  0.5753951124416901  1.0000
  H   H35       1.0  0.095698956644398  0.5818753236481768  0.9246062800250667  1.0000
  H   H36       1.0  0.0956975218989413  0.4181239108801904  0.0753951124416901  1.0000
  H   H37       1.0  0.9095238825311754  0.7971531955786657  0.4634742045533642  1.0000
  H   H38       1.0  0.9095238825311754  0.20284388774136625  0.5365230105131218  1.0000
  H   H39       1.0  0.0904736136945345  0.702844939144441  0.963475597020121  1.0000
  H   H40       1.0  0.0904736136945345  0.2971557295228209  0.03652718791338569  1.0000
  H   H41       1.0  0.0631216263259944  0.8824593621910708  0.5147434380004156  1.0000
  H   H42       1.0  0.0631187568350811  0.1175384381984017  0.4852537770660702  1.0000
  H   H43       1.0  0.9368830436269917  0.6175402066709237  0.014746919167308196  1.0000
  H   H44       1.0  0.9368844783724413  0.3824604619963381  0.9852544732994488  1.0000
  H   H45       1.0  0.3023324319278657  0.2008325079460676  0.6149926895495383  1.0000
  H   H46       1.0  0.3023309971824091  0.7991660095128521  0.3850080066838402  1.0000
  H   H47       1.0  0.697669368534207  0.2991671093181196  0.1149899046160243  1.0000
  H   H48       1.0  0.697669368534207  0.7008321252102475  0.885009399150597  1.0000
  H   H49       1.0  0.5522077005023647  0.1747311801211424  0.6027313235396505  1.0000
  H   H50       1.0  0.5522062657569081  0.8252702056155596  0.39726937269372786  1.0000
  H   H51       1.0  0.44779409995970815  0.3252720224902674  0.10272784237276507  1.0000
  H   H52       1.0  0.44779553470516487  0.6747307973853296  0.897270765160485  1.0000
  H   H53       1.0  0.4298612165082076  0.1415294306445105  0.7083380909280805  1.0000
  H   H54       1.0  0.429864085999121  0.8584669356060743  0.291661212838541  1.0000
  H   H55       1.0  0.5701362797174951  0.3584680354113345  0.20833739469470197  1.0000
  H   H56       1.0  0.5701377144629518  0.6415333503253675  0.7916626053052978  1.0000
  C   C1        1.0  0.9851995315950363  0.986925624393642  0.7976829353199192  1.0000
  C   C2        1.0  0.9851952273586664  0.0130671565097131  0.20231706468008065  1.0000
  C   C3        1.0  0.014800834121580004  0.5130717932600177  0.2976850240200547  1.0000
  C   C4        1.0  0.014800834121580004  0.4869295924766844  0.7023163684467022  1.0000
  C   C5        1.0  0.1274269176529899  0.9768909545699598  0.7307470584139821  1.0000
  C   C6        1.0  0.1274211786711632  0.023108997027847498  0.2692543340527749  1.0000
  C   C7        1.0  0.8725763175545398  0.523109331361475  0.2307463621806036  1.0000
  C   C8        1.0  0.8725748828090829  0.47689277144467457  0.7692536378193964  1.0000
  C   C9        1.0  0.3083296679329237  0.9398887370309124  0.7554981549815523  1.0000
  C   C10       1.0  0.308328233187467  0.06010547801133729  0.24449836385156223  1.0000
  C   C11       1.0  0.6916706977836924  0.560108680622747  0.2555009399150592  1.0000
  C   C12       1.0  0.6916692630382357  0.4398919880445077  0.7445004525516978  1.0000
  C   C13       1.0  0.3306715241699578  0.9116777908966254  0.8489507763002136  1.0000
  C   C14       1.0  0.3306614809517683  0.0883257460484188  0.1510506161665361  1.0000
  C   C15       1.0  0.6693331457830212  0.5883246462431586  0.3489514725335923  1.0000
  C   C16       1.0  0.6693331457830212  0.4116767394935507  0.6510513123999147  1.0000
  C   C17       1.0  0.1801150750247231  0.9223822035826215  0.9112511313792382  1.0000
  C   C18       1.0  0.18011077078836024  0.0776148797374034  0.0887495648541403  1.0000
  C   C19       1.0  0.8198895949282561  0.5776180823488204  0.4112518276126167  1.0000
  C   C20       1.0  0.8198838559464363  0.42238402045732926  0.5887481723873833  1.0000
  C   C21       1.0  0.4659594121750388  0.9282700608015941  0.6879370605026836  1.0000
  C   C22       1.0  0.4659565426841255  0.0717291737267729  0.3120615470305664  1.0000
  C   C23       1.0  0.534042388287034  0.5717302251298476  0.187939149202812  1.0000
  C   C24       1.0  0.5340409535415773  0.4282697264679598  0.812063635730695  1.0000
  C   C25       1.0  0.4859941977192151  0.9857245330720303  0.6078980714335456  1.0000
  C   C26       1.0  0.4859941977192151  0.014275418525784298  0.3921005360996972  1.0000
  C   C27       1.0  0.5140047332519444  0.5142771869983065  0.10789946390030278  1.0000
  C   C28       1.0  0.5140018637610311  0.4857263499467378  0.8921005360996972  1.0000
  C   C29       1.0  0.6327787010612697  0.9692276334033421  0.5425941655642958  1.0000
  C   C30       1.0  0.6327801358067262  0.0307672987083478  0.4574044419689471  1.0000
  C   C31       1.0  0.36722022990989  0.5307676330419753  0.042594861797674397  1.0000
  C   C32       1.0  0.3672216646553467  0.4692301673474972  0.9574072269024609  1.0000
  C   C33       1.0  0.7654209184459335  0.8945125825045108  0.5567639072617112  1.0000
  C   C34       1.0  0.7654194837004766  0.1054837837460738  0.44323400403815316  1.0000
  C   C35       1.0  0.23457944727068286  0.6054848351491484  0.05676529972846819  1.0000
  C   C36       1.0  0.23457801252523325  0.3945151164486659  0.9432360927382888  1.0000
  C   C37       1.0  0.7517147951070913  0.8382491625834445  0.6384292975005224  1.0000
  C   C38       1.0  0.7517133603616344  0.1617479207365875  0.3615686137993421  1.0000
  C   C39       1.0  0.248289874845895  0.66175040627855  0.1384286012671438  1.0000
  C   C40       1.0  0.24828844010043846  0.3382502623887049  0.8615720949662347  1.0000
  C   C41       1.0  0.603502720036559  0.8557650179345229  0.701139734038847  1.0000
  C   C42       1.0  0.6034998505456528  0.1442327824549494  0.298858873494396  1.0000
  C   C43       1.0  0.3964990804255137  0.644235985066359  0.201141126505604  1.0000
  C   C44       1.0  0.3964947761891438  0.3557661177397903  0.7988595697277743  1.0000
  C   C45       1.0  0.8928578793171127  0.7592990995380687  0.6564311077073055  1.0000
  C   C46       1.0  0.8928564445716561  0.24070156912918605  0.3435674998259444  1.0000
  C   C47       1.0  0.10714392114496013  0.7407033376017083  0.15643110770730564  1.0000
  C   C48       1.0  0.10714392114496013  0.2592973310655537  0.8435695885260728  1.0000
  C   C49       1.0  0.9180634874838349  0.8724447703118725  0.48617559005779026  1.0000
  C   C50       1.0  0.9180606179929215  0.1275530300775998  0.5138230174754597  1.0000
  C   C51       1.0  0.0819383129782381  0.6275540814806746  0.9861762862911618  1.0000
  C   C52       1.0  0.0819383129782381  0.3724458701171329  0.0138251061755881  1.0000
  C   C53       1.0  0.4155008492415463  0.1491884493944582  0.6322300355079022  1.0000
  C   C54       1.0  0.4154994144960896  0.8508100680644615  0.3677692682587193  1.0000
  C   C55       1.0  0.5844995164750701  0.3508118849391763  0.1322293392745237  1.0000
  C   C56       1.0  0.5845009512205266  0.6491887837280856  0.8677706607254763  1.0000
  I   I1        1.0  0.6066304651301098  0.15822854389689664  0.9188839378959839  1.0000
  I   I2        1.0  0.6066347693664795  0.841769973562023  0.0811160621040159  1.0000
  I   I3        1.0  0.39336129211377374  0.3417689221589483  0.4188853303627411  1.0000
  I   I4        1.0  0.3933699005865066  0.6582267270221889  0.5811167583373944  1.0000
  N   N1        1.0  0.0100747825903227  0.9605962684849769  0.8869247371719027  1.0000
  N   N2        1.0  0.010066174117582701  0.0394051172517251  0.1130787439949898  1.0000
  N   N3        1.0  0.9899298873626634  0.5394061686548  0.38692404093852417  1.0000
  N   N4        1.0  0.9899255831262934  0.4605966512207971  0.6130773515282328  1.0000
  O   O1        1.0  0.3589890952302213  0.05986956216369069  0.5904330571607588  1.0000
  O   O2        1.0  0.358990529975678  0.940130389434124  0.4095620692055988  1.0000
  O   O3        1.0  0.641006966250032  0.4401322063088314  0.0904379307944012  1.0000
  O   O4        1.0  0.6410127052318515  0.5598684623584234  0.9095655503724841  1.0000
