data_image0
_chemical_formula_structural       MnH12C6N8O4
_chemical_formula_sum              "Mn1 H12 C6 N8 O4"
_cell_length_a       5.391163406885417
_cell_length_b       8.397196528648363
_cell_length_c       7.545772798976053
_cell_angle_alpha    62.44908524061614
_cell_angle_beta     89.94486767305115
_cell_angle_gamma    87.3918671791939

_space_group_name_H-M_alt    "P 1"
_space_group_IT_number       1

loop_
  _space_group_symop_operation_xyz
  'x, y, z'

loop_
  _atom_site_type_symbol
  _atom_site_label
  _atom_site_symmetry_multiplicity
  _atom_site_fract_x
  _atom_site_fract_y
  _atom_site_fract_z
  _atom_site_occupancy
  Mn  Mn1       1.0  2.022878220490772e-06  0.9999982497338638  2.327697529688697e-06  1.0000
  H   H1        1.0  0.3762978122332754  0.30516525322666144  0.5998360502194799  1.0000
  H   H2        1.0  0.6236987061853085  0.6948367468288908  0.4001578177082122  1.0000
  H   H3        1.0  0.6291246767259012  0.352200188237667  0.9073762359043942  1.0000
  H   H4        1.0  0.3708794639209216  0.6477975624952991  0.09262067997231338  1.0000
  H   H5        1.0  0.524890549918446  0.5814517306838738  0.7523722244361437  1.0000
  H   H6        1.0  0.47510467668276846  0.4185483580703959  0.24763184691758522  1.0000
  H   H7        1.0  0.7951643194991576  0.5291050325211443  0.9103772683509636  1.0000
  H   H8        1.0  0.2048419645181596  0.4708949357031217  0.08962522892721124  1.0000
  H   H9        1.0  0.2352271408938051  0.8787547233610696  0.3723089623745537  1.0000
  H   H10       1.0  0.7647690215873411  0.12124298815236761  0.627712107609142  1.0000
  H   H11       1.0  0.44545563351680056  0.9687275584152176  0.2085614054906628  1.0000
  H   H12       1.0  0.5545693005935776  0.03127583136765109  0.7914430221857316  1.0000
  C   C1        1.0  0.2104958233294028  0.39421801392101935  0.549728548991226  1.0000
  C   C2        1.0  0.7895007498647076  0.6057890941148756  0.45026698926369596  1.0000
  C   C3        1.0  0.8449443929166592  0.4952438239646214  0.6498561875630954  1.0000
  C   C4        1.0  0.1550560497114546  0.504760445405374  0.350141861105655  1.0000
  C   C5        1.0  0.688682916824142  0.4893058338487108  0.8141259014924174  1.0000
  C   C6        1.0  0.31132280369513415  0.5106960801474684  0.18586642704276102  1.0000
  N   N1        1.0  0.059084466910142894  0.38712158601304486  0.6976384309360883  1.0000
  N   N2        1.0  0.940912190610774  0.6128828385920001  0.30235832112131084  1.0000
  N   N3        1.0  0.21684303958339513  0.8798365105373449  0.711917605173838  1.0000
  N   N4        1.0  0.7831578148283141  0.12015693881547658  0.2880866646822184  1.0000
  N   N5        1.0  0.25876365524904804  0.9591935379410971  0.804674063068106  1.0000
  N   N6        1.0  0.7412431402524859  0.0408084233637425  0.19533814822675313  1.0000
  N   N7        1.0  0.17685128545070938  0.7994046404540073  0.6235799619130802  1.0000
  N   N8        1.0  0.8231475323798563  0.2005877605353774  0.3764208515950571  1.0000
  O   O1        1.0  0.11626600388985511  0.2751329485345551  0.8855011942620907  1.0000
  O   O2        1.0  0.883730494827887  0.724874245795121  0.1144929780154341  1.0000
  O   O3        1.0  0.2828105065614608  0.9089661458263124  0.23255401028801256  1.0000
  O   O4        1.0  0.7171671678862168  0.09102490014078768  0.767433372784538  1.0000
