data_image0
_chemical_formula_structural       Cd2H36C40S4N8O12
_chemical_formula_sum              "Cd2 H36 C40 S4 N8 O12"
_cell_length_a       8.600100863207084
_cell_length_b       9.488960041179142
_cell_length_c       13.42911757607015
_cell_angle_alpha    90.00020684507356
_cell_angle_beta     101.66240965738146
_cell_angle_gamma    90.00061663105771

_space_group_name_H-M_alt    "P 1"
_space_group_IT_number       1

loop_
  _space_group_symop_operation_xyz
  'x, y, z'

loop_
  _atom_site_type_symbol
  _atom_site_label
  _atom_site_symmetry_multiplicity
  _atom_site_fract_x
  _atom_site_fract_y
  _atom_site_fract_z
  _atom_site_occupancy
  Cd  Cd1       1.0  0.49999181347357086  0.9999997591990424  0.9999970257730484  1.0000
  Cd  Cd2       1.0  8.976646029198285e-06  0.5000002467015535  0.50000111892836  1.0000
  H   H1        1.0  0.32464392788232743  0.8334861034265797  0.8645790176108366  1.0000
  H   H2        1.0  0.17535468507225724  0.33348372988202607  0.6354161950522866  1.0000
  H   H3        1.0  0.6753443648100517  0.16651397553078337  0.13541137843264292  1.0000
  H   H4        1.0  0.8246536065460007  0.6665131876455772  0.3645903022672031  1.0000
  H   H5        1.0  0.23418789421613442  0.7964175574937966  0.9542192121212455  1.0000
  H   H6        1.0  0.26580901954408626  0.29641770289956065  0.5457771707240087  1.0000
  H   H7        1.0  0.76579328526784  0.20358568299338486  0.04576947995465025  1.0000
  H   H8        1.0  0.7342040108299912  0.7035813223671922  0.4542307103488171  1.0000
  H   H9        1.0  0.5015319122401395  0.21079686753225949  0.8068808309619729  1.0000
  H   H10       1.0  0.998453017282657  0.7107852814096558  0.6931192901796239  1.0000
  H   H11       1.0  0.4984753355034711  0.7892158578067452  0.19311510010374633  1.0000
  H   H12       1.0  0.0015435042576612999  0.28921585146233747  0.3068781730402252  1.0000
  H   H13       1.0  0.42459753141146445  0.4601756293652881  0.7522896848496432  1.0000
  H   H14       1.0  0.07537181113823271  0.960171812060572  0.7477078454775639  1.0000
  H   H15       1.0  0.575406123880427  0.5398339343920282  0.24770799576589314  1.0000
  H   H16       1.0  0.9246140149821258  0.03983037461394188  0.2522889200285619  1.0000
  H   H17       1.0  0.2910064436639104  0.6084475745640673  0.8622160809951824  1.0000
  H   H18       1.0  0.20896766158760016  0.10844870142159377  0.6377864502002526  1.0000
  H   H19       1.0  0.7089841928304565  0.3915546121238477  0.13777686517262575  1.0000
  H   H20       1.0  0.7910240291263549  0.8915545391532971  0.36221631895870143  1.0000
  H   H21       1.0  0.3088265066042696  0.2499141922771031  0.06297499803632432  1.0000
  H   H22       1.0  0.19118558925281087  0.7499072165378634  0.4370381211551547  1.0000
  H   H23       1.0  0.6911689197907833  0.7500869405717195  0.9370156153872886  1.0000
  H   H24       1.0  0.8088227228806774  0.2500970779798307  0.5629668895835425  1.0000
  H   H25       1.0  0.045344972464946  0.9003876841308408  0.026985216618804514  1.0000
  H   H26       1.0  0.4546597434303692  0.40038451245059997  0.4730183366023868  1.0000
  H   H27       1.0  0.9546478849845104  0.0996092333164071  0.9730191992358432  1.0000
  H   H28       1.0  0.5453486403213077  0.5996176743413526  0.526981471044657  1.0000
  H   H29       1.0  0.9147638838392425  0.8568141131783874  0.11084286021159076  1.0000
  H   H30       1.0  0.5852413392263641  0.35680797133836956  0.3891617499621632  1.0000
  H   H31       1.0  0.08523132760345221  0.14317858885993218  0.8891633624558754  1.0000
  H   H32       1.0  0.41476702403103627  0.6431900000322982  0.610839544272338  1.0000
  H   H33       1.0  0.1082272670645423  0.9193408883607076  0.16049632762863555  1.0000
  H   H34       1.0  0.39177653334289886  0.41933535654268167  0.33950565879848693  1.0000
  H   H35       1.0  0.8917667776146986  0.08065392138018977  0.839508248334248  1.0000
  H   H36       1.0  0.6082306631370713  0.5806626148180242  0.6604939887269909  1.0000
  C   C1        1.0  0.4404226277370142  0.27973258684254176  0.8514232030620479  1.0000
  C   C2        1.0  0.059560964134440994  0.7797259916787167  0.6485743213667308  1.0000
  C   C3        1.0  0.5595810684665778  0.7202738153384303  0.14857150435413055  1.0000
  C   C4        1.0  0.9404390986708081  0.2202751412155877  0.35142510878750255  1.0000
  C   C5        1.0  0.3993470788022435  0.4180267087368392  0.8226581191092069  1.0000
  C   C6        1.0  0.1006311823464827  0.9180196084279119  0.6773420009796073  1.0000
  C   C7        1.0  0.6006542633801786  0.5819796934280035  0.17733478148526424  1.0000
  C   C8        1.0  0.8993617365229271  0.08198047057681629  0.32265795509267303  1.0000
  C   C9        1.0  0.3230891762724468  0.5003632339813248  0.88378121000563  1.0000
  C   C10       1.0  0.17689061929394967  0.0003597215495858999  0.6162218260971246  1.0000
  C   C11       1.0  0.6769038347373666  0.4996431681440183  0.11621205639642805  1.0000
  C   C12       1.0  0.8231057999216989  0.9996424651975386  0.3837830701066667  1.0000
  C   C13       1.0  0.2896939484095071  0.44250027309209355  0.9733675253772279  1.0000
  C   C14       1.0  0.21029644831556027  0.9424987215741252  0.5266387588367396  1.0000
  C   C15       1.0  0.7102966880778611  0.5575008597395552  0.02662542078835638  1.0000
  C   C16       1.0  0.789711822871304  0.0575034652385824  0.4733692250902025  1.0000
  C   C17       1.0  0.3332361484499343  0.3018275918449333  0.9953252862319248  1.0000
  C   C18       1.0  0.16676544271820154  0.8018223416048753  0.5046821660395724  1.0000
  C   C19       1.0  0.6667604345033453  0.6981756487282664  0.004667717203332715  1.0000
  C   C20       1.0  0.8332428898676483  0.19817984519651327  0.4953213580983375  1.0000
  C   C21       1.0  0.2151041410107197  0.5236560123090539  0.04313556049214641  1.0000
  C   C22       1.0  0.2848919463457094  0.023653215788165493  0.4568711269154805  1.0000
  C   C23       1.0  0.7848888494838562  0.4763430128261987  0.9568591924907044  1.0000
  C   C24       1.0  0.7151175223180675  0.9763489710288341  0.5431362738259724  1.0000
  C   C25       1.0  0.0999813815822108  0.7067294191654124  0.10566367995011214  1.0000
  C   C26       1.0  0.400016007329107  0.20672425310196724  0.3943391595159938  1.0000
  C   C27       1.0  0.9000198377323657  0.29326644445939815  0.8943381402002121  1.0000
  C   C28       1.0  0.5999887532853309  0.7932768798265001  0.6056646275798274  1.0000
  C   C29       1.0  0.09821667913065818  0.6094945093585122  0.18282370404558895  1.0000
  C   C30       1.0  0.4017841592443787  0.10948685068038337  0.3171801091539451  1.0000
  C   C31       1.0  0.9017869351377499  0.390501354274896  0.8171769497337498  1.0000
  C   C32       1.0  0.5982170805504978  0.890511120653194  0.6828202244044733  1.0000
  C   C33       1.0  0.0365870162960462  0.6212565483770331  0.2781826699530542  1.0000
  C   C34       1.0  0.4634139882895596  0.12125215280629928  0.2218204495521477  1.0000
  C   C35       1.0  0.9634177442555084  0.3787350998450377  0.7218211171227724  1.0000
  C   C36       1.0  0.5365825025303009  0.8787458185025513  0.778179243555549  1.0000
  C   C37       1.0  0.03782415570438501  0.8538210920367034  0.10039552772029484  1.0000
  C   C38       1.0  0.46217875550721743  0.3538176108559199  0.39960766903033135  1.0000
  C   C39       1.0  0.962171086451775  0.14617371770848558  0.8996084650570925  1.0000
  C   C40       1.0  0.5378272434958334  0.6461803605004945  0.6003925616806358  1.0000
  S   S1        1.0  0.18244676560697573  0.45342927329549787  0.15575522356911625  1.0000
  S   S2        1.0  0.3175514584508862  0.953420933464308  0.34425279571264883  1.0000
  S   S3        1.0  0.8175533278768087  0.5465686980243445  0.8442419766839325  1.0000
  S   S4        1.0  0.6824532816902362  0.04657914561166619  0.6557524779772879  1.0000
  N   N1        1.0  0.40711479243471876  0.22293190213417785  0.9366492996928887  1.0000
  N   N2        1.0  0.09288223180676881  0.722922024816036  0.5633543663588514  1.0000
  N   N3        1.0  0.5928794160380378  0.7770723922829247  0.06334338351922501  1.0000
  N   N4        1.0  0.907123746736943  0.2770770004004176  0.4366473509506863  1.0000
  N   N5        1.0  0.1682033497000859  0.6567746548042307  0.028574501231517516  1.0000
  N   N6        1.0  0.3317898151227112  0.15677028182558667  0.4714276472540818  1.0000
  N   N7        1.0  0.8317884228512471  0.34322437033049613  0.9714223215331689  1.0000
  N   N8        1.0  0.6682208612441656  0.843230851137562  0.5285784270014775  1.0000
  O   O1        1.0  0.08719878205926078  0.5270074426201603  0.3457313969068637  1.0000
  O   O2        1.0  0.4128092425803658  0.0269958805389692  0.1542754191447032  1.0000
  O   O3        1.0  0.9128166739611672  0.47299052879325376  0.6542730878982399  1.0000
  O   O4        1.0  0.5871860302752906  0.9729989292005569  0.8457263437381716  1.0000
  O   O5        1.0  0.9407515691562696  0.7200462815872156  0.285339684540098  1.0000
  O   O6        1.0  0.5592588922936557  0.22003897819789836  0.21467051268591328  1.0000
  O   O7        1.0  0.059256763387658416  0.2799495820765756  0.7146638395844749  1.0000
  O   O8        1.0  0.4407387959891551  0.7799568854027112  0.7853285972318533  1.0000
  O   O9        1.0  0.26877419471723135  0.8770207683322299  0.9159320965358762  1.0000
  O   O10       1.0  0.23122378777989647  0.37702077741253953  0.5840646261884574  1.0000
  O   O11       1.0  0.7312081924628588  0.1229803644448282  0.08405526905191614  1.0000
  O   O12       1.0  0.768785670622769  0.6229771939812848  0.41594351784227984  1.0000
