data_image0
_chemical_formula_structural       Zn6H90C66N12Cl6O12
_chemical_formula_sum              "Zn6 H90 C66 N12 Cl6 O12"
_cell_length_a       10.525111659001194
_cell_length_b       17.587501712854124
_cell_length_c       17.587944584940473
_cell_angle_alpha    119.9979081508466
_cell_angle_beta     89.99994566211713
_cell_angle_gamma    90.00002201421107

_space_group_name_H-M_alt    "P 1"
_space_group_IT_number       1

loop_
  _space_group_symop_operation_xyz
  'x, y, z'

loop_
  _atom_site_type_symbol
  _atom_site_label
  _atom_site_symmetry_multiplicity
  _atom_site_fract_x
  _atom_site_fract_y
  _atom_site_fract_z
  _atom_site_occupancy
  Zn  Zn1       1.0  0.878433985439159  0.07619276653151993  0.5357949743111234  1.0000
  Zn  Zn2       1.0  0.7118791907387205  0.5358216952094634  0.4596224461604378  1.0000
  Zn  Zn3       1.0  0.5451432746080442  0.4595359381829738  0.9237938836422616  1.0000
  Zn  Zn4       1.0  0.3784348680790329  0.9238076599022305  0.4642053995244096  1.0000
  Zn  Zn5       1.0  0.21187870741978537  0.4641790713322962  0.5403776997024822  1.0000
  Zn  Zn6       1.0  0.045142626890118685  0.5404657370448261  0.07620660291241414  1.0000
  H   H1        1.0  0.9857376960611929  0.9259298479988016  0.4560440168028066  1.0000
  H   H2        1.0  0.8191710825854412  0.4559742196647464  0.5300837166867112  1.0000
  H   H3        1.0  0.6524634981190401  0.5301405369503698  0.07412426487075409  1.0000
  H   H4        1.0  0.4857379068368316  0.0740711393803934  0.5439568609756122  1.0000
  H   H5        1.0  0.31917076234534386  0.544026298973442  0.4699154677504893  1.0000
  H   H6        1.0  0.15246430677974127  0.46985957724927363  0.9258765732971809  1.0000
  H   H7        1.0  0.1786974356580728  0.6891605024779393  0.22313143286883969  1.0000
  H   H8        1.0  0.012046075812641301  0.22307781699595347  0.5339821586172491  1.0000
  H   H9        1.0  0.8454256349424297  0.5342266754795941  0.31089829012025655  1.0000
  H   H10       1.0  0.6786982211642253  0.3108390412935691  0.7768688209466319  1.0000
  H   H11       1.0  0.5120457535878699  0.7769221548864493  0.4660166421997899  1.0000
  H   H12       1.0  0.34542586669456193  0.46577213559852015  0.6890991728405422  1.0000
  H   H13       1.0  0.8330668296735835  0.6671681867194649  0.10191588268558133  1.0000
  H   H14       1.0  0.6665446354055857  0.10172088741150276  0.4345935821042984  1.0000
  H   H15       1.0  0.5001028832232136  0.43467770196977534  0.33293360940117367  1.0000
  H   H16       1.0  0.33306664440722494  0.33283224293592173  0.8980845184681383  1.0000
  H   H17       1.0  0.16654534103181354  0.8982795540688499  0.5654069193205871  1.0000
  H   H18       1.0  0.00010226372147319998  0.5653221827646959  0.6670664236914446  1.0000
  H   H19       1.0  0.7776336547874647  0.8238110234223511  0.20777870392935666  1.0000
  H   H20       1.0  0.611127720437878  0.20751560151074955  0.3837257706358059  1.0000
  H   H21       1.0  0.44449407998228446  0.38387390215627437  0.17631559358684962  1.0000
  H   H22       1.0  0.27763258692517917  0.17619030701532526  0.7922219708953193  1.0000
  H   H23       1.0  0.11112732732718907  0.7924846036203019  0.6162738673389611  1.0000
  H   H24       1.0  0.9444930868658618  0.6161261913058736  0.8236850687352301  1.0000
  H   H25       1.0  0.13978379668849067  0.8461261789707348  0.3339043236722218  1.0000
  H   H26       1.0  0.9730126752171555  0.3339135439724004  0.48788976362460795  1.0000
  H   H27       1.0  0.8064256833543623  0.48788985901307297  0.1539104537636645  1.0000
  H   H28       1.0  0.6397837071847121  0.15387393612934372  0.6660965221310704  1.0000
  H   H29       1.0  0.4730114162229525  0.6660854983302044  0.5121085193298142  1.0000
  H   H30       1.0  0.30642569566104777  0.5121082982732331  0.8460876892092556  1.0000
  H   H31       1.0  0.9994887117061708  0.9846365892837452  0.36304324970737384  1.0000
  H   H32       1.0  0.8330133065458012  0.36294958483704676  0.3784093646799959  1.0000
  H   H33       1.0  0.6664718984438521  0.3784830637555244  0.015495033675335827  1.0000
  H   H34       1.0  0.4994887371941557  0.015363828553752608  0.6369570512352355  1.0000
  H   H35       1.0  0.33301090503594105  0.6370514133874464  0.6215916050622922  1.0000
  H   H36       1.0  0.16647176125628957  0.6215168091648025  0.9845048992379261  1.0000
  H   H37       1.0  0.8348367902163217  0.9633168497931447  0.3374898904038373  1.0000
  H   H38       1.0  0.668346165113192  0.33744171680552165  0.3741003071776418  1.0000
  H   H39       1.0  0.501808544003616  0.37406874984465327  0.03665172740641507  1.0000
  H   H40       1.0  0.3348358387171544  0.03668301117134839  0.662509941128647  1.0000
  H   H41       1.0  0.1683447232424129  0.6625582439777985  0.6258983995235424  1.0000
  H   H42       1.0  0.0018084432300185  0.625931463049305  0.9633479763948783  1.0000
  H   H43       1.0  0.7671813859125934  0.8411957817418307  0.37008042012315895  1.0000
  H   H44       1.0  0.6005843013525476  0.36999047889416664  0.52880160316748  1.0000
  H   H45       1.0  0.43381966933034727  0.5288441936251544  0.15878539962933047  1.0000
  H   H46       1.0  0.26718151461668777  0.15880465259216694  0.6299200207034233  1.0000
  H   H47       1.0  0.100583084144688  0.630010055266247  0.47119771289215606  1.0000
  H   H48       1.0  0.9338195054702182  0.4711562288756141  0.8412149408559982  1.0000
  H   H49       1.0  0.7340063399122271  0.8011777174025382  0.48121477991521266  1.0000
  H   H50       1.0  0.567381718894481  0.48092785255185067  0.6799297980534859  1.0000
  H   H51       1.0  0.4006428408671566  0.6799670383976772  0.1988199354209711  1.0000
  H   H52       1.0  0.23400572058553584  0.19882271928729978  0.5187856808879658  1.0000
  H   H53       1.0  0.0673816204844044  0.5190714588397966  0.3200696259712997  1.0000
  H   H54       1.0  0.9006426435758426  0.32003338645902357  0.8011804250418137  1.0000
  H   H55       1.0  0.8761026093305446  0.846433791871078  0.6070228241912828  1.0000
  H   H56       1.0  0.7089250868194483  0.6070426975328616  0.7606060344025136  1.0000
  H   H57       1.0  0.5424637259355904  0.7605977312710619  0.15349087321742852  1.0000
  H   H58       1.0  0.37610311076064556  0.15356663472824286  0.39297755104820437  1.0000
  H   H59       1.0  0.20892503553432815  0.39295717237278877  0.23939387294750955  1.0000
  H   H60       1.0  0.042462612469115896  0.23940215045531227  0.8465091343677286  1.0000
  H   H61       1.0  0.7943334273203178  0.9394557899081304  0.6172057583646121  1.0000
  H   H62       1.0  0.6270856440172139  0.6170438763736285  0.6776870703158621  1.0000
  H   H63       1.0  0.460680317711528  0.6777016879303941  0.06052690120333165  1.0000
  H   H64       1.0  0.2943338852209934  0.06054407393252607  0.38279409755657673  1.0000
  H   H65       1.0  0.12708545470037078  0.3829562396281645  0.32231378313365866  1.0000
  H   H66       1.0  0.9606799023677224  0.32229840438233026  0.93947375137202  1.0000
  H   H67       1.0  0.9552704574462253  0.9232583372595042  0.5852601284814722  1.0000
  H   H68       1.0  0.7881632723043595  0.5854268190457148  0.6620926843119078  1.0000
  H   H69       1.0  0.6216942686817433  0.662061745038052  0.0766367585902685  1.0000
  H   H70       1.0  0.45526992492586515  0.07674175543738933  0.4147405273514622  1.0000
  H   H71       1.0  0.2881630785247822  0.41457304523311916  0.3379071753248367  1.0000
  H   H72       1.0  0.12169404656768279  0.3379378027813757  0.923363529550002  1.0000
  H   H73       1.0  0.0157299101168391  0.7847776144126541  0.42976513986043585  1.0000
  H   H74       1.0  0.8492770769121234  0.42990022093117375  0.6450190166613226  1.0000
  H   H75       1.0  0.6824355515829338  0.6450842355315343  0.21524815354388235  1.0000
  H   H76       1.0  0.5157290620277734  0.2152222692121201  0.5702348838224225  1.0000
  H   H77       1.0  0.3492769558335879  0.570098982446602  0.35498146270388986  1.0000
  H   H78       1.0  0.18243461026663244  0.3549159645358487  0.7847514414930004  1.0000
  H   H79       1.0  0.8901852757715928  0.7197973711416877  0.3598781245826214  1.0000
  H   H80       1.0  0.7239225687365191  0.35989031270851524  0.6401206253024584  1.0000
  H   H81       1.0  0.5569118894908412  0.6401777730407047  0.2802304074433194  1.0000
  H   H82       1.0  0.39018451607486065  0.28020272617700925  0.6401225704414627  1.0000
  H   H83       1.0  0.22392153470023143  0.6401092278515462  0.35987960128122143  1.0000
  H   H84       1.0  0.0569110544664255  0.3598218673750892  0.7197686946220044  1.0000
  H   H85       1.0  0.925224255944954  0.7158641974272798  0.4566069149108998  1.0000
  H   H86       1.0  0.7587763069323187  0.4566814499087925  0.7407574481056541  1.0000
  H   H87       1.0  0.5918502653887429  0.7408168654662503  0.28410311051325  1.0000
  H   H88       1.0  0.42522270219613717  0.2841364659685013  0.5433943275703612  1.0000
  H   H89       1.0  0.2587772707381646  0.5433180881761785  0.2592427574902273  1.0000
  H   H90       1.0  0.0918484218216236  0.25918390959899523  0.7158971076255651  1.0000
  C   C1        1.0  0.0908028916029906  0.7217707057961391  0.22319383641828938  1.0000
  C   C2        1.0  0.924148539249437  0.22312859648737057  0.5014250177961728  1.0000
  C   C3        1.0  0.7575729006470268  0.5015806040557534  0.2783066263332187  1.0000
  C   C4        1.0  0.5908027061731288  0.2782294127821531  0.776807038878907  1.0000
  C   C5        1.0  0.42414927304697864  0.7768715864155309  0.4985744316925745  1.0000
  C   C6        1.0  0.2575721515070839  0.4984186938301391  0.7216926831680225  1.0000
  C   C7        1.0  0.8976038841086831  0.7097506413606424  0.15455906892733384  1.0000
  C   C8        1.0  0.7310665251358869  0.15437630451493334  0.4446446110909433  1.0000
  C   C9        1.0  0.5645316904456905  0.44477405806494363  0.29031690090828016  1.0000
  C   C10       1.0  0.39760375507439966  0.29025002399644967  0.8454421901851178  1.0000
  C   C11       1.0  0.23106626281817455  0.8456244606642896  0.555355523218246  1.0000
  C   C12       1.0  0.0645309968215813  0.5552249252484741  0.709682853096936  1.0000
  C   C13       1.0  0.8679120184510651  0.7968561980632172  0.21388696605171717  1.0000
  C   C14       1.0  0.7013709192644626  0.2136960272490001  0.4168583169801821  1.0000
  C   C15       1.0  0.5347724464106065  0.41697213940186356  0.2032188035728879  1.0000
  C   C16       1.0  0.3679109775808129  0.20314479768300953  0.786113982675886  1.0000
  C   C17       1.0  0.20137057477749915  0.7863041714737306  0.5831412666545785  1.0000
  C   C18       1.0  0.034772582488798796  0.5830265177441446  0.7967812966157267  1.0000
  C   C19       1.0  0.9531224785094352  0.8477393158878141  0.2815516626919035  1.0000
  C   C20       1.0  0.7865073165473786  0.28144520239827386  0.43375539936592833  1.0000
  C   C21       1.0  0.6199117314858781  0.4338193196686361  0.15232790021030945  1.0000
  C   C22       1.0  0.4531224624968288  0.1522607769615903  0.7184489944342828  1.0000
  C   C23       1.0  0.2865060052968076  0.7185549902788181  0.5662441330041829  1.0000
  C   C24       1.0  0.11991082586822437  0.5661796597121621  0.8476718204478428  1.0000
  C   C25       1.0  0.06774278306270529  0.8090153828858103  0.28447486771624825  1.0000
  C   C26       1.0  0.9010438364851934  0.28443128193484307  0.4755015046783768  1.0000
  C   C27       1.0  0.734463467991759  0.475558431899536  0.19105604891469596  1.0000
  C   C28       1.0  0.5677426389156679  0.19098440904937766  0.7155263497307018  1.0000
  C   C29       1.0  0.40104353968938966  0.7155686623242091  0.5244970619034107  1.0000
  C   C30       1.0  0.23446354717066237  0.5244402990621423  0.8089427059459807  1.0000
  C   C31       1.0  0.9213337143174696  0.9392733558210364  0.353589555060253  1.0000
  C   C32       1.0  0.7547765753645165  0.3535219781689704  0.414286426405468  1.0000
  C   C33       1.0  0.5881772176847874  0.41430438444449885  0.06077978671192592  1.0000
  C   C34       1.0  0.42133375390940125  0.060726739285733966  0.6464111212075424  1.0000
  C   C35       1.0  0.25477613706872393  0.6464767513502636  0.5857123162238125  1.0000
  C   C36       1.0  0.08817807949787239  0.5856958223162605  0.9392198650821229  1.0000
  C   C37       1.0  0.6741229377176481  0.9446576957385557  0.4787187467104486  1.0000
  C   C38       1.0  0.5075886440694075  0.47870592216381885  0.534049916116942  1.0000
  C   C39       1.0  0.3409352278796404  0.534011243560414  0.05524196578859627  1.0000
  C   C40       1.0  0.17412412257514379  0.05534217663841195  0.5212811815953415  1.0000
  C   C41       1.0  0.0075864153197855  0.5212942903197656  0.465949784204497  1.0000
  C   C42       1.0  0.8409358464633242  0.46598951381682957  0.9447581023628118  1.0000
  C   C43       1.0  0.7938775004878875  0.8882234743789822  0.43856433113765536  1.0000
  C   C44       1.0  0.6272985121704336  0.43847536833062145  0.5502948536567587  1.0000
  C   C45       1.0  0.46060327736666556  0.5503007228455344  0.1117658332415273  1.0000
  C   C46       1.0  0.29387675760667514  0.11177695805931621  0.5614360936141125  1.0000
  C   C47       1.0  0.12729823523902437  0.5615239388062534  0.4497045342891467  1.0000
  C   C48       1.0  0.9606020749968847  0.4496993694726896  0.8882348193804502  1.0000
  C   C49       1.0  0.8244547959645202  0.8329156490405152  0.4821538995661852  1.0000
  C   C50       1.0  0.6577874353776139  0.4820555351531865  0.6491877105712901  1.0000
  C   C51       1.0  0.49108940260620665  0.6492146649765117  0.1670556707885281  1.0000
  C   C52       1.0  0.3244532076537325  0.1670842126612442  0.5178459382180165  1.0000
  C   C53       1.0  0.15778728744860618  0.5179446666644764  0.35081189930723145  1.0000
  C   C54       1.0  0.9910901247399125  0.3507851848921818  0.8329440666558482  1.0000
  C   C55       1.0  0.8649417191282465  0.8888140249207834  0.5781363287119132  1.0000
  C   C56       1.0  0.6978896217280876  0.578123166778468  0.6893303638937879  1.0000
  C   C57       1.0  0.5313892698427124  0.6893181891100325  0.11113833594666286  1.0000
  C   C58       1.0  0.3649411974038799  0.11118550562527219  0.42186381295684316  1.0000
  C   C59       1.0  0.1978904259766239  0.4218763756301696  0.3106698783650969  1.0000
  C   C60       1.0  0.03138908500110921  0.3106816934027279  0.8888616783067036  1.0000
  C   C61       1.0  0.9197450151915801  0.7595502050867822  0.42886400542103315  1.0000
  C   C62       1.0  0.7532961278164548  0.4289088643227288  0.6693241585906476  1.0000
  C   C63       1.0  0.5864280068543195  0.6693771636506155  0.24043818843288975  1.0000
  C   C64       1.0  0.4197443394836426  0.24045021841346417  0.5711363435395072  1.0000
  C   C65       1.0  0.2532950958443577  0.5710901055862435  0.33067548175004186  1.0000
  C   C66       1.0  0.08642708993166788  0.3306227149537833  0.7595617926790935  1.0000
  N   N1        1.0  0.006358216265731199  0.6721933404885688  0.15968490695276913  1.0000
  N   N2        1.0  0.8397617767721994  0.15955587507409058  0.48740962347456207  1.0000
  N   N3        1.0  0.6732146068658834  0.48755726234659846  0.32787593195975967  1.0000
  N   N4        1.0  0.5063589119541944  0.32780711236687676  0.8403156909284774  1.0000
  N   N5        1.0  0.3397615790095188  0.840443985540652  0.5125902050921167  1.0000
  N   N6        1.0  0.1732139454035959  0.512441144683848  0.6721231880462851  1.0000
  N   N7        1.0  0.9012616515797587  0.9429416275064637  0.4390592754397529  1.0000
  N   N8        1.0  0.7346959908110405  0.4389941730770203  0.49608254161688586  1.0000
  N   N9        1.0  0.5680216412012838  0.49609724165505026  0.05709906030337908  1.0000
  N   N10       1.0  0.40126182448005915  0.05705879730628286  0.5609410846503025  1.0000
  N   N11       1.0  0.23469657760632856  0.5610062635638043  0.5039179187706607  1.0000
  N   N12       1.0  0.06802244468472907  0.5039032068215762  0.9429015004471637  1.0000
  Cl  Cl1       1.0  0.8848395207082119  0.12927464820081283  0.6800922405571512  1.0000
  Cl  Cl2       1.0  0.7182315913117632  0.6801345835523661  0.5508484307985737  1.0000
  Cl  Cl3       1.0  0.5517722542970702  0.55077600107397  0.8707237778544153  1.0000
  Cl  Cl4       1.0  0.38483869810320204  0.8707218621140668  0.31990749651960454  1.0000
  Cl  Cl5       1.0  0.21822830985992428  0.31986594225380566  0.4491508144202995  1.0000
  Cl  Cl6       1.0  0.051770513684623196  0.44922705109817673  0.12927873864008885  1.0000
  O   O1        1.0  0.679260807085967  0.027377151214111054  0.509073432962289  1.0000
  O   O2        1.0  0.5127857898330105  0.5091840194476018  0.48178780082466927  1.0000
  O   O3        1.0  0.34616293117429814  0.48163352098283946  0.9725440147396539  1.0000
  O   O4        1.0  0.17926167863735287  0.9726227207980213  0.4909264922498193  1.0000
  O   O5        1.0  0.0127844086809503  0.4908152958210366  0.5182116560754793  1.0000
  O   O6        1.0  0.8461621890323768  0.5183675643038581  0.027455722000198038  1.0000
  O   O7        1.0  0.5760289541246166  0.9025314228988675  0.47729798268776574  1.0000
  O   O8        1.0  0.40945188524033693  0.47725706556956027  0.5747102228309515  1.0000
  O   O9        1.0  0.24277852920412363  0.5747496692621893  0.09728821628639385  1.0000
  O   O10       1.0  0.0760292136510188  0.09746699103285292  0.5227011958384011  1.0000
  O   O11       1.0  0.9094524146617929  0.5227431183769794  0.4252892355074635  1.0000
  O   O12       1.0  0.7427791883831175  0.4252513353699001  0.9027128077899035  1.0000
