data_image0
_chemical_formula_structural       Co5H38C36N26O14
_chemical_formula_sum              "Co5 H38 C36 N26 O14"
_cell_length_a       9.271039144427691
_cell_length_b       12.795881241221629
_cell_length_c       14.109670845256975
_cell_angle_alpha    105.07757228777888
_cell_angle_beta     96.8485340055588
_cell_angle_gamma    96.02420227655495

_space_group_name_H-M_alt    "P 1"
_space_group_IT_number       1

loop_
  _space_group_symop_operation_xyz
  'x, y, z'

loop_
  _atom_site_type_symbol
  _atom_site_label
  _atom_site_symmetry_multiplicity
  _atom_site_fract_x
  _atom_site_fract_y
  _atom_site_fract_z
  _atom_site_occupancy
  Co  Co1       1.0  1.3840061583899997e-05  0.00013857209837199997  0.00013688027902249993  1.0000
  Co  Co2       1.0  0.5523886289724372  0.0738540746644887  0.27355598313607726  1.0000
  Co  Co3       1.0  0.44754736616130936  0.926300683092947  0.7262549442571994  1.0000
  Co  Co4       1.0  0.044492367254505893  0.2881855245170044  0.12270363876650238  1.0000
  Co  Co5       1.0  0.9554702424546946  0.711703037031441  0.877447763356791  1.0000
  H   H1        1.0  0.2997791254613772  0.6334387373127228  0.1491920550235335  1.0000
  H   H2        1.0  0.7001919967570628  0.366496182252483  0.8506625286315737  1.0000
  H   H3        1.0  0.4455245341087917  0.8711403162339337  0.4317323005977513  1.0000
  H   H4        1.0  0.5543618785556318  0.12877290787974263  0.5681558832231985  1.0000
  H   H5        1.0  0.23388301920585516  0.5514830302472475  0.4202724465666633  1.0000
  H   H6        1.0  0.7660863900022291  0.44836514746418743  0.5795525630172165  1.0000
  H   H7        1.0  0.9546951104560434  0.026522052643080895  0.7779737808431475  1.0000
  H   H8        1.0  0.045318661373066484  0.9735956083570939  0.2222882409713378  1.0000
  H   H9        1.0  0.29764688866601563  0.9478839937712565  0.09794350211164027  1.0000
  H   H10       1.0  0.7023199621229778  0.05230817482309651  0.9020763264957165  1.0000
  H   H11       1.0  0.7975266330853046  0.2621618059152055  0.2656237572350051  1.0000
  H   H12       1.0  0.20233910502505378  0.738042719048174  0.7345709737960319  1.0000
  H   H13       1.0  0.7250502309471542  0.2856798499620723  0.008248085003579327  1.0000
  H   H14       1.0  0.27507168630287987  0.714171624609854  0.9917194554863185  1.0000
  H   H15       1.0  0.7391738953696175  0.5007673775917496  0.23570002263773654  1.0000
  H   H16       1.0  0.26089513529014136  0.4990522463558804  0.7642289761611847  1.0000
  H   H17       1.0  0.5427567113677654  0.4799497445787466  0.22436026866206757  1.0000
  H   H18       1.0  0.45728776781417935  0.5198945679359355  0.7755952241925569  1.0000
  H   H19       1.0  0.6312951650204893  0.5708345999975323  0.16509211712148902  1.0000
  H   H20       1.0  0.36874567498436045  0.42896299007187355  0.8348224269626312  1.0000
  H   H21       1.0  0.4342323832359939  0.42664160358480535  0.017979878577392645  1.0000
  H   H22       1.0  0.5659014667885387  0.573253844171795  0.9819499558213349  1.0000
  H   H23       1.0  0.41079285251282016  0.3262169636792578  0.08247849716278918  1.0000
  H   H24       1.0  0.5891592145678857  0.6736706322161865  0.9173840985053443  1.0000
  H   H25       1.0  0.49656603895812873  0.2977582476711192  0.9716146136114358  1.0000
  H   H26       1.0  0.5034652765167776  0.702135001456469  0.028298092905139148  1.0000
  H   H27       1.0  0.7318884137130437  0.8614020674908714  0.0335523687151706  1.0000
  H   H28       1.0  0.2681955776179167  0.13880633041416957  0.9665364999373478  1.0000
  H   H29       1.0  0.5971498758611276  0.8867261171775667  0.11192002024693437  1.0000
  H   H30       1.0  0.40287455888439877  0.11336617827297599  0.8881072997681014  1.0000
  H   H31       1.0  0.08858454861558579  0.4299361745962925  0.9928890000240782  1.0000
  H   H32       1.0  0.9114641077369755  0.5701634700236369  0.007157541676242874  1.0000
  H   H33       1.0  0.04915998714470502  0.41829090440821676  0.8658973543418396  1.0000
  H   H34       1.0  0.9507825143545714  0.5816543354242542  0.13407998331479123  1.0000
  H   H35       1.0  0.48402825519395515  0.3034268947005074  0.3162958801262405  1.0000
  H   H36       1.0  0.5160749715996502  0.6966070771855827  0.6837176947402808  1.0000
  H   H37       1.0  0.3170476936693802  0.35349098525293243  0.2944102673270804  1.0000
  H   H38       1.0  0.6830058513202033  0.6466005582665559  0.7056617042051767  1.0000
  C   C1        1.0  0.18615269446800647  0.4707649256876039  0.21979479725897727  1.0000
  C   C2        1.0  0.8137555315651281  0.5289868807435666  0.7800000676260764  1.0000
  C   C3        1.0  0.2589993363223613  0.5814041240062409  0.2784885870294858  1.0000
  C   C4        1.0  0.7409494754895006  0.4183825552188125  0.7212623376815869  1.0000
  C   C5        1.0  0.3126254990741231  0.656599466618509  0.22996560147035433  1.0000
  C   C6        1.0  0.6873457198974506  0.3433248153985318  0.7698858008182298  1.0000
  C   C7        1.0  0.3805957602869228  0.7608777809898228  0.2851101348227445  1.0000
  C   C8        1.0  0.6193469427033661  0.23910628913100135  0.7147501172978676  1.0000
  C   C9        1.0  0.39386938182477144  0.7895986047760462  0.38876800635735975  1.0000
  C   C10       1.0  0.6060826071434562  0.2102995698007533  0.6110807487283976  1.0000
  C   C11       1.0  0.3425709185600638  0.7145424674981486  0.43776129645729606  1.0000
  C   C12       1.0  0.6574119250850785  0.28525724047234746  0.5620052802869819  1.0000
  C   C13       1.0  0.2748008279502301  0.6101479508378986  0.38251903639354606  1.0000
  C   C14       1.0  0.7251577560311374  0.38963870122779537  0.6172326549551526  1.0000
  C   C15       1.0  0.3645009344146146  0.7471633517003085  0.5491260910868546  1.0000
  C   C16       1.0  0.6354550165166586  0.2526046392547556  0.4506635651545919  1.0000
  C   C17       1.0  0.4393572477495055  0.8433034325711191  0.23602142396762096  1.0000
  C   C18       1.0  0.5605002446010657  0.15681760864657687  0.7638980440467334  1.0000
  C   C19       1.0  0.021006285783187185  0.27431844222519425  0.9042983861433738  1.0000
  C   C20       1.0  0.9790129756135783  0.7257873585257286  0.09584790653501331  1.0000
  C   C21       1.0  0.9771390025133256  0.10498987670968059  0.8338198015330318  1.0000
  C   C22       1.0  0.0228668514128429  0.8951041780222512  0.16646373063373696  1.0000
  C   C23       1.0  0.3243733365540109  0.203597057616598  0.20698605150383992  1.0000
  C   C24       1.0  0.6757266333899423  0.7965598264816124  0.7931119145790004  1.0000
  C   C25       1.0  0.28453570100212733  0.03328627573662861  0.12461194383292445  1.0000
  C   C26       1.0  0.715421644904552  0.966907719593564  0.8754550442799454  1.0000
  C   C27       1.0  0.7565509591297753  0.0173110776494454  0.12286350096852768  1.0000
  C   C28       1.0  0.24351210027029416  0.9828853549877649  0.8772925046073252  1.0000
  C   C29       1.0  0.8031605327915015  0.18601923530913206  0.21059534443691055  1.0000
  C   C30       1.0  0.19674165273546854  0.8141827047588491  0.7895931620025676  1.0000
  C   C31       1.0  0.7467157261056201  0.3567407184929793  0.0746325772471224  1.0000
  C   C32       1.0  0.25339020421933617  0.6430626989418401  0.9253699789528864  1.0000
  C   C33       1.0  0.6362906718011487  0.4942297866408012  0.1862733033404211  1.0000
  C   C34       1.0  0.3637668327268243  0.5055866902096753  0.813680981986458  1.0000
  C   C35       1.0  0.48415284720912405  0.36006463289677976  0.038817948630928426  1.0000
  C   C36       1.0  0.515931708472003  0.6398121952103467  0.9611206549130029  1.0000
  N   N1        1.0  0.8977039732848056  0.17362431893705116  0.1467309197701141  1.0000
  N   N2        1.0  0.10229574974874822  0.8266102490439026  0.8535239385161117  1.0000
  N   N3        1.0  0.8703087611989488  0.0658732578849879  0.09038219217983821  1.0000
  N   N4        1.0  0.12975329428096666  0.9343798665523549  0.9098571174180845  1.0000
  N   N5        1.0  0.7133736872962968  0.0913384595668489  0.19947160936287384  1.0000
  N   N6        1.0  0.2865853268065307  0.9088311681103746  0.800641566899621  1.0000
  N   N7        1.0  0.6909313529641851  0.9134069994764359  0.08729856736772497  1.0000
  N   N8        1.0  0.3092181456593792  0.08674259514898353  0.9128625681730184  1.0000
  N   N9        1.0  0.9938074556655819  0.113941640844871  0.9316845859286358  1.0000
  N   N10       1.0  0.006222472399116428  0.8862643310382694  0.06860072213171976  1.0000
  N   N11       1.0  0.021194293467651393  0.22427039721534206  0.9789936380277521  1.0000
  N   N12       1.0  0.9788506290432791  0.7759393684481282  0.02122003195893295  1.0000
  N   N13       1.0  0.992279186803394  0.20192819375816373  0.8130706945865211  1.0000
  N   N14       1.0  0.007719816380770776  0.798119002867388  0.187129787639492  1.0000
  N   N15       1.0  0.0450384203080176  0.3840569791508416  0.9227682944247132  1.0000
  N   N16       1.0  0.9550033273791171  0.6160296299589235  0.07728458373172498  1.0000
  N   N17       1.0  0.1724051025013154  0.0785175648332199  0.09357274392925059  1.0000
  N   N18       1.0  0.8275633511220591  0.9217177218696693  0.9066259445098978  1.0000
  N   N19       1.0  0.1974122406244803  0.18856631263221854  0.14425325798450925  1.0000
  N   N20       1.0  0.8026311644784199  0.8116466804909875  0.8559468697524082  1.0000
  N   N21       1.0  0.3818225233543017  0.1076535321159326  0.19600686843026685  1.0000
  N   N22       1.0  0.6182464626629381  0.8925219717387165  0.804011483486235  1.0000
  N   N23       1.0  0.3881506506244961  0.3005379897177249  0.26968159015601145  1.0000
  N   N24       1.0  0.6119572198052977  0.6996147428943121  0.730404693077105  1.0000
  N   N25       1.0  0.6281105768064066  0.4023194231304715  0.09844943815481604  1.0000
  N   N26       1.0  0.37197270135676774  0.5974790802605484  0.9015303358583109  1.0000
  O   O1        1.0  0.1815125784285385  0.44021237476815145  0.1254376444481693  1.0000
  O   O2        1.0  0.8184218736091253  0.5594347299366548  0.874358979398792  1.0000
  O   O3        1.0  0.12965624413147475  0.40387972723696197  0.2637723382431644  1.0000
  O   O4        1.0  0.8702199335897018  0.5958919561837988  0.7360692766825065  1.0000
  O   O5        1.0  0.5008838699915045  0.9352456658526904  0.29688864704400686  1.0000
  O   O6        1.0  0.4987263355555385  0.06497160945340139  0.702985504878576  1.0000
  O   O7        1.0  0.4286303766924036  0.8221916609009057  0.1426072779102583  1.0000
  O   O8        1.0  0.5713727116042976  0.17786270515357225  0.8573060342272497  1.0000
  O   O9        1.0  0.4061405038500893  0.8511827801182292  0.5888982343586732  1.0000
  O   O10       1.0  0.5937375233629609  0.14860925663210622  0.41092134048123086  1.0000
  O   O11       1.0  0.34689426831398856  0.6781917093219929  0.5972681135295587  1.0000
  O   O12       1.0  0.6531189606672639  0.32154651530807843  0.40247377375766286  1.0000
  O   O13       1.0  0.8739309915693879  0.39134832640331757  0.12292685386087499  1.0000
  O   O14       1.0  0.1261709504073707  0.6083848417581663  0.8770859393573287  1.0000
