data_image0
_chemical_formula_structural       Ag8H24C32N16O8
_chemical_formula_sum              "Ag8 H24 C32 N16 O8"
_cell_length_a       7.109758649262033
_cell_length_b       11.560771334029994
_cell_length_c       11.919827875705083
_cell_angle_alpha    90.00697609576093
_cell_angle_beta     89.99275549802981
_cell_angle_gamma    90.00093450505277

_space_group_name_H-M_alt    "P 1"
_space_group_IT_number       1

loop_
  _space_group_symop_operation_xyz
  'x, y, z'

loop_
  _atom_site_type_symbol
  _atom_site_label
  _atom_site_symmetry_multiplicity
  _atom_site_fract_x
  _atom_site_fract_y
  _atom_site_fract_z
  _atom_site_occupancy
  Ag  Ag1       1.0  0.26204265417652556  0.4466500624449877  0.573233308840905  1.0000
  Ag  Ag2       1.0  0.23790898211839112  0.05336939726226571  0.0732911632668873  1.0000
  Ag  Ag3       1.0  0.26201783886170205  0.5533579921139096  0.9267719951259606  1.0000
  Ag  Ag4       1.0  0.23796704964495768  0.9466390073301201  0.42670346827728156  1.0000
  Ag  Ag5       1.0  0.7379461283570662  0.5533620026942219  0.4267493079525906  1.0000
  Ag  Ag6       1.0  0.7620361820866749  0.9466418078986296  0.9267157757190814  1.0000
  Ag  Ag7       1.0  0.737920311143938  0.4466436911967051  0.0732080978103866  1.0000
  Ag  Ag8       1.0  0.76205265769687  0.05337306553235521  0.573306838531323  1.0000
  H   H1        1.0  0.2552070638164778  0.6536642525199028  0.44768915421046523  1.0000
  H   H2        1.0  0.24480455716926036  0.846306939856092  0.9477030338604135  1.0000
  H   H3        1.0  0.255169419174166  0.34631907112380134  0.0523337649239082  1.0000
  H   H4        1.0  0.24483143671987054  0.1536941931887625  0.552275676571817  1.0000
  H   H5        1.0  0.7447859183135679  0.34634003535818886  0.5523236659684017  1.0000
  H   H6        1.0  0.7551659377391929  0.15369301617077014  0.05228461500655608  1.0000
  H   H7        1.0  0.744788407679714  0.6536765631953331  0.9476681443371574  1.0000
  H   H8        1.0  0.755143279035629  0.8463299819380413  0.44770861437226017  1.0000
  H   H9        1.0  0.9676063740270069  0.3169006473861772  0.21242988599259147  1.0000
  H   H10       1.0  0.532492062410178  0.18311420081200686  0.7124783833351813  1.0000
  H   H11       1.0  0.967502078825426  0.6831295053998758  0.2875781735046274  1.0000
  H   H12       1.0  0.532353324822296  0.8169056352827084  0.7875405540226978  1.0000
  H   H13       1.0  0.0323739803375318  0.6830768141953812  0.7875384715564947  1.0000
  H   H14       1.0  0.467496696535065  0.8168823034870486  0.2875403096414644  1.0000
  H   H15       1.0  0.03245856976165841  0.31687391056789954  0.7124103122846249  1.0000
  H   H16       1.0  0.46766075392685014  0.1830848138483034  0.2124747880493771  1.0000
  H   H17       1.0  0.5008217607140324  0.6025629365470025  0.7607306158433004  1.0000
  H   H18       1.0  0.9990935452278011  0.8974864191429007  0.26074220502894  1.0000
  H   H19       1.0  0.5008836447008278  0.39745618816899525  0.7392914350066562  1.0000
  H   H20       1.0  0.9991548816987574  0.10254098799329368  0.23927448652029426  1.0000
  H   H21       1.0  0.49918528759706504  0.39743010654824235  0.23928136902114253  1.0000
  H   H22       1.0  0.0009388222218333998  0.1025031639773744  0.7392672675628943  1.0000
  H   H23       1.0  0.4991416863242151  0.602530801266866  0.2607239093110536  1.0000
  H   H24       1.0  0.0008451390065857998  0.8974399433230361  0.7607307871191649  1.0000
  C   C1        1.0  0.31906309318404175  0.6911173382570155  0.5228497771392923  1.0000
  C   C2        1.0  0.18088144000238063  0.8088879525734216  0.0228630870952173  1.0000
  C   C3        1.0  0.3190659655905534  0.3088849188454574  0.9771682802568477  1.0000
  C   C4        1.0  0.18089788505035642  0.19112452278422865  0.47713472645779825  1.0000
  C   C5        1.0  0.6809116015924631  0.3088964649417393  0.477166394684012  1.0000
  C   C6        1.0  0.8191354586888695  0.19111287382045822  0.9771413480135323  1.0000
  C   C7        1.0  0.6809031103490569  0.6911167717672628  0.022837824818076096  1.0000
  C   C8        1.0  0.8191007484604144  0.8088944604488832  0.5228395017438316  1.0000
  C   C9        1.0  0.08988602102408551  0.3581029054208785  0.3755382771760054  1.0000
  C   C10       1.0  0.4101100782948707  0.14190223900428123  0.8755646311671298  1.0000
  C   C11       1.0  0.08984491482215871  0.6419162705974912  0.12447175732776827  1.0000
  C   C12       1.0  0.4100518934738986  0.8581080234252596  0.624447073584207  1.0000
  C   C13       1.0  0.9101280931336292  0.641903100128154  0.6244233710093708  1.0000
  C   C14       1.0  0.5898800883276819  0.8580933999146438  0.1244523842647496  1.0000
  C   C15       1.0  0.910212767415949  0.35808023395185984  0.8755410743341016  1.0000
  C   C16       1.0  0.5899551472465989  0.1418919423608287  0.37557581666087  1.0000
  C   C17       1.0  0.028910295468755003  0.28063572036973744  0.2884271365173419  1.0000
  C   C18       1.0  0.4711998530310738  0.2193793328066036  0.7884928858481005  1.0000
  C   C19       1.0  0.0288305613393476  0.7193881926548259  0.2115797574427986  1.0000
  C   C20       1.0  0.47109987951011334  0.7806348470957405  0.7115253382926312  1.0000
  C   C21       1.0  0.9711122569068067  0.7193642308524205  0.7115361916371866  1.0000
  C   C22       1.0  0.5288184401019791  0.7806137133076801  0.21153000705101013  1.0000
  C   C23       1.0  0.9711750883344977  0.2806048474571341  0.7884204820563027  1.0000
  C   C24       1.0  0.5289071656287732  0.21935300729796842  0.2884916808139977  1.0000
  C   C25       1.0  0.4516971743172392  0.6637051648175145  0.6971540506445278  1.0000
  C   C26       1.0  0.04823849918360421  0.8363132499001011  0.19718804410653948  1.0000
  C   C27       1.0  0.4517475121615889  0.3363071790026666  0.802862024085364  1.0000
  C   C28       1.0  0.048332092002254995  0.16371249646741154  0.30281260574802354  1.0000
  C   C29       1.0  0.5483464507636456  0.3362878764551737  0.30284703399350116  1.0000
  C   C30       1.0  0.9517460559697285  0.16368324839719867  0.8028071579097542  1.0000
  C   C31       1.0  0.5482581284380359  0.6636875944668718  0.1971516382217544  1.0000
  C   C32       1.0  0.9516341801134375  0.8362840007406831  0.6971800764679725  1.0000
  N   N1        1.0  0.37280576254872944  0.6164941936644298  0.6032686976460723  1.0000
  N   N2        1.0  0.1271279019059506  0.8835168743507538  0.10329549775340749  1.0000
  N   N3        1.0  0.37282624330842407  0.38351420973494754  0.8967534892785876  1.0000
  N   N4        1.0  0.12717941579659003  0.11649637670099373  0.3967032241362673  1.0000
  N   N5        1.0  0.627191441879532  0.383511823254672  0.3967399283262338  1.0000
  N   N6        1.0  0.8728833725409474  0.116480491293963  0.8967064200303341  1.0000
  N   N7        1.0  0.6271597104138352  0.616484021533971  0.10325345789885887  1.0000
  N   N8        1.0  0.8728234264190179  0.8835122309192373  0.6032877847448147  1.0000
  N   N9        1.0  0.3349079979168367  0.8052844133536468  0.5279715142839905  1.0000
  N   N10       1.0  0.1650563718479248  0.6947234547766854  0.028006602912356  1.0000
  N   N11       1.0  0.33490709618971704  0.19471863231156317  0.9720349380023874  1.0000
  N   N12       1.0  0.16510162766839195  0.3052916898232639  0.47198772501737807  1.0000
  N   N13       1.0  0.6651088969530508  0.19472765922787258  0.4720379531270353  1.0000
  N   N14       1.0  0.8349267782716155  0.3052782328186936  0.9719860814468929  1.0000
  N   N15       1.0  0.6650507283785317  0.8052778678440548  0.027970326909645796  1.0000
  N   N16       1.0  0.8348913820925645  0.6947255624384355  0.5279831467167851  1.0000
  O   O1        1.0  0.08037997955517542  0.4664138660665884  0.37243161428178684  1.0000
  O   O2        1.0  0.419639984365844  0.033597502363555506  0.872450569129981  1.0000
  O   O3        1.0  0.08032077061410091  0.5336082956945561  0.1275828630332043  1.0000
  O   O4        1.0  0.4195873476643826  0.9664140957516739  0.627539080337442  1.0000
  O   O5        1.0  0.9196580508220934  0.5335973279399014  0.6275216478124719  1.0000
  O   O6        1.0  0.5803656578198968  0.9663998654567507  0.12756057605604806  1.0000
  O   O7        1.0  0.9197734789275388  0.46638561562956254  0.8724333306590351  1.0000
  O   O8        1.0  0.580432350723669  0.033582410795624205  0.37248549025945  1.0000
