data_image0
_chemical_formula_structural       Tl2H10C6N4O8
_chemical_formula_sum              "Tl2 H10 C6 N4 O8"
_cell_length_a       4.546654958289111
_cell_length_b       7.818767915044031
_cell_length_c       9.270117345968334
_cell_angle_alpha    89.99961159781658
_cell_angle_beta     102.88162794270755
_cell_angle_gamma    90.00007050051093

_space_group_name_H-M_alt    "P 1"
_space_group_IT_number       1

loop_
  _space_group_symop_operation_xyz
  'x, y, z'

loop_
  _atom_site_type_symbol
  _atom_site_label
  _atom_site_symmetry_multiplicity
  _atom_site_fract_x
  _atom_site_fract_y
  _atom_site_fract_z
  _atom_site_occupancy
  Tl  Tl1       1.0  0.9789774891628157  0.8413156015028136  0.9862854048738682  1.0000
  Tl  Tl2       1.0  0.4789784728652576  0.1586843243452662  0.486289108787595  1.0000
  H   H1        1.0  0.1312379675068343  0.12418012533075282  0.7805971714835491  1.0000
  H   H2        1.0  0.6312367581313438  0.8758237792312825  0.28059294610336843  1.0000
  H   H3        1.0  0.6769647167216988  0.543484786636519  0.3303706439924666  1.0000
  H   H4        1.0  0.1769612580931508  0.4565136305675567  0.8303735649718573  1.0000
  H   H5        1.0  0.6700531339883041  0.22036780656053173  0.8548904176922887  1.0000
  H   H6        1.0  0.1700515420178732  0.7796342434345291  0.3548881737537072  1.0000
  H   H7        1.0  0.8168788663920807  0.31309216678053536  0.23015404090138952  1.0000
  H   H8        1.0  0.3168797774256192  0.6869084441464396  0.7301518144686552  1.0000
  H   H9        1.0  0.8876057618235365  0.3623206109126613  0.05442580506450408  1.0000
  H   H10       1.0  0.3876067044301408  0.6376789204232621  0.5544249392701344  1.0000
  C   C1        1.0  0.5276402284427918  0.5091682199731622  0.10523854534557128  1.0000
  C   C2        1.0  0.027636745557821  0.49082808171596776  0.6052401908426218  1.0000
  C   C3        1.0  0.7086110209601699  0.34489044235799327  0.11549313092140777  1.0000
  C   C4        1.0  0.20860968398385174  0.6551097431444859  0.6154897633678045  1.0000
  C   C5        1.0  0.4988497870915652  0.20029880290812233  0.0487821480382564  1.0000
  C   C6        1.0  0.9988465676164394  0.7996995753262086  0.5487784385980277  1.0000
  N   N1        1.0  0.5423267888190964  0.5900743185404166  0.23225599407389547  1.0000
  N   N2        1.0  0.042325609236875984  0.40992479883028915  0.7322594242275711  1.0000
  N   N3        1.0  0.5185331620681026  0.1623583876328851  0.9102295601955389  1.0000
  N   N4        1.0  0.018531541638012107  0.837643103840911  0.4102269850244582  1.0000
  O   O1        1.0  0.39863913459112144  0.7426021057524324  0.23940878137928215  1.0000
  O   O2        1.0  0.8986407158147216  0.25739848878404814  0.7394118934089133  1.0000
  O   O3        1.0  0.37471874126504895  0.564091416788102  0.9819252260159246  1.0000
  O   O4        1.0  0.874722289776649  0.435908469489533  0.4819283170050567  1.0000
  O   O5        1.0  0.31952018874744686  0.13202683830287756  0.11623419550102908  1.0000
  O   O6        1.0  0.8195191993882247  0.8679708630060786  0.6162314189198597  1.0000
  O   O7        1.0  0.32144595182457186  0.04667675894530281  0.8237140878220541  1.0000
  O   O8        1.0  0.8214447192681361  0.9533243742270514  0.3237115789863266  1.0000
