data_image0
_chemical_formula_structural       Zn2H34C40N6O8
_chemical_formula_sum              "Zn2 H34 C40 N6 O8"
_cell_length_a       10.965468945996761
_cell_length_b       13.92529260592176
_cell_length_c       15.329275163594755
_cell_angle_alpha    90.14116586360791
_cell_angle_beta     90.14364501719436
_cell_angle_gamma    89.54625132662434

_space_group_name_H-M_alt    "P 1"
_space_group_IT_number       1

loop_
  _space_group_symop_operation_xyz
  'x, y, z'

loop_
  _atom_site_type_symbol
  _atom_site_label
  _atom_site_symmetry_multiplicity
  _atom_site_fract_x
  _atom_site_fract_y
  _atom_site_fract_z
  _atom_site_occupancy
  Zn  Zn1       1.0  0.5052978350303478  0.4000032414237323  0.5000821922082326  1.0000
  Zn  Zn2       1.0  0.5105147855859116  0.5996448971838858  0.5018741828717026  1.0000
  H   H1        1.0  0.6068928833494951  0.24807107488168612  0.3888227934676254  1.0000
  H   H2        1.0  0.39195387209720417  0.2505989960933164  0.6099504004147749  1.0000
  H   H3        1.0  0.7713765583124754  0.4369920124803527  0.6445031480853629  1.0000
  H   H4        1.0  0.2212177852885588  0.47537119097340497  0.6709178741960926  1.0000
  H   H5        1.0  0.87290055472036  0.41104393860341293  0.7854419776639932  1.0000
  H   H6        1.0  0.09930648000693759  0.43008837130940236  0.7998698184297768  1.0000
  H   H7        1.0  0.37875321337224926  0.3720793702294358  0.9343484250232736  1.0000
  H   H8        1.0  0.5015921637339318  0.3567716196275156  0.05599334809881641  1.0000
  H   H9        1.0  0.4072572972261028  0.3688803155310651  0.773114940376182  1.0000
  H   H10       1.0  0.5090818163071518  0.35435779043443455  0.21856568590192185  1.0000
  H   H11       1.0  0.5734068028540663  0.6460834371035773  0.7831624774503467  1.0000
  H   H12       1.0  0.42852499167627667  0.6557563301091919  0.22575363708057242  1.0000
  H   H13       1.0  0.5508941056849253  0.6492038375038334  0.9447801530206734  1.0000
  H   H14       1.0  0.4172657611512491  0.6595061415127927  0.06358402839804712  1.0000
  H   H15       1.0  0.58517849688414  0.9343810740519698  0.6292946826173493  1.0000
  H   H16       1.0  0.421926556080635  0.9306351132623191  0.372798501282162  1.0000
  H   H17       1.0  0.5889397948322426  0.7532456978312752  0.6237612089292455  1.0000
  H   H18       1.0  0.4320283130754916  0.749725255218074  0.37866801189230875  1.0000
  H   H19       1.0  0.9691617818679532  0.576705926915011  0.30254867373183464  1.0000
  H   H20       1.0  0.7738451774185293  0.5405296617795726  0.23899390188026362  1.0000
  H   H21       1.0  0.7328895426868057  0.4771385168973551  0.333913389840376  1.0000
  H   H22       1.0  0.8475755239493948  0.4290087026505561  0.2642280176391268  1.0000
  H   H23       1.0  0.2303633037050403  0.5769564585280732  0.3695214284376435  1.0000
  H   H24       1.0  0.20944032955767264  0.498198109424166  0.23137618745294478  1.0000
  H   H25       1.0  0.07392242256149469  0.44330850279467876  0.2699305775028052  1.0000
  H   H26       1.0  0.2172816102312467  0.41044144697104895  0.31658019765060175  1.0000
  H   H27       1.0  0.654065230043571  0.1100230865466827  0.3228402548909131  1.0000
  H   H28       1.0  0.7677304879140225  0.9700946081113955  0.32202025677342777  1.0000
  H   H29       1.0  0.6967244099146442  0.9280252791658153  0.41770976159836704  1.0000
  H   H30       1.0  0.8010301783297609  0.025423915273954392  0.4247442308249348  1.0000
  H   H31       1.0  0.34183393114041394  0.11345262556245216  0.6754522448929878  1.0000
  H   H32       1.0  0.23761032398378035  0.9699021260043137  0.6787894163784716  1.0000
  H   H33       1.0  0.3113041073361699  0.9277868914744473  0.583693750675245  1.0000
  H   H34       1.0  0.200560722125573  0.021876890016812898  0.5753957638568039  1.0000
  C   C1        1.0  0.5111671825942353  0.5033775076688867  0.6717769896037495  1.0000
  C   C2        1.0  0.48182756675122823  0.5029259761800305  0.3293739115142743  1.0000
  C   C3        1.0  0.4934682380648354  0.506680002293379  0.7685990311754269  1.0000
  C   C4        1.0  0.47130076259982456  0.5050091107235204  0.23193657631205167  1.0000
  C   C5        1.0  0.530973461835572  0.5864913117926845  0.817208755750258  1.0000
  C   C6        1.0  0.44467647261135573  0.5906876116074502  0.18773948605640814  1.0000
  C   C7        1.0  0.5170991004375979  0.5881421484910733  0.9074054125819162  1.0000
  C   C8        1.0  0.43916776753170683  0.5924564437456611  0.09703368703241473  1.0000
  C   C9        1.0  0.46484439679500883  0.5101596636635931  0.9515607566834775  1.0000
  C   C10       1.0  0.4603807877426505  0.5085537665666848  0.04779558898052731  1.0000
  C   C11       1.0  0.5508526703084584  0.8961120705231165  0.5723873791036241  1.0000
  C   C12       1.0  0.4591057076981997  0.894022922387961  0.4297561604059015  1.0000
  C   C13       1.0  0.5532459605293454  0.7963433627424263  0.5699899669963246  1.0000
  C   C14       1.0  0.46449139741007883  0.7944223133430409  0.43227193616858983  1.0000
  C   C15       1.0  0.50310594898707  0.9468573575881365  0.5009817917003829  1.0000
  C   C16       1.0  0.563397852762094  0.10431952410750969  0.4347855369197406  1.0000
  C   C17       1.0  0.43576665090994027  0.10563494907706429  0.564731841350202  1.0000
  C   C18       1.0  0.5595037875542275  0.20505293722550988  0.43739961870360133  1.0000
  C   C19       1.0  0.4391670255405415  0.2064778993025128  0.5614688701653423  1.0000
  C   C20       1.0  0.5003784316647639  0.053072469443677085  0.5002076504220128  1.0000
  C   C21       1.0  0.7430759141142075  0.49316056785683315  0.48872352701818056  1.0000
  C   C22       1.0  0.271671356773318  0.505116629354262  0.510754454658823  1.0000
  C   C23       1.0  0.8696128953055222  0.44619668819693453  0.6496337753082599  1.0000
  C   C24       1.0  0.12270326660858899  0.4667090234151131  0.6650542723055893  1.0000
  C   C25       1.0  0.9270886061647874  0.43105593829721295  0.7287966426252908  1.0000
  C   C26       1.0  0.0546563850892454  0.44137921414507264  0.7369829892079668  1.0000
  C   C27       1.0  0.0662139239811665  0.4830228615497488  0.5830032054969507  1.0000
  C   C28       1.0  0.9366201422319378  0.4727595983062115  0.57415827317012  1.0000
  C   C29       1.0  0.8797494154728869  0.4934959072735764  0.4921275188978101  1.0000
  C   C30       1.0  0.1348366873643627  0.507183287122352  0.5077011709416298  1.0000
  C   C31       1.0  0.9486697080347711  0.5219488904294706  0.42031947492466776  1.0000
  C   C32       1.0  0.0793543505091705  0.5257029111527202  0.4285925102898319  1.0000
  C   C33       1.0  0.4235369599023216  0.4317705195034875  0.9017915357258846  1.0000
  C   C34       1.0  0.48360581321805546  0.4223657363684197  0.09294925904555383  1.0000
  C   C35       1.0  0.43826533864161377  0.4298174472174451  0.8117341344385239  1.0000
  C   C36       1.0  0.4891703750499232  0.4206498456390405  0.18353513495838314  1.0000
  C   C37       1.0  0.8099188231159005  0.49632284874077465  0.2925068518113323  1.0000
  C   C38       1.0  0.1634436150346517  0.4708107200205588  0.2896161706177552  1.0000
  C   C39       1.0  0.7286017837639704  0.9926567484036253  0.38465191625337525  1.0000
  C   C40       1.0  0.27519702394336315  0.9921828183706008  0.6158380462392616  1.0000
  N   N1        1.0  0.5108148705673798  0.7465596818949932  0.5011102003022218  1.0000
  N   N2        1.0  0.4995512492779995  0.2534912717930665  0.4994541682669721  1.0000
  N   N3        1.0  0.9008164937096412  0.5505783118153288  0.34048070772185224  1.0000
  N   N4        1.0  0.14722773189107127  0.5498706948949205  0.3527873528828068  1.0000
  N   N5        1.0  0.6276118370497058  0.0597138537416342  0.3668058193829325  1.0000
  N   N6        1.0  0.3714835164946706  0.06252722909888318  0.6325977402756922  1.0000
  O   O1        1.0  0.4910905838319836  0.4233759647317042  0.6339354048638912  1.0000
  O   O2        1.0  0.5118283434580562  0.4234225056084285  0.3643835600366217  1.0000
  O   O3        1.0  0.5443237351845412  0.5804450643683624  0.6342211881825295  1.0000
  O   O4        1.0  0.4605210808088033  0.5813547031726856  0.3703087740508266  1.0000
  O   O5        1.0  0.6899880548549576  0.41337071184793917  0.5021602415414608  1.0000
  O   O6        1.0  0.3214516790127675  0.42463295396339606  0.4929254592455764  1.0000
  O   O7        1.0  0.6892489917804737  0.5731478287388613  0.4749359247995245  1.0000
  O   O8        1.0  0.3267947911146152  0.582874788906153  0.5283637029043292  1.0000
