data_image0
_chemical_formula_structural       Zn2H40C32N6O10
_chemical_formula_sum              "Zn2 H40 C32 N6 O10"
_cell_length_a       8.83382047358562
_cell_length_b       9.600479639179765
_cell_length_c       10.896990564905693
_cell_angle_alpha    88.05088762499652
_cell_angle_beta     79.26899852776698
_cell_angle_gamma    70.83344020250118

_space_group_name_H-M_alt    "P 1"
_space_group_IT_number       1

loop_
  _space_group_symop_operation_xyz
  'x, y, z'

loop_
  _atom_site_type_symbol
  _atom_site_label
  _atom_site_symmetry_multiplicity
  _atom_site_fract_x
  _atom_site_fract_y
  _atom_site_fract_z
  _atom_site_occupancy
  Zn  Zn1       1.0  0.8116979571235843  0.3152086727051681  0.7472270530189179  1.0000
  Zn  Zn2       1.0  0.18830378900602796  0.6847898512334893  0.2527736276782448  1.0000
  H   H1        1.0  0.9834327912411286  0.46248029940522867  0.9137389176651354  1.0000
  H   H2        1.0  0.016566261110398297  0.5375193437740934  0.08626306609374981  1.0000
  H   H3        1.0  0.23382811490951375  0.5409553828344259  0.8823704858896592  1.0000
  H   H4        1.0  0.7661705558211763  0.4590453576072375  0.11763244511148234  1.0000
  H   H5        1.0  0.40564181089524004  0.5116997690817795  0.6673648865260802  1.0000
  H   H6        1.0  0.5943584042949581  0.4882998572283483  0.33263783614299297  1.0000
  H   H7        1.0  0.32113539582233835  0.40447563670355174  0.4935973716344435  1.0000
  H   H8        1.0  0.6788655870656014  0.5955250817597956  0.5064052035472102  1.0000
  H   H9        1.0  0.13192921783883088  0.28155820712196095  0.4265961820497495  1.0000
  H   H10       1.0  0.8680717515290224  0.7184425231014514  0.5734045594920616  1.0000
  H   H11       1.0  0.5570303603331368  0.20967147540910247  0.413633361671657  1.0000
  H   H12       1.0  0.4429705955146305  0.7903292665743817  0.5863655462303045  1.0000
  H   H13       1.0  0.7350584823283982  0.053619788987177196  0.3908557920728555  1.0000
  H   H14       1.0  0.2649424870394553  0.9463809412362352  0.6091449494689557  1.0000
  H   H15       1.0  0.4513624186697384  0.10440598832333586  0.6156389512783776  1.0000
  H   H16       1.0  0.5486377762403195  0.8955936556269034  0.3843610209309247  1.0000
  H   H17       1.0  0.6238496124440046  0.9447584240137772  0.5876500399623126  1.0000
  H   H18       1.0  0.37615173854468503  0.0552412089473009  0.4123497543372494  1.0000
  H   H19       1.0  0.9277421572988728  0.1489148634007478  0.40526816184517866  1.0000
  H   H20       1.0  0.07225996138755866  0.8510858617135426  0.5947314849669709  1.0000
  H   H21       1.0  0.0440084226394078  0.780946476716508  0.82323116007786  1.0000
  H   H22       1.0  0.9559921538914934  0.2190520699713829  0.17676786488919297  1.0000
  H   H23       1.0  0.059373945837286564  0.895321840538415  0.9416100518239858  1.0000
  H   H24       1.0  0.9406250862341138  0.1046778202810117  0.05838918147513548  1.0000
  H   H25       1.0  0.8648052727821139  0.7764614557679079  0.032879235582470266  1.0000
  H   H26       1.0  0.1351945269870284  0.22353929720473797  0.9671198502292314  1.0000
  H   H27       1.0  0.756821647492636  0.9646951145763863  0.020312136524708473  1.0000
  H   H28       1.0  0.24317853389734273  0.0353045411339181  0.979686002044744  1.0000
  H   H29       1.0  0.7921383265831918  0.7262096166263277  0.8265676396434927  1.0000
  H   H30       1.0  0.207863406026334  0.2737889190724091  0.17343120741382023  1.0000
  H   H31       1.0  0.6644326894298231  0.9110675723609916  0.8299455133175897  1.0000
  H   H32       1.0  0.3355674987201951  0.08893207746927348  0.1700535420717841  1.0000
  H   H33       1.0  0.6306606203198512  0.6900476787996155  0.03564059101436352  1.0000
  H   H34       1.0  0.3693399629710965  0.3099508620082431  0.9643593507726183  1.0000
  H   H35       1.0  0.49573042202846535  0.8710626375082456  0.0329205565081665  1.0000
  H   H36       1.0  0.5042697661215526  0.1289370123220195  0.9670784988812144  1.0000
  H   H37       1.0  0.4147200180240774  0.8079514759348354  0.8393884070496186  1.0000
  H   H38       1.0  0.5852790140473232  0.192048184884591  0.1606108262495027  1.0000
  H   H39       1.0  0.39024326204650345  0.6838826218593964  0.9619899685687869  1.0000
  H   H40       1.0  0.6097580821821466  0.31611701698170686  0.038008908910846594  1.0000
  C   C1        1.0  0.06499014626542275  0.4492250020905574  0.8233457437794129  1.0000
  C   C2        1.0  0.9350096737838525  0.5507757332419843  0.17665609249206682  1.0000
  C   C3        1.0  0.20247370188493358  0.49431637482474866  0.804717049536734  1.0000
  C   C4        1.0  0.7975265065452175  0.5056832573654191  0.1952847563124109  1.0000
  C   C5        1.0  0.29784195414308084  0.47719221801479966  0.6852816987307478  1.0000
  C   C6        1.0  0.7021578726662269  0.5228085114377022  0.31472105436065334  1.0000
  C   C7        1.0  0.2535152015847472  0.41545774628882265  0.5892401882683629  1.0000
  C   C8        1.0  0.7464830807650598  0.5845440972952147  0.4107627731550992  1.0000
  C   C9        1.0  0.11600506245648026  0.3703918860651569  0.6163775891977465  1.0000
  C   C10       1.0  0.8839939898950463  0.6296077571141651  0.3836243945611386  1.0000
  C   C11       1.0  0.0602722610250552  0.3048617081624627  0.5214981143071499  1.0000
  C   C12       1.0  0.9397279474050962  0.6951379240276978  0.4785036915420021  1.0000
  C   C13       1.0  0.7115271251075442  0.19863256884676153  0.5423751362153624  1.0000
  C   C14       1.0  0.28847267466159826  0.8013681841258843  0.4576239495963391  1.0000
  C   C15       1.0  0.6381466256803277  0.12281483495447526  0.4636017959364197  1.0000
  C   C16       1.0  0.36185240639106536  0.8771848258649513  0.5363974373626945  1.0000
  C   C17       1.0  0.5417989223885654  0.033233706042935296  0.5405382588092493  1.0000
  C   C18       1.0  0.4582012725214992  0.9667659379072974  0.4594617134000529  1.0000
  C   C19       1.0  0.9362495396537867  0.011672117723300296  0.7983035355322627  1.0000
  C   C20       1.0  0.06375064849623173  0.9883275321069643  0.20169551985711817  1.0000
  C   C21       1.0  0.9775053365909941  0.8807227573673516  0.8821212806456842  1.0000
  C   C22       1.0  0.02249485155902423  0.11927689246291344  0.1178777747436897  1.0000
  C   C23       1.0  0.8253682829528303  0.8621081338821384  0.9650858980570405  1.0000
  C   C24       1.0  0.1746322935780711  0.1378904128057599  0.0349131269100127  1.0000
  C   C25       1.0  0.7158496592170137  0.8199938319460712  0.8905750769665843  1.0000
  C   C26       1.0  0.2841520733925122  0.18000470375266528  0.1094237700907286  1.0000
  C   C27       1.0  0.5787618685401411  0.7770486402600483  0.9725007326752005  1.0000
  C   C28       1.0  0.42123831960987684  0.22295100957022376  0.027498322714180297  1.0000
  C   C29       1.0  0.4796755918374558  0.7204298398561944  0.8968212782174306  1.0000
  C   C30       1.0  0.5203249846934526  0.27956870683169643  0.1031777467496227  1.0000
  C   C31       1.0  0.5892347073392584  0.5907876952686307  0.8114254222515457  1.0000
  C   C32       1.0  0.41076663688938436  0.4092119435724797  0.1885734552280951  1.0000
  N   N1        1.0  0.02365826678004621  0.38746114634903245  0.7325395696237536  1.0000
  N   N2        1.0  0.9763419416501052  0.6125384858411279  0.26746223622539833  1.0000
  N   N3        1.0  0.9242136096517442  0.2796212107982327  0.5574531031425636  1.0000
  N   N4        1.0  0.07578659201836753  0.7203784272719674  0.44254778588666005  1.0000
  N   N5        1.0  0.8559946474351035  0.2175059460045574  0.48486738429925685  1.0000
  N   N6        1.0  0.14400439139633647  0.7824937089348366  0.5151327658197857  1.0000
  O   O1        1.0  0.6462803251786654  0.24539781463717242  0.6512875971158608  1.0000
  O   O2        1.0  0.35371716243322726  0.7546029603137896  0.3487118445153143  1.0000
  O   O3        1.0  0.86685775358594  0.13919875368258516  0.8536011751774595  1.0000
  O   O4        1.0  0.13314127848545357  0.8608009071368413  0.1463980581216617  1.0000
  O   O5        1.0  0.9690707018294871  0.99337708131592  0.6806815432266262  1.0000
  O   O6        1.0  0.030931037540085495  0.0066214485027771  0.31931822065060805  1.0000
  O   O7        1.0  0.6060006827465542  0.5999733392563938  0.6944902587234482  1.0000
  O   O8        1.0  0.3940018175607208  0.400026288595562  0.30550844084645234  1.0000
  O   O9        1.0  0.6645658572248931  0.47345325468603516  0.8665606782078541  1.0000
  O   O10       1.0  0.335433563227383  0.5265453029910104  0.13343852466893216  1.0000
