data_image0
_chemical_formula_structural       Zn12H24C40N16O40
_chemical_formula_sum              "Zn12 H24 C40 N16 O40"
_cell_length_a       11.71318025906909
_cell_length_b       12.98522136485362
_cell_length_c       19.169793971053714
_cell_angle_alpha    89.99973650095949
_cell_angle_beta     90.00004557836685
_cell_angle_gamma    113.42551447685216

_space_group_name_H-M_alt    "P 1"
_space_group_IT_number       1

loop_
  _space_group_symop_operation_xyz
  'x, y, z'

loop_
  _atom_site_type_symbol
  _atom_site_label
  _atom_site_symmetry_multiplicity
  _atom_site_fract_x
  _atom_site_fract_y
  _atom_site_fract_z
  _atom_site_occupancy
  Zn  Zn1       1.0  0.1882268640890031  0.6947417423770829  0.6181798380297183  1.0000
  Zn  Zn2       1.0  0.3117723503973338  0.8052575447840269  0.11818058258158005  1.0000
  Zn  Zn3       1.0  0.8117783094848576  0.3052521047808625  0.3818165583952295  1.0000
  Zn  Zn4       1.0  0.6882219566419111  0.19474873464253756  0.8818179004373268  1.0000
  Zn  Zn5       1.0  0.6433909128781892  0.6006842528331261  0.5880660553172564  1.0000
  Zn  Zn6       1.0  0.8566085124021469  0.8993170473470042  0.08806809385859544  1.0000
  Zn  Zn7       1.0  0.35661629544242857  0.39931630002185853  0.4119319060597919  1.0000
  Zn  Zn8       1.0  0.1433858360456952  0.10068338206961867  0.9119319541314969  1.0000
  Zn  Zn9       1.0  0.5641145084146758  0.8731152896089969  0.8324714716559358  1.0000
  Zn  Zn10      1.0  0.9358876190664844  0.6268816973311572  0.33247179118682635  1.0000
  Zn  Zn11      1.0  0.4358824948260748  0.12687346447972198  0.1675301413150693  1.0000
  Zn  Zn12      1.0  0.0641148997085921  0.3731238251331277  0.6675287784513773  1.0000
  H   H1        1.0  0.18770637141896154  0.671901615766245  0.44264851386430615  1.0000
  H   H2        1.0  0.3122929024333131  0.8280969115611183  0.942646372023049  1.0000
  H   H3        1.0  0.8123007954882623  0.3281047870810383  0.5573525774277004  1.0000
  H   H4        1.0  0.6877000413871173  0.17189431088171853  0.05735471928908003  1.0000
  H   H5        1.0  0.18215912685950997  0.5685884961797711  0.7429481973459108  1.0000
  H   H6        1.0  0.3178358144192686  0.9314064717137498  0.2429495947856709  1.0000
  H   H7        1.0  0.8178446107446078  0.4314178737370256  0.2570570671774136  1.0000
  H   H8        1.0  0.6821534728921536  0.06858220829118268  0.7570587996857231  1.0000
  H   H9        1.0  0.059425390819995955  0.5677257080353754  0.7059915893322571  1.0000
  H   H10       1.0  0.4405719294095364  0.9322729027751251  0.2059930453475048  1.0000
  H   H11       1.0  0.9405831292280452  0.43227987202982376  0.2940089803073534  1.0000
  H   H12       1.0  0.5594172235991836  0.06771744749772778  0.7940116975431412  1.0000
  H   H13       1.0  0.7126659843946896  0.724966710359368  0.7484317129154551  1.0000
  H   H14       1.0  0.7873323898636357  0.7750317062234372  0.24843201788147712  1.0000
  H   H15       1.0  0.287331338943936  0.27502873297095215  0.2515709433532295  1.0000
  H   H16       1.0  0.21267098623295058  0.22497382445779116  0.7515716816810215  1.0000
  H   H17       1.0  0.5388864390080883  0.40380157321344257  0.5434925656002678  1.0000
  H   H18       1.0  0.9611125772618934  0.0961992827082057  0.04349299342515422  1.0000
  H   H19       1.0  0.4611123303708027  0.596197227096404  0.4565064390854305  1.0000
  H   H20       1.0  0.038885066177272234  0.9038028498735003  0.9565080978711298  1.0000
  H   H21       1.0  0.4514302089186301  0.41806601130301146  0.6000925038542849  1.0000
  H   H22       1.0  0.04856962690934099  0.08193515027876687  0.10009329187047916  1.0000
  H   H23       1.0  0.5485674345253386  0.5819361212963443  0.39990389255586234  1.0000
  H   H24       1.0  0.9514329332796619  0.9180645221951806  0.899903626198743  1.0000
  C   C1        1.0  0.09956177295063635  0.6623116635599897  0.46592314402387575  1.0000
  C   C2        1.0  0.4004369574799825  0.8376875198712173  0.9659220595835268  1.0000
  C   C3        1.0  0.9004438136152116  0.3376930525815637  0.534076382308321  1.0000
  C   C4        1.0  0.5995574323775158  0.1623070595393798  0.034078510069711916  1.0000
  C   C5        1.0  0.4216683105254119  0.6635048154969211  0.5796897034825153  1.0000
  C   C6        1.0  0.07833035256370367  0.8364972621729548  0.07969179902885776  1.0000
  C   C7        1.0  0.5783390321043171  0.33649406711366225  0.4203056496270891  1.0000
  C   C8        1.0  0.9216606594831376  0.16350731408460456  0.9203066839918823  1.0000
  C   C9        1.0  0.630283021706731  0.727527525537397  0.7238680440795878  1.0000
  C   C10       1.0  0.8697173446446698  0.7724736015881603  0.22386891981018672  1.0000
  C   C11       1.0  0.36971904266403033  0.2724729779395004  0.27613148225830036  1.0000
  C   C12       1.0  0.13028250925949436  0.2275277164382031  0.7761321714879161  1.0000
  C   C13       1.0  0.4634249886988754  0.7609657991188  0.7051979530728264  1.0000
  C   C14       1.0  0.036577704304477265  0.7390353765220965  0.2051998100893259  1.0000
  C   C15       1.0  0.5365774785949496  0.23902969360920417  0.29479792169486546  1.0000
  C   C16       1.0  0.9634246801673569  0.26097181620815485  0.7947976296221388  1.0000
  C   C17       1.0  0.37581989101489194  0.8140538837089009  0.724625808915086  1.0000
  C   C18       1.0  0.12418398108673055  0.6859479934101743  0.2246263102777847  1.0000
  C   C19       1.0  0.6241819461569165  0.1859441102860586  0.2753700658485486  1.0000
  C   C20       1.0  0.8758170916560813  0.31405417210397957  0.7753700861331654  1.0000
  C   C21       1.0  0.48168346132297296  0.7015014298588937  0.6484415718278671  1.0000
  C   C22       1.0  0.018316414282949587  0.7984993083639506  0.14844479923000625  1.0000
  C   C23       1.0  0.5183209478208254  0.2984965888143306  0.35155638955242824  1.0000
  C   C24       1.0  0.9816790186912241  0.20150363877310437  0.8515562920644587  1.0000
  C   C25       1.0  0.9035503045432449  0.6338871181445853  0.4784055263160598  1.0000
  C   C26       1.0  0.5964481880466437  0.8661129189571426  0.9784068097340399  1.0000
  C   C27       1.0  0.09645347447800384  0.3661134017936333  0.5215929567141944  1.0000
  C   C28       1.0  0.403547875050613  0.13388752691687955  0.021593238256450313  1.0000
  C   C29       1.0  0.9169559913754953  0.6425158954795762  0.6186031627780512  1.0000
  C   C30       1.0  0.5830384961106176  0.8574817853406952  0.11860467356708436  1.0000
  C   C31       1.0  0.08304123906794555  0.35747536810480085  0.38139845018909585  1.0000
  C   C32       1.0  0.41695788708184267  0.1425253497651227  0.8813990259911652  1.0000
  C   C33       1.0  0.9581637396331287  0.648813073346325  0.5445413344028227  1.0000
  C   C34       1.0  0.5418321181704754  0.8511860115082328  0.04454232260418682  1.0000
  C   C35       1.0  0.04183764312742264  0.35117990163576007  0.4554602785626971  1.0000
  C   C36       1.0  0.4581667026902067  0.14882281853984838  0.9554608552980146  1.0000
  C   C37       1.0  0.7804248777806749  0.6174141771046137  0.44930922525216505  1.0000
  C   C38       1.0  0.7195748931543946  0.8825869261171133  0.9493115620669887  1.0000
  C   C39       1.0  0.2195848611017439  0.382592250432694  0.5506908227324134  1.0000
  C   C40       1.0  0.2804181435612136  0.11740847607165246  0.05069057254667802  1.0000
  N   N1        1.0  0.08139274672515726  0.6675586681383193  0.5346818254265673  1.0000
  N   N2        1.0  0.41860370506251593  0.8324403825727841  0.034681495223772216  1.0000
  N   N3        1.0  0.9186097205638646  0.33243682457204216  0.46531874422726116  1.0000
  N   N4        1.0  0.5813928124379899  0.16756508228471026  0.9653206393750654  1.0000
  N   N5        1.0  0.5871286207377437  0.6819760391565592  0.6614756758263314  1.0000
  N   N6        1.0  0.9128722347377761  0.8180263960790484  0.16147643102974035  1.0000
  N   N7        1.0  0.41287759595066126  0.3180261757200071  0.3385233288559065  1.0000
  N   N8        1.0  0.0871238283589477  0.18197404979301982  0.838524138614766  1.0000
  N   N9        1.0  0.559170939286247  0.7764228529451741  0.7517962627584966  1.0000
  N   N10       1.0  0.9408302272674759  0.7235780725364337  0.2517962831802906  1.0000
  N   N11       1.0  0.4408316209000915  0.22357681951896777  0.24820326358080552  1.0000
  N   N12       1.0  0.05917242581458028  0.27642577967561266  0.7482037648065334  1.0000
  N   N13       1.0  0.9943909044200226  0.6422318314686918  0.4302459156190823  1.0000
  N   N14       1.0  0.5056081824908105  0.8577677365376032  0.9302456147522312  1.0000
  N   N15       1.0  0.005617842831789144  0.3577762580960807  0.5697536107086381  1.0000
  N   N16       1.0  0.49438598016345736  0.14222433337538123  0.06975547655888192  1.0000
  O   O1        1.0  0.31624953371712644  0.6636614612525233  0.56406040096811  1.0000
  O   O2        1.0  0.18375150611199587  0.8363382490630968  0.06406150632673052  1.0000
  O   O3        1.0  0.6837564971787771  0.3363323941243266  0.4359386037271167  1.0000
  O   O4        1.0  0.8162435239444505  0.1636697088424484  0.935938019997771  1.0000
  O   O5        1.0  0.4842421985639831  0.6312756192801956  0.5374185795283285  1.0000
  O   O6        1.0  0.015757904126296282  0.8687259532704275  0.03741950001096232  1.0000
  O   O7        1.0  0.5157683976442157  0.36873081648973727  0.4625804251484171  1.0000
  O   O8        1.0  0.9842308459684332  0.1312694077846359  0.9625800263316225  1.0000
  O   O9        1.0  0.40008766839089555  0.8700325662372705  0.7809779243488112  1.0000
  O   O10       1.0  0.09991509681744046  0.6299705494241508  0.280980153146274  1.0000
  O   O11       1.0  0.5999024762564461  0.12995612203751958  0.21901951538846032  1.0000
  O   O12       1.0  0.9000924316026585  0.3700366926783046  0.7190172865664056  1.0000
  O   O13       1.0  0.5394742489231065  0.43268879151130324  0.5926813644305897  1.0000
  O   O14       1.0  0.9605258855707605  0.06731254223070239  0.09268292536492594  1.0000
  O   O15       1.0  0.4605240246412805  0.5673108398152138  0.40731659694566275  1.0000
  O   O16       1.0  0.039475682982825264  0.9326887922530673  0.9073181659335819  1.0000
  O   O17       1.0  0.28191706086854396  0.8047565730844112  0.6868617008351311  1.0000
  O   O18       1.0  0.21808445080603894  0.695243892883248  0.18686274173484216  1.0000
  O   O19       1.0  0.7180923165148843  0.19524901524868452  0.31312843572436594  1.0000
  O   O20       1.0  0.7819073670874701  0.30475066187848643  0.8131279164914961  1.0000
  O   O21       1.0  0.1335413605653031  0.5480543047944977  0.7001115544467142  1.0000
  O   O22       1.0  0.36645682901636417  0.9519443584345023  0.20011239045523882  1.0000
  O   O23       1.0  0.8664659406451635  0.4519504277868193  0.2998926667720242  1.0000
  O   O24       1.0  0.6335334085176214  0.0480485095548673  0.7998944390478118  1.0000
  O   O25       1.0  0.002375184333054388  0.6565239510916783  0.6640932294054384  1.0000
  O   O26       1.0  0.4976185650934681  0.843472432172213  0.16409342589172846  1.0000
  O   O27       1.0  0.9976304850515799  0.3434690650358759  0.3359078619070673  1.0000
  O   O28       1.0  0.5023741615990643  0.15653216052902508  0.8359087087075283  1.0000
  O   O29       1.0  0.8060746331080679  0.6242154623106798  0.6352668795080876  1.0000
  O   O30       1.0  0.6939189629716437  0.8757820850617435  0.13526682361298736  1.0000
  O   O31       1.0  0.19392354755633787  0.37577998925225836  0.364734733452771  1.0000
  O   O32       1.0  0.3060781846514118  0.12422087853075678  0.8647347893358917  1.0000
  O   O33       1.0  0.6929563704602869  0.6189848657519832  0.4877227593581141  1.0000
  O   O34       1.0  0.8070446336342485  0.8810209760144048  0.9877261880389344  1.0000
  O   O35       1.0  0.307052965505477  0.3810265725577364  0.512274680348469  1.0000
  O   O36       1.0  0.19294975622377566  0.11897360339815319  0.012273859960288307  1.0000
  O   O37       1.0  0.7674276713486208  0.605262087029466  0.38303518491354555  1.0000
  O   O38       1.0  0.73257214224504  0.8947353344827461  0.8830369686678811  1.0000
  O   O39       1.0  0.23257999137524626  0.39474348480899124  0.6169648630718501  1.0000
  O   O40       1.0  0.2674216588995648  0.10525589618682568  0.11696464429846296  1.0000
