data_image0
_chemical_formula_structural       Zn16H32C96S16N8O52F8
_chemical_formula_sum              "Zn16 H32 C96 S16 N8 O52 F8"
_cell_length_a       19.69839041149663
_cell_length_b       19.68696305277624
_cell_length_c       33.40317015299819
_cell_angle_alpha    79.11724871730996
_cell_angle_beta     79.0831194663007
_cell_angle_gamma    63.817146357860835

_space_group_name_H-M_alt    "P 1"
_space_group_IT_number       1

loop_
  _space_group_symop_operation_xyz
  'x, y, z'

loop_
  _atom_site_type_symbol
  _atom_site_label
  _atom_site_symmetry_multiplicity
  _atom_site_fract_x
  _atom_site_fract_y
  _atom_site_fract_z
  _atom_site_occupancy
  Zn  Zn1       1.0  0.055938088186124384  0.40061182972361553  0.47831412339713353  1.0000
  Zn  Zn2       1.0  0.9839372358635501  0.483721354904112  0.5601515693738791  1.0000
  Zn  Zn3       1.0  0.058881165185404385  0.5608006380317077  0.4823864909041902  1.0000
  Zn  Zn4       1.0  0.9008990825193945  0.555926325726247  0.47952402719334225  1.0000
  Zn  Zn5       1.0  0.6947904290490284  0.3495175905314696  0.27165216481471083  1.0000
  Zn  Zn6       1.0  0.6884898142689692  0.19015706798904822  0.2666626384438189  1.0000
  Zn  Zn7       1.0  0.7684610261577518  0.2664295433953113  0.1904927515346415  1.0000
  Zn  Zn8       1.0  0.8482528529837835  0.1931131400933667  0.27154604787999403  1.0000
  Zn  Zn9       1.0  0.2668357179379938  0.7667669698961388  0.6894629828529943  1.0000
  Zn  Zn10      1.0  0.3482573344268475  0.6956549467092326  0.7720467100537363  1.0000
  Zn  Zn11      1.0  0.1925398393394104  0.849001246029871  0.7716059518889723  1.0000
  Zn  Zn12      1.0  0.19144311023177343  0.689290258079211  0.767879077749221  1.0000
  Zn  Zn13      1.0  0.5606860766373031  0.05991994652013925  0.983506422848784  1.0000
  Zn  Zn14      1.0  0.4010591631310448  0.05543419781141516  0.9781885500294933  1.0000
  Zn  Zn15      1.0  0.556345918327409  0.9010839235681586  0.978730513998407  1.0000
  Zn  Zn16      1.0  0.4828667100359993  0.9818888940063742  0.0602087305241454  1.0000
  H   H1        1.0  0.7492471080443011  0.45119692086437607  0.35005070490245765  1.0000
  H   H2        1.0  0.0012948724873709002  0.29866266555151094  0.4000679048274307  1.0000
  H   H3        1.0  0.20087168821549276  0.7003865863770569  0.5994750549709168  1.0000
  H   H4        1.0  0.0496852200506694  0.5498187728878886  0.6507234057046675  1.0000
  H   H5        1.0  0.46288952603060085  0.24115330071435898  0.3407626354273959  1.0000
  H   H6        1.0  0.4801272934651806  0.700949843952756  0.6018864299699516  1.0000
  H   H7        1.0  0.20392124458948047  0.9800080431827137  0.6014749108849884  1.0000
  H   H8        1.0  0.947424716467452  0.9694363679172677  0.3473780666881936  1.0000
  H   H9        1.0  0.6502456192067143  0.15105949867652416  0.049446374411601796  1.0000
  H   H10       1.0  0.5996468654540337  0.09906821078281063  0.20048608749335983  1.0000
  H   H11       1.0  0.5482986011627986  0.7698054943567595  0.14825463699115463  1.0000
  H   H12       1.0  0.16249640031838908  0.14288779661188036  0.040769640262276106  1.0000
  H   H13       1.0  0.29834291545643765  0.00161711831638198  0.9000936944204909  1.0000
  H   H14       1.0  0.4509178782316924  0.7495592247561685  0.8499022450162811  1.0000
  H   H15       1.0  0.30220236903058867  0.27993112657207314  0.9016576744421627  1.0000
  H   H16       1.0  0.7865416019793869  0.01024283914562563  0.9081191984478211  1.0000
  H   H17       1.0  0.3132806907380115  0.5573087392228544  0.39602441621866546  1.0000
  H   H18       1.0  0.2332604203057755  0.552982095617672  0.4273230004592464  1.0000
  H   H19       1.0  0.7675790375470797  0.5221502056839852  0.6856638707453443  1.0000
  H   H20       1.0  0.8361583562636736  0.5182212798460027  0.6436511258537577  1.0000
  H   H21       1.0  0.04583608554412419  0.2681730570250521  0.685737558670894  1.0000
  H   H22       1.0  0.0205537186933853  0.3361341237827061  0.6431615023808847  1.0000
  H   H23       1.0  0.7424169600844479  0.8022380121868476  0.38537584298482136  1.0000
  H   H24       1.0  0.7942536265138713  0.7250492403525969  0.419083761144151  1.0000
  H   H25       1.0  0.726096394382189  0.4818513398592754  0.06459616936881933  1.0000
  H   H26       1.0  0.7326543273358723  0.4127763210554887  0.1068193671208206  1.0000
  H   H27       1.0  0.14507122716868537  0.08525407747131201  0.22702007866504204  1.0000
  H   H28       1.0  0.04700694796739669  0.11580661310860306  0.23988063721615302  1.0000
  H   H29       1.0  0.5172938200922343  0.43600123677957475  0.8547388271147585  1.0000
  H   H30       1.0  0.45697756389391486  0.5230855804845758  0.8306315862014415  1.0000
  H   H31       1.0  0.9261495711317379  0.7016014789480917  0.8441232444109233  1.0000
  H   H32       1.0  0.0153634872181954  0.6974862322285488  0.8223193856581545  1.0000
  C   C1        1.0  0.05868309440563729  0.3162255513001852  0.5627264357987088  1.0000
  C   C2        1.0  0.0696847828711142  0.569777478140061  0.5686883411030196  1.0000
  C   C3        1.0  0.18554087065366792  0.43921472370160314  0.4393396610724098  1.0000
  C   C4        1.0  0.9355409274939175  0.6856742296493297  0.438966294544514  1.0000
  C   C5        1.0  0.9299713998275647  0.4322133037315509  0.431045358142498  1.0000
  C   C6        1.0  0.8162830779423513  0.5629624550062429  0.5633734210765978  1.0000
  C   C7        1.0  0.5649629749801689  0.3124981375996186  0.31090921247529485  1.0000
  C   C8        1.0  0.6821529680683227  0.1806681001510596  0.1804312507583674  1.0000
  C   C9        1.0  0.6881667956577998  0.4337795972887829  0.1876208847864262  1.0000
  C   C10       1.0  0.936280850994187  0.18608590560894075  0.1893479734526053  1.0000
  C   C11       1.0  0.8206694147068204  0.31771868506459094  0.3189848322770459  1.0000
  C   C12       1.0  0.8104285493526007  0.06496604635596975  0.3109416986325186  1.0000
  C   C13       1.0  0.4340579466667975  0.6869771036212523  0.6887047965498568  1.0000
  C   C14       1.0  0.3178718598014782  0.8210024132736604  0.8188309846712087  1.0000
  C   C15       1.0  0.18934205801381407  0.9340171612805928  0.6883049609110686  1.0000
  C   C16       1.0  0.06557409594563517  0.8087477548646331  0.8125006512191106  1.0000
  C   C17       1.0  0.1803852300205051  0.6807390377641197  0.6816113477776681  1.0000
  C   C18       1.0  0.3139348822194776  0.5656664551688235  0.8127838217411778  1.0000
  C   C19       1.0  0.4392923155890428  0.18343511691312386  0.938158328877691  1.0000
  C   C20       1.0  0.4315541084272282  0.9300774963149009  0.9311352799580488  1.0000
  C   C21       1.0  0.6840210828506128  0.9393426631287974  0.9382226395523434  1.0000
  C   C22       1.0  0.5629414461325837  0.8151450942380972  0.06153124565702233  1.0000
  C   C23       1.0  0.5687318948324815  0.06837605240360739  0.0695935441497042  1.0000
  C   C24       1.0  0.3156501419723766  0.062263075990500696  0.06123302878047101  1.0000
  C   C25       1.0  0.9004627313419107  0.4043776539782653  0.4022957662264446  1.0000
  C   C26       1.0  0.8502403590583184  0.34559960673843876  0.3476631473786043  1.0000
  C   C27       1.0  0.8292832307300557  0.4459092513544433  0.3874072298573026  1.0000
  C   C28       1.0  0.9214346846999034  0.30408621785046097  0.3625352175072082  1.0000
  C   C29       1.0  0.8047357061778656  0.4174441891927501  0.360886843214537  1.0000
  C   C30       1.0  0.9459211165757323  0.3324796112627125  0.38913471026413055  1.0000
  C   C31       1.0  0.0990580602192352  0.5988446424281406  0.5968248654453702  1.0000
  C   C32       1.0  0.15121967681278647  0.651593658546325  0.6534080156946801  1.0000
  C   C33       1.0  0.1421558043555038  0.6417232971023452  0.5834155322271714  1.0000
  C   C34       1.0  0.1081460702684538  0.6086812818785886  0.6667965309975231  1.0000
  C   C35       1.0  0.16757981377688938  0.6673977208228974  0.6108972947709788  1.0000
  C   C36       1.0  0.08283254323006159  0.5829387526466759  0.6393310967792728  1.0000
  C   C37       1.0  0.3039349452873381  0.455844817372373  0.4021940519897739  1.0000
  C   C38       1.0  0.4455812032707128  0.2980552278763823  0.34868209357409097  1.0000
  C   C39       1.0  0.259365345150087  0.41429197804871604  0.41509774435354535  1.0000
  C   C40       1.0  0.4901045576962487  0.3381173503645626  0.33583916330982794  1.0000
  C   C41       1.0  0.3776185958669913  0.34058395422166393  0.3726707234873672  1.0000
  C   C42       1.0  0.3717955965079796  0.41240385287166936  0.3776534392730966  1.0000
  C   C43       1.0  0.7275538486499824  0.5768435575944505  0.6307017279147829  1.0000
  C   C44       1.0  0.5248332742102731  0.6719901655884685  0.6218813211755645  1.0000
  C   C45       1.0  0.742485247030089  0.587931829662338  0.5876944881316959  1.0000
  C   C46       1.0  0.5092419874734019  0.6616902378570584  0.6641789835265969  1.0000
  C   C47       1.0  0.6041009817089318  0.6408527817144855  0.6094487303565543  1.0000
  C   C48       1.0  0.6474260166575476  0.6075545642127126  0.6426701644794405  1.0000
  C   C49       1.0  0.07297850456952663  0.22743553800337674  0.6300583003968754  1.0000
  C   C50       1.0  0.17449554057235866  0.024752760262345  0.6214560598211776  1.0000
  C   C51       1.0  0.0829762891934962  0.24231513951887243  0.5870010789911718  1.0000
  C   C52       1.0  0.16450915405113156  0.009235821950369389  0.663775679116597  1.0000
  C   C53       1.0  0.14159699043174356  0.10399387878423738  0.6089618076313243  1.0000
  C   C54       1.0  0.10714854386846888  0.1473631201247869  0.6421574744267033  1.0000
  C   C55       1.0  0.8410077000356253  0.8004246501894413  0.39838806957632034  1.0000
  C   C56       1.0  0.9031966303582802  0.9489305250985252  0.3519795943227778  1.0000
  C   C57       1.0  0.9108260273456777  0.7594011411027565  0.4147458339507396  1.0000
  C   C58       1.0  0.8347465831044474  0.9900921151615729  0.33575332808551656  1.0000
  C   C59       1.0  0.9061357096631327  0.8796594209776387  0.374561043315019  1.0000
  C   C60       1.0  0.8395466981865597  0.8695575598777407  0.3751757115377856  1.0000
  C   C61       1.0  0.6535510459018781  0.152954436237799  0.15122299441894432  1.0000
  C   C62       1.0  0.5967175924385159  0.09677478797770785  0.09872319336920303  1.0000
  C   C63       1.0  0.6665727687996322  0.16672806557471628  0.10819082647758903  1.0000
  C   C64       1.0  0.5833745756211498  0.08329694262076258  0.14175909785824103  1.0000
  C   C65       1.0  0.639013377894983  0.13941124748265576  0.08260946070905818  1.0000
  C   C66       1.0  0.6109944209055767  0.11058490063741289  0.16733043133424272  1.0000
  C   C67       1.0  0.673781928445969  0.52179044912598  0.12002957285813662  1.0000
  C   C68       1.0  0.5774647146325336  0.7248550203380331  0.1283855024789204  1.0000
  C   C69       1.0  0.6625983103758344  0.5073209503037858  0.16311895076297842  1.0000
  C   C70       1.0  0.5881551931186024  0.7400506466785118  0.08607383585169973  1.0000
  C   C71       1.0  0.6087785560965031  0.6456469030531548  0.14097297213023557  1.0000
  C   C72       1.0  0.6425699517575296  0.6019773698463736  0.1078787866536146  1.0000
  C   C73       1.0  0.0815371361863981  0.12211855459483435  0.17875862970197431  1.0000
  C   C74       1.0  0.17009552852135806  0.12608803271984204  0.07312056467122122  1.0000
  C   C75       1.0  0.009571071177987299  0.16125082498058418  0.16460268315000093  1.0000
  C   C76       1.0  0.24127839406362026  0.08727030987598987  0.0865465281393796  1.0000
  C   C77       1.0  0.1117123260239481  0.13937268306784734  0.10647038168379909  1.0000
  C   C78       1.0  0.13974556013073416  0.11019653710077645  0.14474327264493073  1.0000
  C   C79       1.0  0.3454340874627205  0.8505465047557835  0.8476263013665173  1.0000
  C   C80       1.0  0.4038674159131617  0.9006443537893244  0.9023525346860168  1.0000
  C   C81       1.0  0.3037308536446872  0.9217430119607068  0.8625413892842603  1.0000
  C   C82       1.0  0.4455382104746021  0.8294028080784698  0.8874665304842894  1.0000
  C   C83       1.0  0.3321034166799706  0.9461876241100453  0.8891600638930515  1.0000
  C   C84       1.0  0.41717861911092774  0.8049889397914067  0.8608478923985673  1.0000
  C   C85       1.0  0.4078827603784844  0.4503558453241966  0.8535154003506591  1.0000
  C   C86       1.0  0.3466774082421153  0.30008163018189987  0.89715140131262  1.0000
  C   C87       1.0  0.3378961278220558  0.492291022418378  0.8374505075763709  1.0000
  C   C88       1.0  0.41519286099183006  0.25823698752235896  0.9132208434798557  1.0000
  C   C89       1.0  0.3437394273424133  0.3698429397202786  0.8752114138627647  1.0000
  C   C90       1.0  0.4102541952552911  0.3797937063506679  0.8750996548909457  1.0000
  C   C91       1.0  0.9470060844337381  0.7925888219573664  0.8496570705018628  1.0000
  C   C92       1.0  0.8035774698612528  0.9532685197277854  0.9003797603447058  1.0000
  C   C93       1.0  0.9922995589822818  0.8333894357683036  0.8372128608442678  1.0000
  C   C94       1.0  0.7585098271698667  0.913791657221793  0.9130659668188059  1.0000
  C   C95       1.0  0.8720253998188029  0.909742215719049  0.8771220960160876  1.0000
  C   C96       1.0  0.8777353782507048  0.8377071382791567  0.8726037794498751  1.0000
  S   S1        1.0  0.3003369508261926  0.3243933118671335  0.3978610219550305  1.0000
  S   S2        1.0  0.44986033589940894  0.4275395770531176  0.3529023681982366  1.0000
  S   S3        1.0  0.6603817461150214  0.6352045987251173  0.5628510293696537  1.0000
  S   S4        1.0  0.590661954147258  0.6144997435205183  0.6891388197595917  1.0000
  S   S5        1.0  0.1326365633117703  0.16014804552933973  0.5622548793942245  1.0000
  S   S6        1.0  0.1149762433049091  0.09068330727070159  0.6886673468731459  1.0000
  S   S7        1.0  0.9722095945253457  0.8048642432800431  0.4022338425789798  1.0000
  S   S8        1.0  0.7734277375435497  0.9451778660255387  0.3479684038539261  1.0000
  S   S9        1.0  0.6144052421630233  0.589822603753042  0.18770646136778885  1.0000
  S   S10       1.0  0.6359824908649686  0.6583583991549555  0.06130436608872711  1.0000
  S   S11       1.0  0.0135825763667086  0.18208714965624745  0.11114863681775941  1.0000
  S   S12       1.0  0.23780643516911223  0.0663866035475849  0.139695200433728  1.0000
  S   S13       1.0  0.2768029583384291  0.4464683180026012  0.8489242349278713  1.0000
  S   S14       1.0  0.4763287027839169  0.3033849326505801  0.9019496219775931  1.0000
  S   S15       1.0  0.9511002901626426  0.924035306908308  0.8534944372415438  1.0000
  S   S16       1.0  0.7989823479706429  0.8235446924781652  0.8969917117929925  1.0000
  N   N1        1.0  0.2863639534731846  0.525785359578819  0.41259127983022376  1.0000
  N   N2        1.0  0.7816373459124291  0.5440387100302783  0.6570851139967291  1.0000
  N   N3        1.0  0.0339928596508656  0.28145926710153185  0.6563208337418872  1.0000
  N   N4        1.0  0.7827523476826314  0.7786800405696253  0.4047700934493506  1.0000
  N   N5        1.0  0.7071516801625035  0.4676309011319331  0.09382894365476353  1.0000
  N   N6        1.0  0.09379355068798387  0.09721836311387483  0.21876154659521058  1.0000
  N   N7        1.0  0.46384625772458316  0.4746954208376477  0.8500907887857637  1.0000
  N   N8        1.0  0.967218517666403  0.7201383157794079  0.8420654451442007  1.0000
  O   O1        1.0  0.00014757609562819968  0.49951906161354737  0.5003179461731692  1.0000
  O   O2        1.0  0.07474246222475499  0.31761493350738584  0.5236331176203991  1.0000
  O   O3        1.0  0.0349614471014306  0.5282512151974854  0.586013632087827  1.0000
  O   O4        1.0  0.1575402343021963  0.5063462109019239  0.45110831285239084  1.0000
  O   O5        1.0  0.0227481583428428  0.3753921798458748  0.5824758819639017  1.0000
  O   O6        1.0  0.15315030528985565  0.39327774678710625  0.44723657265599576  1.0000
  O   O7        1.0  0.0813046659032537  0.5887666557203699  0.5304242238581695  1.0000
  O   O8        1.0  0.0030880093145100014  0.6562626991193878  0.44946881068482725  1.0000
  O   O9        1.0  0.8875898962516047  0.4978757397360309  0.44213098898858766  1.0000
  O   O10       1.0  0.8878377491302841  0.6547346682099896  0.44809452731268357  1.0000
  O   O11       1.0  0.9955370993117896  0.3871034721058562  0.4418607574511243  1.0000
  O   O12       1.0  0.8756766534892221  0.5286330309348627  0.5829160891127998  1.0000
  O   O13       1.0  0.8172026073797696  0.5765151338029  0.5242282838595357  1.0000
  O   O14       1.0  0.7492498925082244  0.24976807406007132  0.25061378977381576  1.0000
  O   O15       1.0  0.5963940351928017  0.3590430625905652  0.30302884966153704  1.0000
  O   O16       1.0  0.6629581044695596  0.16526014527938312  0.21858578712416943  1.0000
  O   O17       1.0  0.7239365902151675  0.37433003381441654  0.16815817294043714  1.0000
  O   O18       1.0  0.5918774356398657  0.24608838462842178  0.2995237761527251  1.0000
  O   O19       1.0  0.6738493069107035  0.4329411545343688  0.22680446273905372  1.0000
  O   O20       1.0  0.7227737376600911  0.2166572125575214  0.16502471801180724  1.0000
  O   O21       1.0  0.8770875924556663  0.22415063575697744  0.17048105988607176  1.0000
  O   O22       1.0  0.8635827813050625  0.2526180754246993  0.30728985365741573  1.0000
  O   O23       1.0  0.935871561793192  0.16834159108500285  0.22869489870272733  1.0000
  O   O24       1.0  0.7544855084869155  0.3622045174792702  0.3087970343888316  1.0000
  O   O25       1.0  0.7440973204667712  0.09281881060059752  0.29922992565570183  1.0000
  O   O26       1.0  0.8575544892674998  0.09547491621066222  0.3034277935171943  1.0000
  O   O27       1.0  0.25054629254776734  0.7502837672372777  0.749671641886792  1.0000
  O   O28       1.0  0.3761126825470811  0.7229176317114604  0.6690227421392619  1.0000
  O   O29       1.0  0.36366953748138536  0.7557449910050451  0.8076688721597378  1.0000
  O   O30       1.0  0.1722588422958893  0.9338816352315928  0.7272381746397514  1.0000
  O   O31       1.0  0.43380306796425566  0.670696355606644  0.7277153878463524  1.0000
  O   O32       1.0  0.22527844839744657  0.8758470486785795  0.6686647059860605  1.0000
  O   O33       1.0  0.2520214244698522  0.8626917772371026  0.8080231339684049  1.0000
  O   O34       1.0  0.09644299732042329  0.8559679429866163  0.803349529762663  1.0000
  O   O35       1.0  0.16458577545124337  0.6656438920841692  0.7199726204097772  1.0000
  O   O36       1.0  0.09441513059746848  0.7411320536148193  0.8013242052721382  1.0000
  O   O37       1.0  0.2189406694234322  0.7184896083017163  0.6642965018840457  1.0000
  O   O38       1.0  0.360634810021942  0.5978532648914051  0.8050390466210403  1.0000
  O   O39       1.0  0.24816273365640026  0.5933212275529556  0.8002713752948694  1.0000
  O   O40       1.0  0.499769082986269  0.00037977861138929037  0.9999628302760044  1.0000
  O   O41       1.0  0.5055944061984404  0.15585070122671843  0.9498285437118599  1.0000
  O   O42       1.0  0.3867612947526382  0.9961034436340195  0.9416033025050935  1.0000
  O   O43       1.0  0.653244954590214  0.892244637149019  0.946467519642262  1.0000
  O   O44       1.0  0.39208643889475775  0.15297811634891892  0.9459674930319154  1.0000
  O   O45       1.0  0.656851802097229  0.005688013416914767  0.949694928311388  1.0000
  O   O46       1.0  0.49666798096752957  0.8873169242190001  0.9426531764084916  1.0000
  O   O47       1.0  0.5802561524175686  0.8154877689933782  0.022570073482704334  1.0000
  O   O48       1.0  0.5307554162467766  0.02973778623819367  0.0851329850137574  1.0000
  O   O49       1.0  0.5258954849539278  0.873227884989184  0.08111529068688128  1.0000
  O   O50       1.0  0.585822316176319  0.08565873679181381  0.03137040050403072  1.0000
  O   O51       1.0  0.3153785588048876  0.0790584341781866  0.02235017102639599  1.0000
  O   O52       1.0  0.3741005109888674  0.025527113339158792  0.0806324844068413  1.0000
  F   F1        1.0  0.7812876888878364  0.5159106231372373  0.398432006162011  1.0000
  F   F2        1.0  0.9694832770416538  0.2341141156263546  0.3514685525310882  1.0000
  F   F3        1.0  0.16107958933513086  0.6595098537276697  0.5429387669499377  1.0000
  F   F4        1.0  0.08940090360717791  0.5905152731980648  0.707304066743646  1.0000
  F   F5        1.0  0.706592793600656  0.20760955791667585  0.08980564286536459  1.0000
  F   F6        1.0  0.542869759256412  0.042927966106056176  0.16015723521550737  1.0000
  F   F7        1.0  0.23393355146004066  0.9697016703968725  0.8514598034148195  1.0000
  F   F8        1.0  0.5154041279963905  0.7814198914429297  0.8985034644745796  1.0000
