data_image0
_chemical_formula_structural       Zn4H29C48O13F
_chemical_formula_sum              "Zn4 H29 C48 O13 F1"
_cell_length_a       19.59158221973315
_cell_length_b       19.61964427902115
_cell_length_c       19.547391984951723
_cell_angle_alpha    84.63415008706836
_cell_angle_beta     89.56774436760934
_cell_angle_gamma    84.42432070608017

_space_group_name_H-M_alt    "P 1"
_space_group_IT_number       1

loop_
  _space_group_symop_operation_xyz
  'x, y, z'

loop_
  _atom_site_type_symbol
  _atom_site_label
  _atom_site_symmetry_multiplicity
  _atom_site_fract_x
  _atom_site_fract_y
  _atom_site_fract_z
  _atom_site_occupancy
  Zn  Zn1       1.0  0.4425401328707252  0.441277724771524  0.5579158445342429  1.0000
  Zn  Zn2       1.0  0.5636789312490508  0.44054996885355985  0.44875641501001706  1.0000
  Zn  Zn3       1.0  0.5534306337241403  0.5530296999723133  0.5559278046834636  1.0000
  Zn  Zn4       1.0  0.4409560454127472  0.5652325352784044  0.43760507316090275  1.0000
  H   H1        1.0  0.23399341293982445  0.4298539148708541  0.5693550065666529  1.0000
  H   H2        1.0  0.5675847005089238  0.5551004064921584  0.8925405038731004  1.0000
  H   H3        1.0  0.7639118612472943  0.5825021779604072  0.5563821544723951  1.0000
  H   H4        1.0  0.46249773848514036  0.6224337228139092  0.09969539706603571  1.0000
  H   H5        1.0  0.563722339771921  0.7604549112904164  0.5690824701021384  1.0000
  H   H6        1.0  0.4115804505693602  0.23094154839306205  0.5562312309623181  1.0000
  H   H7        1.0  0.6115121731179727  0.22776522560300083  0.46462884566123824  1.0000
  H   H8        1.0  0.5719543810891993  0.9909893761128497  0.5127949091350957  1.0000
  H   H9        1.0  0.38958700036852184  0.9086312368196583  0.42496766607815323  1.0000
  H   H10       1.0  0.4158509018923412  0.10346213404019264  0.5561212805234135  1.0000
  H   H11       1.0  0.40072509162180847  0.7811565626948178  0.4209774044641252  1.0000
  H   H12       1.0  0.9033592135101004  0.3841715718263288  0.46805365576680924  1.0000
  H   H13       1.0  0.4163922699571073  0.009609269180543807  0.48748000289013044  1.0000
  H   H14       1.0  0.5538980307093765  0.8875610175982444  0.5730646175753124  1.0000
  H   H15       1.0  0.7754907369683791  0.3914476293115213  0.46444180371835136  1.0000
  H   H16       1.0  0.6182132580087513  0.09973734925966941  0.4677066666019983  1.0000
  H   H17       1.0  0.008165664992809202  0.4260911196306693  0.5133087512947867  1.0000
  H   H18       1.0  0.09834845047042512  0.6165115932737846  0.42514771692501097  1.0000
  H   H19       1.0  0.8916055606496159  0.5778158309974655  0.5569952376615678  1.0000
  H   H20       1.0  0.22638351341474558  0.6062117426005141  0.42119731035176505  1.0000
  H   H21       1.0  0.9916657485079695  0.5837620655723441  0.4877147164445078  1.0000
  H   H22       1.0  0.10634836905494179  0.4387030024071378  0.57316627946593  1.0000
  H   H23       1.0  0.5641066851754387  0.563188608512824  0.7646353455913727  1.0000
  H   H24       1.0  0.4606134618932386  0.6125013764137464  0.22777819901622823  1.0000
  H   H25       1.0  0.5080380634923786  0.574926022176875  0.9924434186142793  1.0000
  H   H26       1.0  0.4314478602771457  0.39459229412841507  0.9009049559305711  1.0000
  H   H27       1.0  0.5571052875418588  0.4133891088330728  0.10716779427228573  1.0000
  H   H28       1.0  0.4278909905526335  0.4041329004740746  0.7726055760152591  1.0000
  H   H29       1.0  0.49039890709611467  0.4202675578841379  0.007065066541649402  1.0000
  C   C1        1.0  0.507578691715672  0.5073256586658274  0.31614475317947927  1.0000
  C   C2        1.0  0.018396350351515902  0.532353580222228  0.49906010418256846  1.0000
  C   C3        1.0  0.9811433368929627  0.47780755372757955  0.509199976056543  1.0000
  C   C4        1.0  0.49520438007324674  0.4891204916841899  0.6845096153900699  1.0000
  C   C5        1.0  0.7621773354475252  0.487727935372952  0.5095157474139214  1.0000
  C   C6        1.0  0.4953176117806067  0.48462419128566125  0.7611081277875159  1.0000
  C   C7        1.0  0.5343840801071168  0.5273664826641351  0.7952114291160229  1.0000
  C   C8        1.0  0.5357229358223847  0.5229622282477706  0.8664263302066715  1.0000
  C   C9        1.0  0.4984788353884896  0.47535617468816577  0.9057833180685152  1.0000
  C   C10       1.0  0.46034991513487705  0.43188707312984304  0.8710606347939206  1.0000
  C   C11       1.0  0.4580698099804509  0.4369781569793855  0.7996729381038251  1.0000
  C   C12       1.0  0.09321977909633722  0.5273343749797305  0.49826193995735935  1.0000
  C   C13       1.0  0.5349082068580273  0.4577106858200038  0.13216115579575674  1.0000
  C   C14       1.0  0.5352116123392179  0.45421031950031937  0.20334958358092342  1.0000
  C   C15       1.0  0.4819714357352325  0.569674101059192  0.20017298368082242  1.0000
  C   C16       1.0  0.5078251052771562  0.3132510357054555  0.5085670154590433  1.0000
  C   C17       1.0  0.48302624416013623  0.574891065395988  0.12894802187474141  1.0000
  C   C18       1.0  0.5084215812749733  0.5183730826603747  0.09354293899533422  1.0000
  C   C19       1.0  0.49920890610577123  0.4703307735058502  0.9806859229736774  1.0000
  C   C20       1.0  0.5065013487538153  0.5233429412847527  0.018656466257724002  1.0000
  C   C21       1.0  0.5085431159058658  0.5093962403286126  0.23961721319619766  1.0000
  C   C22       1.0  0.4832650835827225  0.7632800511865694  0.49433037796396223  1.0000
  C   C23       1.0  0.12805563245009924  0.5752880737283801  0.4566313936280509  1.0000
  C   C24       1.0  0.5265614583263697  0.7936272564136357  0.5369661382729305  1.0000
  C   C25       1.0  0.5211511589265143  0.864503902751295  0.5386256605516452  1.0000
  C   C26       1.0  0.4721163453268034  0.9073036818596947  0.49808076427222403  1.0000
  C   C27       1.0  0.42802602821342356  0.8761864384002745  0.4564549484833195  1.0000
  C   C28       1.0  0.4889852180724787  0.6870235620911627  0.4935870104210523  1.0000
  C   C29       1.0  0.434028109443922  0.8052650822962163  0.4539158454853124  1.0000
  C   C30       1.0  0.4584835178533239  0.1306957591113758  0.5352929820430249  1.0000
  C   C31       1.0  0.4559516305968855  0.20165510277859505  0.5357530990525987  1.0000
  C   C32       1.0  0.5692436354615965  0.19976203909962456  0.48485377100514176  1.0000
  C   C33       1.0  0.5725237935497631  0.1285816676422016  0.48649285469333153  1.0000
  C   C34       1.0  0.1993327426346525  0.5697937090066459  0.4541068940613045  1.0000
  C   C35       1.0  0.5167003636589484  0.0928081718814653  0.5103330644719435  1.0000
  C   C36       1.0  0.46686450246597394  0.9819646139454005  0.4987944713754474  1.0000
  C   C37       1.0  0.5205256821638145  0.018348218971837586  0.5087262234745467  1.0000
  C   C38       1.0  0.5109590664715142  0.23693222777681197  0.5097576961602642  1.0000
  C   C39       1.0  0.6859040380584603  0.4912724247445936  0.5077126057071127  1.0000
  C   C40       1.0  0.31423618723644614  0.5118477486903003  0.4942549404211506  1.0000
  C   C41       1.0  0.23778342471126018  0.5171012199654041  0.49462475074872003  1.0000
  C   C42       1.0  0.203604679422142  0.46977432198630703  0.5371863000704381  1.0000
  C   C43       1.0  0.1324930056501614  0.47471632180500456  0.5387761335832125  1.0000
  C   C44       1.0  0.8662257862549296  0.5373642176672249  0.5358242353496508  1.0000
  C   C45       1.0  0.7951041078614622  0.5400797770373557  0.5358838231571639  1.0000
  C   C46       1.0  0.801675334659258  0.43171393889760157  0.48482651834179796  1.0000
  C   C47       1.0  0.8727843418862451  0.4280857555087889  0.4868118952485574  1.0000
  C   C48       1.0  0.906439992764895  0.4815296089600451  0.5108406110175424  1.0000
  O   O1        1.0  0.4994087551996459  0.5002103637401161  0.4996930291227387  1.0000
  O   O2        1.0  0.6596583346780847  0.44929961722868217  0.4717665015886397  1.0000
  O   O3        1.0  0.3429418945313003  0.5534960442144123  0.4515344530509183  1.0000
  O   O4        1.0  0.6528272871619976  0.5360852635417857  0.5420004715101215  1.0000
  O   O5        1.0  0.34490478609561154  0.46600399943466175  0.5371021998100788  1.0000
  O   O6        1.0  0.4601140251274957  0.34315774396010557  0.5432311025864466  1.0000
  O   O7        1.0  0.45065460132477136  0.6620653301796223  0.4515322681216676  1.0000
  O   O8        1.0  0.5492460058975724  0.4626611565460123  0.349585219549681  1.0000
  O   O9        1.0  0.5335919420682985  0.5312631795878813  0.6536989117071104  1.0000
  O   O10       1.0  0.4648798608080825  0.5517444761599107  0.34138995472789463  1.0000
  O   O11       1.0  0.45714783229311  0.4505119848794477  0.6560270527097531  1.0000
  O   O12       1.0  0.5531860088719327  0.3427044333330967  0.47261572852055184  1.0000
  O   O13       1.0  0.5319556976084386  0.6525789917841819  0.5355067855551212  1.0000
  F   F1        1.0  0.5617717684248333  0.39405465966301967  0.23724597782909035  1.0000
