data_image0
_chemical_formula_structural       Zn2H12C22N2O8
_chemical_formula_sum              "Zn2 H12 C22 N2 O8"
_cell_length_a       10.633501334323604
_cell_length_b       11.91083275436192
_cell_length_c       16.03239301204936
_cell_angle_alpha    89.9999366311506
_cell_angle_beta     90.00027689623793
_cell_angle_gamma    89.99665306594527

_space_group_name_H-M_alt    "P 1"
_space_group_IT_number       1

loop_
  _space_group_symop_operation_xyz
  'x, y, z'

loop_
  _atom_site_type_symbol
  _atom_site_label
  _atom_site_symmetry_multiplicity
  _atom_site_fract_x
  _atom_site_fract_y
  _atom_site_fract_z
  _atom_site_occupancy
  Zn  Zn1       1.0  0.6280772905243027  0.5000444469520106  0.5000003955327799  1.0000
  Zn  Zn2       1.0  0.37188039759875824  0.5000492667947684  0.5000018564890781  1.0000
  H   H1        1.0  0.6120150708729142  0.6517056351644755  0.9270893889551675  1.0000
  H   H2        1.0  0.7014137979296606  0.5269075263517495  0.07310789806407313  1.0000
  H   H3        1.0  0.2968611218628823  0.511582369917214  0.9269186613178493  1.0000
  H   H4        1.0  0.7014159706701476  0.5269077271136382  0.9268956008610945  1.0000
  H   H5        1.0  0.37401944619718813  0.6427223765669227  0.9270497160763329  1.0000
  H   H6        1.0  0.6120147775330409  0.6517062742179576  0.0729124741451557  1.0000
  H   H7        1.0  0.37401727228676407  0.6427230156111747  0.0729488972022736  1.0000
  H   H8        1.0  0.5907604717289842  0.3374063711538611  0.07294437919260591  1.0000
  H   H9        1.0  0.4249291312264845  0.3311910295025768  0.07292540406815821  1.0000
  H   H10       1.0  0.5907617052654287  0.3374057321231946  0.9270589202836634  1.0000
  H   H11       1.0  0.42493036487118013  0.3311912300157687  0.9270773693911425  1.0000
  H   H12       1.0  0.2968598893339731  0.511583008741134  0.0730804358084214  1.0000
  C   C1        1.0  0.4999804068677135  0.7193992778664794  0.5000001007369335  1.0000
  C   C2        1.0  0.5000013134869334  0.4994575980700164  0.3379838280556626  1.0000
  C   C3        1.0  0.5000024952500935  0.4994506390411147  0.6620184245246676  1.0000
  C   C4        1.0  0.499975702361631  0.9433508736659352  0.49999813796696213  1.0000
  C   C5        1.0  0.49995470326941666  0.8406284176094231  0.49999817992600976  1.0000
  C   C6        1.0  0.06428369030285809  0.5000385990677146  0.500003235144135  1.0000
  C   C7        1.0  0.9356777603458255  0.5000307669973624  0.5000021355797272  1.0000
  C   C8        1.0  0.49996599742767955  0.2806566554347257  0.49999965633348614  1.0000
  C   C9        1.0  0.6154567093290311  0.5656744373251784  0.04826429171307471  1.0000
  C   C10       1.0  0.3788218758741166  0.5567650265001307  0.048267035113028114  1.0000
  C   C11       1.0  0.6154562419915024  0.5656737614111622  0.9517364052740832  1.0000
  C   C12       1.0  0.5000470426404248  0.4988662286347109  0.7519239055027784  1.0000
  C   C13       1.0  0.3788232893596017  0.5567643505435315  0.9517322875678007  1.0000
  C   C14       1.0  0.49994907220054324  0.05670422061396612  0.49999912412034325  1.0000
  C   C15       1.0  0.4999475006627279  0.15944011039324835  0.49999845838245704  1.0000
  C   C16       1.0  0.5000433243789217  0.4988733222521731  0.24807834769391957  1.0000
  C   C17       1.0  0.5000135191806406  0.500228516432884  0.08174198058695481  1.0000
  C   C18       1.0  0.5000156290357722  0.5002262114007723  0.9182602714017492  1.0000
  C   C19       1.0  0.5057940582293482  0.3781061149602537  0.9517107331215513  1.0000
  C   C20       1.0  0.5057926449167168  0.3781067908813752  0.0482928846943267  1.0000
  C   C21       1.0  0.5001018467905283  0.4993707531979298  0.8277572509796728  1.0000
  C   C22       1.0  0.5000975756431103  0.4993737624384239  0.1722450019808335  1.0000
  N   N1        1.0  0.17349607120730323  0.5000450639519656  0.5000009150766971  1.0000
  N   N2        1.0  0.8264616176233657  0.5000276604978424  0.5000019606909447  1.0000
  O   O1        1.0  0.6073887699050006  0.67190533141234  0.5000015396219625  1.0000
  O   O2        1.0  0.3925733552197173  0.671899026663553  0.5000011956362015  1.0000
  O   O3        1.0  0.6072361029833715  0.49977976528116136  0.3738813232391039  1.0000
  O   O4        1.0  0.39275359838740787  0.4997717729576793  0.3738622676709938  1.0000
  O   O5        1.0  0.607237963263806  0.49977621823651225  0.6261194013004429  1.0000
  O   O6        1.0  0.39275451847402115  0.4997657071914363  0.626140264912955  1.0000
  O   O7        1.0  0.6073683475549032  0.3281392757464658  0.500000432645507  1.0000
  O   O8        1.0  0.39255293210786135  0.32815563943790954  0.5000000886504808  1.0000
