data_image0
_chemical_formula_structural       Ag2H22C34N6Cl2O12
_chemical_formula_sum              "Ag2 H22 C34 N6 Cl2 O12"
_cell_length_a       7.480835457074125
_cell_length_b       8.391790122678477
_cell_length_c       14.213164190113549
_cell_angle_alpha    106.61878667663898
_cell_angle_beta     92.46818570691572
_cell_angle_gamma    103.72011530214981

_space_group_name_H-M_alt    "P 1"
_space_group_IT_number       1

loop_
  _space_group_symop_operation_xyz
  'x, y, z'

loop_
  _atom_site_type_symbol
  _atom_site_label
  _atom_site_symmetry_multiplicity
  _atom_site_fract_x
  _atom_site_fract_y
  _atom_site_fract_z
  _atom_site_occupancy
  Ag  Ag1       1.0  0.6369832995799954  0.3757751696714209  0.009776204732645516  1.0000
  Ag  Ag2       1.0  0.36302253270602597  0.6242310054384321  0.9902240424102826  1.0000
  H   H1        1.0  0.8301150867102012  0.4559694575401921  0.22270846789854903  1.0000
  H   H2        1.0  0.16987877022903328  0.5440240857099072  0.7772901135257583  1.0000
  H   H3        1.0  0.24252283129413155  0.9394366065343861  0.2864538194380514  1.0000
  H   H4        1.0  0.7574601179810828  0.0605689920740033  0.71355289723634  1.0000
  H   H5        1.0  0.1498830259949315  0.947042979968913  0.11838857874167992  1.0000
  H   H6        1.0  0.8501110534909558  0.052959684103932064  0.8816178728722119  1.0000
  H   H7        1.0  0.9002086509426164  0.7000365597680727  0.005463058945828428  1.0000
  H   H8        1.0  0.0998011259644755  0.29995650721291156  0.9945364725271444  1.0000
  H   H9        1.0  0.20985851601051322  0.5942048642437003  0.5249037171624521  1.0000
  H   H10       1.0  0.7901406518339797  0.4057885223673879  0.4750956504419717  1.0000
  H   H11       1.0  0.5395364718454021  0.6757554303424558  0.6029761896892933  1.0000
  H   H12       1.0  0.46046662977983743  0.32423781417506353  0.39701830964493456  1.0000
  H   H13       1.0  0.7888649199106655  0.8468359920092045  0.5287414466105316  1.0000
  H   H14       1.0  0.21113725170016556  0.15315857676187514  0.47125255270059785  1.0000
  H   H15       1.0  0.9096099584744197  0.19759516776845498  0.2964417564782805  1.0000
  H   H16       1.0  0.09040277365689785  0.8024030186902352  0.7035608070410075  1.0000
  H   H17       1.0  0.8795599656005139  0.19909845807454474  0.11991196217304179  1.0000
  H   H18       1.0  0.12044988970171042  0.800907619406303  0.8800932761414798  1.0000
  H   H19       1.0  0.6512424329814197  0.9520937002106536  0.9950428066626881  1.0000
  H   H20       1.0  0.3487652931108159  0.047922814659664  0.004959217647112301  1.0000
  H   H21       1.0  0.48849977461259925  0.7151568988120264  0.2075573223222591  1.0000
  H   H22       1.0  0.5114976665142806  0.2848482126643717  0.7924390559837419  1.0000
  C   C1        1.0  0.9064144817755918  0.5633165135557833  0.19990105911870154  1.0000
  C   C2        1.0  0.0935845610392576  0.43668077226053736  0.800098257875234  1.0000
  C   C3        1.0  0.04782345925904959  0.6919795404880417  0.2659749097211871  1.0000
  C   C4        1.0  0.9521667286142376  0.30801932518461683  0.7340273055774416  1.0000
  C   C5        1.0  0.1361361560810934  0.8337055278600972  0.23668543558083138  1.0000
  C   C6        1.0  0.8638504877559045  0.16629476102988858  0.763320464202607  1.0000
  C   C7        1.0  0.08385287936447844  0.8372136090079395  0.142077735090993  1.0000
  C   C8        1.0  0.916142111013933  0.1627877212832303  0.857927103808471  1.0000
  C   C9        1.0  0.9460547001270997  0.7022615327247481  0.07977050646395868  1.0000
  C   C10       1.0  0.05394688904563341  0.29773958191740496  0.9202309136241451  1.0000
  C   C11       1.0  0.08822217385357324  0.6633436893185304  0.3633126963465186  1.0000
  C   C12       1.0  0.9117729033107197  0.3366537227111622  0.6366879676883881  1.0000
  C   C13       1.0  0.2835610907541125  0.7175363687448526  0.4125056398016226  1.0000
  C   C14       1.0  0.7164343761546306  0.2824623244085985  0.5874938404479123  1.0000
  C   C15       1.0  0.3221023552857576  0.6686794389285212  0.49622564044640416  1.0000
  C   C16       1.0  0.6778985220620584  0.3313151856765232  0.5037718596103671  1.0000
  C   C17       1.0  0.5052418376830944  0.7145032445797386  0.5390431667017805  1.0000
  C   C18       1.0  0.4947606623821629  0.285496536280732  0.46095664067189535  1.0000
  C   C19       1.0  0.64335571475268  0.8080247989351721  0.498281393853503  1.0000
  C   C20       1.0  0.3566459675798939  0.1919724006215447  0.5017165556158786  1.0000
  C   C21       1.0  0.5913556881443399  0.8501846012338845  0.4141852364707645  1.0000
  C   C22       1.0  0.4086425241899009  0.14981009692660763  0.5858108141271855  1.0000
  C   C23       1.0  0.7361576265202673  0.9515071163461217  0.36933988443632154  1.0000
  C   C24       1.0  0.26384468924209875  0.0484835627478475  0.6306562782228297  1.0000
  C   C25       1.0  0.6998097752052532  0.9573704730400723  0.26587926894018205  1.0000
  C   C26       1.0  0.30019403824490365  0.042629261514555615  0.7341191504253783  1.0000
  C   C27       1.0  0.8097758316304324  0.09525952916509792  0.24020630922522193  1.0000
  C   C28       1.0  0.19023372071321634  0.9047413489305145  0.7597959380101286  1.0000
  C   C29       1.0  0.7931245946341151  0.0956899300987644  0.14251858178931798  1.0000
  C   C30       1.0  0.20687861088210016  0.9043163376227739  0.8574844413698413  1.0000
  C   C31       1.0  0.6671389281326159  0.960101574151331  0.07294194803396441  1.0000
  C   C32       1.0  0.3328610784740392  0.03990737567901451  0.9270586461037309  1.0000
  C   C33       1.0  0.5748426148310842  0.8260981967778847  0.19193462673541004  1.0000
  C   C34       1.0  0.42515658041685367  0.1739081749247404  0.8080648137438399  1.0000
  N   N1        1.0  0.8561747897317462  0.5673145542754698  0.10877935787081583  1.0000
  N   N2        1.0  0.14382770395954492  0.4326852234089672  0.8912197452570181  1.0000
  N   N3        1.0  0.4154877261112305  0.8052101440303335  0.37196289407779654  1.0000
  N   N4        1.0  0.5845068171570704  0.1947898765527114  0.6280367903944679  1.0000
  N   N5        1.0  0.5590719897527452  0.8278023875305466  0.09734409395822755  1.0000
  N   N6        1.0  0.4409298577608354  0.17220390426456333  0.9026553874881527  1.0000
  Cl  Cl1       1.0  0.6430159437511167  0.6503159942918586  0.7938802424009591  1.0000
  Cl  Cl2       1.0  0.3569841751372635  0.34968904998117273  0.20611899385554716  1.0000
  O   O1        1.0  0.9611382817729182  0.5858190869735367  0.3988100031902419  1.0000
  O   O2        1.0  0.03886395995149176  0.4141755167339839  0.6011917428251508  1.0000
  O   O3        1.0  0.8885748649790062  0.0317998986269004  0.4170419778486546  1.0000
  O   O4        1.0  0.11143045901606295  0.9681789934157127  0.5829522648715936  1.0000
  O   O5        1.0  0.6069633533493219  0.8190864864127294  0.8360145925085474  1.0000
  O   O6        1.0  0.39303543940623337  0.18091859781406336  0.16398462326439045  1.0000
  O   O7        1.0  0.6887770800472454  0.5845411556336801  0.8753424202672944  1.0000
  O   O8        1.0  0.31121958796467913  0.4154613967712423  0.12465702985530669  1.0000
  O   O9        1.0  0.7989745257155293  0.6670827651175202  0.7363638948649863  1.0000
  O   O10       1.0  0.20102986815594195  0.3329273555034079  0.26363768967556206  1.0000
  O   O11       1.0  0.4781618832914918  0.5316236145059892  0.7315834917557564  1.0000
  O   O12       1.0  0.5218431121399619  0.46837996977199486  0.268412784745351  1.0000
