data_image0
_chemical_formula_structural       Al2H18C48Br6O12
_chemical_formula_sum              "Al2 H18 C48 Br6 O12"
_cell_length_a       4.00352060659831
_cell_length_b       29.053067863705905
_cell_length_c       29.05260086168805
_cell_angle_alpha    119.99953043517928
_cell_angle_beta     90.00321874431754
_cell_angle_gamma    89.99452593270861

_space_group_name_H-M_alt    "P 1"
_space_group_IT_number       1

loop_
  _space_group_symop_operation_xyz
  'x, y, z'

loop_
  _atom_site_type_symbol
  _atom_site_label
  _atom_site_symmetry_multiplicity
  _atom_site_fract_x
  _atom_site_fract_y
  _atom_site_fract_z
  _atom_site_occupancy
  Al  Al1       1.0  0.010803992006742596  0.4999994552216265  0.500005285785136  1.0000
  Al  Al2       1.0  0.010318473204499398  0.16665985935577524  0.8333342593334268  1.0000
  H   H1        1.0  0.471063088131352  0.16819151795571236  0.6899757844919067  1.0000
  H   H2        1.0  0.48188662353732775  0.214906072847775  0.6376670493448844  1.0000
  H   H3        1.0  0.5091528045989121  0.3654002837659646  0.7842513442324873  1.0000
  H   H4        1.0  0.5091644792683921  0.3012597723822524  0.5490903128055182  1.0000
  H   H5        1.0  0.47176314031130323  0.4984715706470552  0.6433763290868555  1.0000
  H   H6        1.0  0.4823457637800104  0.4517560636871992  0.6956810814054041  1.0000
  H   H7        1.0  0.4711728994744958  0.021768428780518444  0.8318008897025353  1.0000
  H   H8        1.0  0.48201064242845587  0.9227451136265683  0.785082322798047  1.0000
  H   H9        1.0  0.5091797987721164  0.9188419798261478  0.6345908512204873  1.0000
  H   H10       1.0  0.5091973489291135  0.7478248128081405  0.6987403676379674  1.0000
  H   H11       1.0  0.4717332516294021  0.644898655657066  0.5015238216357574  1.0000
  H   H12       1.0  0.4823840174536543  0.7439191815328599  0.5482420486396864  1.0000
  H   H13       1.0  0.47113269466042595  0.3100329036398365  0.9782211681843411  1.0000
  H   H14       1.0  0.48190570852410264  0.3623460308139101  0.0772413824019935  1.0000
  H   H15       1.0  0.509200934353906  0.21577242409232872  0.08117057255928735  1.0000
  H   H16       1.0  0.5092341570921022  0.45092322863273904  0.252182765647895  1.0000
  H   H17       1.0  0.47170102240605877  0.35662839360659854  0.35510451207372284  1.0000
  H   H18       1.0  0.4823895347402427  0.3043295077072656  0.2560807336956828  1.0000
  C   C1        1.0  0.5079458959417378  0.46084539298880856  0.41864053266208157  1.0000
  C   C2        1.0  0.5080115564788841  0.45778619602606335  0.5391565475533329  1.0000
  C   C3        1.0  0.5079218075743555  0.5813641581434369  0.542212619718015  1.0000
  C   C4        1.0  0.5075631391407285  0.20889049073984023  0.794202913562849  1.0000
  C   C5        1.0  0.5076054257240371  0.08529852054901724  0.7911030239769165  1.0000
  C   C6        1.0  0.5075813481834499  0.20579893581056327  0.9146969035516154  1.0000
  C   C7        1.0  0.5000631985478136  0.23975638348840528  0.7657867987847953  1.0000
  C   C8        1.0  0.48372351364510985  0.21145540771036758  0.7100473370843974  1.0000
  C   C9        1.0  0.4886841599497771  0.23743643483156524  0.6809283763881242  1.0000
  C   C10       1.0  0.5003597985198524  0.29348842047649987  0.7073112843015397  1.0000
  C   C11       1.0  0.5076748524175514  0.3221785593748977  0.7633500264792945  1.0000
  C   C12       1.0  0.510944597409818  0.2954477580981348  0.7918563830120748  1.0000
  C   C13       1.0  0.5011511539268835  0.3210834137145469  0.6786834773427872  1.0000
  C   C14       1.0  0.5012026807884168  0.34557505921934967  0.6546584727092297  1.0000
  C   C15       1.0  0.5005178350774313  0.3731728151621637  0.6260334182190875  1.0000
  C   C16       1.0  0.5077574697053036  0.34448295892368463  0.5699894955981153  1.0000
  C   C17       1.0  0.5110994071929227  0.3712123529502235  0.5414893293585977  1.0000
  C   C18       1.0  0.5004347685313418  0.42690506748709117  0.5675549368221697  1.0000
  C   C19       1.0  0.4842256037342167  0.4552076033878265  0.6233088482134905  1.0000
  C   C20       1.0  0.4890588354067305  0.4292208811280601  0.6524086684651423  1.0000
  C   C21       1.0  0.5001138084834693  0.02601934028251665  0.7602337893872788  1.0000
  C   C22       1.0  0.4837984189115118  0.9985748919795366  0.7885373930282783  1.0000
  C   C23       1.0  0.4887553893937308  0.9434812660119788  0.7625521665650441  1.0000
  C   C24       1.0  0.5004089790585765  0.9138104334213251  0.7065034288270412  1.0000
  C   C25       1.0  0.5077071785429155  0.9411608889572918  0.677807595291789  1.0000
  C   C26       1.0  0.5109780702688695  0.9963975309505813  0.7045439974308397  1.0000
  C   C27       1.0  0.5012221582140697  0.8575923247367638  0.6789083904152946  1.0000
  C   C28       1.0  0.5012964465982178  0.8090764467556257  0.6544223123300559  1.0000
  C   C29       1.0  0.5005684837539449  0.7528519390888989  0.6268240437627529  1.0000
  C   C30       1.0  0.5077650268998113  0.7254980583875225  0.6555149630885213  1.0000
  C   C31       1.0  0.511053360429564  0.6702689623865792  0.6287833704756736  1.0000
  C   C32       1.0  0.5003766607647222  0.6406457980370418  0.5730925558758388  1.0000
  C   C33       1.0  0.48420056785665366  0.6680930748058956  0.5447894827852057  1.0000
  C   C34       1.0  0.4890849375496769  0.7231822290182777  0.5707770625603602  1.0000
  C   C35       1.0  0.5000926889009065  0.23421939565696465  0.9739793327041615  1.0000
  C   C36       1.0  0.48377370941784653  0.2899676214311171  0.0014163053071456694  1.0000
  C   C37       1.0  0.4887180086619053  0.3190865796249652  0.05651542913910399  1.0000
  C   C38       1.0  0.5003929717851321  0.29271039761449197  0.08619124290469674  1.0000
  C   C39       1.0  0.5077029221032704  0.2366695363051505  0.05884504022949952  1.0000
  C   C40       1.0  0.5109586657930691  0.20816312721296978  0.0036144997518122433  1.0000
  C   C41       1.0  0.5012088047572475  0.32133796218457883  0.14241100269830304  1.0000
  C   C42       1.0  0.501280318209126  0.34535865543334404  0.19092768890992323  1.0000
  C   C43       1.0  0.5005699976538196  0.3739801223271969  0.24715286644431  1.0000
  C   C44       1.0  0.5077897599163776  0.4300243993813808  0.27450934261970883  1.0000
  C   C45       1.0  0.5110882517324454  0.45851728719883766  0.3297375359009537  1.0000
  C   C46       1.0  0.500405275055357  0.4324502665972502  0.35936107543184903  1.0000
  C   C47       1.0  0.48420329745081153  0.3766974048630871  0.33190804250470773  1.0000
  C   C48       1.0  0.4890853444488812  0.34759938564668863  0.2768195924678808  1.0000
  Br  Br1       1.0  0.5062996296443031  0.33714535906578663  0.8673147296268058  1.0000
  Br  Br2       1.0  0.5063601312256549  0.32952224071300423  0.4660276751025736  1.0000
  Br  Br3       1.0  0.5064168980589228  0.03016045129858493  0.6628463829288196  1.0000
  Br  Br4       1.0  0.5062628450665656  0.6364928946538271  0.6704710367680421  1.0000
  Br  Br5       1.0  0.5063666114211856  0.13270325807185668  0.9698715685340249  1.0000
  Br  Br6       1.0  0.5062931540577296  0.5339809828842164  0.36352165838586364  1.0000
  O   O1        1.0  0.7477481100688975  0.5581316669549921  0.5510630430578872  1.0000
  O   O2        1.0  0.7477234586456161  0.49292450284948336  0.44187398437252784  1.0000
  O   O3        1.0  0.7478095114882632  0.448938446722252  0.5070809166693808  1.0000
  O   O4        1.0  0.2766538551063675  0.5584003523881763  0.5080702240530075  1.0000
  O   O5        1.0  0.27672803874004603  0.4919355280527995  0.5503382957128056  1.0000
  O   O6        1.0  0.2766805283554206  0.4496641459595024  0.44160341669614683  1.0000
  O   O7        1.0  0.7472667863615214  0.1737195202575849  0.891465288058264  1.0000
  O   O8        1.0  0.7472281885029658  0.21772829304094915  0.8262810729909876  1.0000
  O   O9        1.0  0.7472895827981815  0.10853319308693453  0.782260898768293  1.0000
  O   O10       1.0  0.27618892502670883  0.21698099115131708  0.8917391620163716  1.0000
  O   O11       1.0  0.27623806900930253  0.1082571234005274  0.8252469357268811  1.0000
  O   O12       1.0  0.27618386599341704  0.17474815595446108  0.7830146115430809  1.0000
