data_image0
_chemical_formula_structural       Cu4H56C32N8O12
_chemical_formula_sum              "Cu4 H56 C32 N8 O12"
_cell_length_a       8.62025912465732
_cell_length_b       10.051706099150463
_cell_length_c       11.064467032755859
_cell_angle_alpha    90.00328148027049
_cell_angle_beta     89.99587225109714
_cell_angle_gamma    89.99957019861232

_space_group_name_H-M_alt    "P 1"
_space_group_IT_number       1

loop_
  _space_group_symop_operation_xyz
  'x, y, z'

loop_
  _atom_site_type_symbol
  _atom_site_label
  _atom_site_symmetry_multiplicity
  _atom_site_fract_x
  _atom_site_fract_y
  _atom_site_fract_z
  _atom_site_occupancy
  Cu  Cu1       1.0  0.07810028418398929  0.30266429962902924  0.1102911168545404  1.0000
  Cu  Cu2       1.0  0.5779731246011153  0.19737988108433774  0.8897127159022987  1.0000
  Cu  Cu3       1.0  0.42222519940452935  0.6973204929459628  0.6103446784269762  1.0000
  Cu  Cu4       1.0  0.9220679425476916  0.8027129005842969  0.3896684299269495  1.0000
  H   H1        1.0  0.3054971040903708  0.32121740941956745  0.2603620310404793  1.0000
  H   H2        1.0  0.8054257407293618  0.17881336445073262  0.7396462043778342  1.0000
  H   H3        1.0  0.19452450602295807  0.6788316000249212  0.7601156008593718  1.0000
  H   H4        1.0  0.6944180548401206  0.8211923203651993  0.23989582969187498  1.0000
  H   H5        1.0  0.3389040812334159  0.4045245618269038  0.1350476788376156  1.0000
  H   H6        1.0  0.8387568977675527  0.09547714503275274  0.8649387988051059  1.0000
  H   H7        1.0  0.1612369931012907  0.5953732522485284  0.6349289506054703  1.0000
  H   H8        1.0  0.66107531872764  0.9046200437880076  0.36511507867676585  1.0000
  H   H9        1.0  0.7474821392883014  0.6247624866135482  0.9206224516714129  1.0000
  H   H10       1.0  0.24728206403026576  0.875236222473909  0.0794456578855858  1.0000
  H   H11       1.0  0.7527196391945805  0.3749164040538987  0.420607116701987  1.0000
  H   H12       1.0  0.2524824895352822  0.1250560122314752  0.5793236474497903  1.0000
  H   H13       1.0  0.9502737891305558  0.5924057048503999  0.9071864445905575  1.0000
  H   H14       1.0  0.4500826293546679  0.9075021584954758  0.0929118508719071  1.0000
  H   H15       1.0  0.5499524380086882  0.4073937027694613  0.4070413737201831  1.0000
  H   H16       1.0  0.04973056130616979  0.09248451491990292  0.5928311800674422  1.0000
  H   H17       1.0  0.8831551392199369  0.7066190667364937  0.0183540749778714  1.0000
  H   H18       1.0  0.3829709751470531  0.793303158228696  0.9817507005128688  1.0000
  H   H19       1.0  0.616880813060348  0.29331190253508777  0.5183541495837929  1.0000
  H   H20       1.0  0.11667287114390489  0.20659373939245282  0.4815354339994186  1.0000
  H   H21       1.0  0.739253079233073  0.6148491535914289  0.21033877797680128  1.0000
  H   H22       1.0  0.2392355122891771  0.8851257308622565  0.7897090006077364  1.0000
  H   H23       1.0  0.7607709245859623  0.3853247866378382  0.7103517988514128  1.0000
  H   H24       1.0  0.26077177861722595  0.11466747504837832  0.2896119474635057  1.0000
  H   H25       1.0  0.6018738241777798  0.5500581884126633  0.10294220098136718  1.0000
  H   H26       1.0  0.10180980550487109  0.9499842368070194  0.8970446056547201  1.0000
  H   H27       1.0  0.898146191661709  0.44989604538640304  0.6028686118985574  1.0000
  H   H28       1.0  0.39808082720725924  0.05012020250268993  0.39715068935631587  1.0000
  H   H29       1.0  0.6889361795984356  0.444146045970875  0.2131637436142455  1.0000
  H   H30       1.0  0.18904703148017887  0.055847675799292104  0.7868528377941857  1.0000
  H   H31       1.0  0.8111003356254756  0.5560211010711313  0.7129197720744571  1.0000
  H   H32       1.0  0.3112145628661053  0.9439871412511635  0.2870390130635272  1.0000
  H   H33       1.0  0.43195708449319165  0.5827226459235038  0.3165252076850891  1.0000
  H   H34       1.0  0.9318946317761032  0.9173395368903245  0.6835388686059005  1.0000
  H   H35       1.0  0.06813125018172878  0.41737270540812693  0.8164323105197013  1.0000
  H   H36       1.0  0.568040207996745  0.08264666595342621  0.18350158436669517  1.0000
  H   H37       1.0  0.3676464046838603  0.6410019225442554  0.17229563660033878  1.0000
  H   H38       1.0  0.8674748424488852  0.8591014649503991  0.8277657280748089  1.0000
  H   H39       1.0  0.1325121044158308  0.35909026019086815  0.6722250308598561  1.0000
  H   H40       1.0  0.6322796169066933  0.14099037704131942  0.3277124851827722  1.0000
  H   H41       1.0  0.2849312684485454  0.7067097126377747  0.3064199924070222  1.0000
  H   H42       1.0  0.7848747632083642  0.793330537566  0.6936315508554073  1.0000
  H   H43       1.0  0.21521252202361296  0.2933899732494468  0.8063494755681404  1.0000
  H   H44       1.0  0.7150951054105262  0.20663242813747473  0.1935960455232291  1.0000
  H   H45       1.0  0.07033789415123688  0.38933800490269027  0.3877746349475045  1.0000
  H   H46       1.0  0.5702557058267529  0.11066642873471723  0.6121401557324759  1.0000
  H   H47       1.0  0.4297670532856372  0.6107708157489995  0.8877256732266616  1.0000
  H   H48       1.0  0.9296706407728973  0.8892157736980767  0.11238371472826708  1.0000
  H   H49       1.0  0.2585093019753728  0.4360108217266898  0.4428721753226981  1.0000
  H   H50       1.0  0.7584790118909693  0.06402821404646632  0.5571278518231964  1.0000
  H   H51       1.0  0.2415499529642275  0.5642228601556526  0.9427518331292077  1.0000
  H   H52       1.0  0.7415023080043569  0.9357768798409583  0.0572605700120619  1.0000
  H   H53       1.0  0.10510874505854417  0.5552207773509326  0.43803161597391244  1.0000
  H   H54       1.0  0.6051268930374362  0.9447897905990176  0.5619324110492343  1.0000
  H   H55       1.0  0.3948372671897785  0.44494097185633324  0.9380148877300699  1.0000
  H   H56       1.0  0.8948157018936057  0.055054406349839324  0.062038037920864  1.0000
  C   C1        1.0  0.8012913102699954  0.3711162577118685  0.9972524998391705  1.0000
  C   C2        1.0  0.30120835237225657  0.1288548532075993  0.0027939298525935996  1.0000
  C   C3        1.0  0.6987491008633524  0.6287754101552638  0.4971295075850364  1.0000
  C   C4        1.0  0.1986607263585469  0.8711798356472403  0.5028129951337944  1.0000
  C   C5        1.0  0.8416876190859025  0.5009302162462035  0.0647751063162474  1.0000
  C   C6        1.0  0.34162399718496056  0.9990267073646922  0.9353223782099463  1.0000
  C   C7        1.0  0.6584356953090519  0.4990335335395459  0.5645837610921873  1.0000
  C   C8        1.0  0.15836954684010604  0.0009036747428226002  0.4352989671999552  1.0000
  C   C9        1.0  0.856166831876976  0.6136561750644277  0.9713337113233462  1.0000
  C   C10       1.0  0.3559980282835226  0.8862821412844258  0.0287535997729478  1.0000
  C   C11       1.0  0.6439931401869429  0.38617813905710824  0.47123467936942376  1.0000
  C   C12       1.0  0.14380021238763868  0.11373827144154801  0.5286642273406343  1.0000
  C   C13       1.0  0.708570226001221  0.529646989751825  0.1534806509208835  1.0000
  C   C14       1.0  0.20856290184602239  0.970345999794532  0.8465534860768571  1.0000
  C   C15       1.0  0.79147064026629  0.4704109255395041  0.6533770556861782  1.0000
  C   C16       1.0  0.2914681295224426  0.02958113767216731  0.34657954427492393  1.0000
  C   C17       1.0  0.057936772288861994  0.5646355995448646  0.1977748872774825  1.0000
  C   C18       1.0  0.5578191043762499  0.9353901982655447  0.8022505391055859  1.0000
  C   C19       1.0  0.4422228620984469  0.4353686604574777  0.6977034967540447  1.0000
  C   C20       1.0  0.9420954783797483  0.06463436843248622  0.3022708528306808  1.0000
  C   C21       1.0  0.20428689049573012  0.5098474997361394  0.26332516173268766  1.0000
  C   C22       1.0  0.7041562451728038  0.9901952592744578  0.7366649345983873  1.0000
  C   C23       1.0  0.2958806045036226  0.49022657412959364  0.7632603072402234  1.0000
  C   C24       1.0  0.7957226347935986  0.009796303751166103  0.2367629310424419  1.0000
  C   C25       1.0  0.3307083219508796  0.6160659164125876  0.2646113649415227  1.0000
  C   C26       1.0  0.8306054003931178  0.8839999040859756  0.7354249569516683  1.0000
  C   C27       1.0  0.1694056914035968  0.3840102288808113  0.764548111179799  1.0000
  C   C28       1.0  0.669260838197431  0.11603037650615992  0.235418962717759  1.0000
  C   C29       1.0  0.15631041888948255  0.4697968275588736  0.3916326011099827  1.0000
  C   C30       1.0  0.6562536469234742  0.030227944583614903  0.60833972412793  1.0000
  C   C31       1.0  0.34375357137889034  0.5303560101717794  0.8915472478109123  1.0000
  C   C32       1.0  0.8436765353819595  0.9696450604775182  0.1084928582062332  1.0000
  N   N1        1.0  0.9873579225630066  0.47554700348786844  0.12800250637421579  1.0000
  N   N2        1.0  0.48736140500267294  0.024389083648451004  0.872145543481963  1.0000
  N   N3        1.0  0.51257857952136  0.5243700143846226  0.627783602580287  1.0000
  N   N4        1.0  0.012577942244647  0.9755486251058445  0.37203920318241046  1.0000
  N   N5        1.0  0.257414028594951  0.3866692304407879  0.2004046632112733  1.0000
  N   N6        1.0  0.7572785308466478  0.1133737919995781  0.7995900057223932  1.0000
  N   N7        1.0  0.24273840666232613  0.6133650388371169  0.7002370974856191  1.0000
  N   N8        1.0  0.742579446659448  0.8866645399796484  0.2997897035311752  1.0000
  O   O1        1.0  0.8971217239094142  0.27394443643062527  0.9988921995376147  1.0000
  O   O2        1.0  0.3968779948030913  0.22614543017914462  0.0008804303613488  1.0000
  O   O3        1.0  0.602923172568289  0.7260219515583091  0.49883384786038215  1.0000
  O   O4        1.0  0.10263509872248018  0.7740751927600018  0.5014077775007806  1.0000
  O   O5        1.0  0.6715158164257176  0.3668659408409456  0.9434007502734829  1.0000
  O   O6        1.0  0.17156936082120916  0.1330701996434414  0.056858122368339495  1.0000
  O   O7        1.0  0.8284495339465321  0.6330063941028927  0.44316766071106867  1.0000
  O   O8        1.0  0.32849658576667906  0.8668952791287698  0.5565488364347786  1.0000
  O   O9        1.0  0.015423920094647792  0.6831744069728743  0.2162192601271542  1.0000
  O   O10       1.0  0.5152486692448547  0.8168645973437519  0.7837633654530052  1.0000
  O   O11       1.0  0.4848766930338186  0.3168917095377496  0.7162152622479353  1.0000
  O   O12       1.0  0.9846850236437347  0.18311701393418647  0.28378109687047726  1.0000
