data_image0
_chemical_formula_structural       Zn2H32C86N12O52
_chemical_formula_sum              "Zn2 H32 C86 N12 O52"
_cell_length_a       17.95836254257543
_cell_length_b       19.19173305658117
_cell_length_c       27.862656996696863
_cell_angle_alpha    90.32424589660957
_cell_angle_beta     89.89698097034854
_cell_angle_gamma    89.97876234893413

_space_group_name_H-M_alt    "P 1"
_space_group_IT_number       1

loop_
  _space_group_symop_operation_xyz
  'x, y, z'

loop_
  _atom_site_type_symbol
  _atom_site_label
  _atom_site_symmetry_multiplicity
  _atom_site_fract_x
  _atom_site_fract_y
  _atom_site_fract_z
  _atom_site_occupancy
  Zn  Zn1       1.0  0.4228493393944035  0.5017712422663578  0.49937124637902025  1.0000
  Zn  Zn2       1.0  0.5779590195225026  0.49962366453892315  0.49871905191614013  1.0000
  H   H1        1.0  0.37865507178926794  0.4670917730439896  0.35026719344843826  1.0000
  H   H2        1.0  0.30543299456387973  0.43350245762550793  0.44223850452512176  1.0000
  H   H3        1.0  0.8357320992977505  0.3828544083625757  0.3652113224771653  1.0000
  H   H4        1.0  0.1687685037759366  0.640739074073224  0.6243218422971921  1.0000
  H   H5        1.0  0.8241728255465903  0.6309616024530056  0.6293932355226131  1.0000
  H   H6        1.0  0.1711091383728771  0.360233677346784  0.37584869423466927  1.0000
  H   H7        1.0  0.3736893971504145  0.4657478764700825  0.2600689643863063  1.0000
  H   H8        1.0  0.3755961509351948  0.5270579374426774  0.7392363081092982  1.0000
  H   H9        1.0  0.6215895086145197  0.25367191793573346  0.1299552765559184  1.0000
  H   H10       1.0  0.6054416565868053  0.7430786739514728  0.8702313618832277  1.0000
  H   H11       1.0  0.6123662398257395  0.475991609105982  0.6531169829505072  1.0000
  H   H12       1.0  0.380871112697811  0.5317982874028997  0.6491797959580907  1.0000
  H   H13       1.0  0.6113310107231342  0.5174500447893279  0.3442277628645627  1.0000
  H   H14       1.0  0.6194406873701156  0.5632991085117424  0.7789929187814622  1.0000
  H   H15       1.0  0.6184706411196289  0.42654236428187897  0.21870563273796506  1.0000
  H   H16       1.0  0.4710306374436967  0.23364190872008084  0.8303325073624988  1.0000
  H   H17       1.0  0.44779675853421  0.751704046399169  0.1683211610809252  1.0000
  H   H18       1.0  0.41854728514271505  0.20675430735926165  0.9711957965864713  1.0000
  H   H19       1.0  0.3932115815360858  0.774790006057273  0.026706381880004  1.0000
  H   H20       1.0  0.5002610548844758  0.32063256002140145  0.02719836580567399  1.0000
  H   H21       1.0  0.4872680413852705  0.6671993009258299  0.9717308467844673  1.0000
  H   H22       1.0  0.38710298154367  0.285030466960734  0.3712722712723746  1.0000
  H   H23       1.0  0.4806917447721304  0.10709019562767  0.3679320650037709  1.0000
  H   H24       1.0  0.6736209766525646  0.6729350275492577  0.5953564281811765  1.0000
  H   H25       1.0  0.4508915589507724  0.6626423429403587  0.373787237277817  1.0000
  H   H26       1.0  0.5044401052484845  0.3326109652067472  0.6536856899539315  1.0000
  H   H27       1.0  0.5250182657118501  0.9133526430538481  0.6455564414992947  1.0000
  H   H28       1.0  0.3159876778048201  0.9040211149064701  0.4227485540204227  1.0000
  H   H29       1.0  0.591801262973597  0.15056701589395516  0.654160972621618  1.0000
  H   H30       1.0  0.6977541294657925  0.43852559206543157  0.4369755504586691  1.0000
  H   H31       1.0  0.30425494719060714  0.5708573802479363  0.5570461919345107  1.0000
  H   H32       1.0  0.693279488051047  0.5580939617469268  0.5606119004993387  1.0000
  C   C1        1.0  0.5003151134916166  0.3657912805886809  0.5028134527093044  1.0000
  C   C2        1.0  0.45702335413002976  0.43370632564840833  0.8704449100808276  1.0000
  C   C3        1.0  0.49544872376752386  0.4915100004467519  0.3523176354675782  1.0000
  C   C4        1.0  0.497013753408254  0.5049387351209589  0.6460575985875465  1.0000
  C   C5        1.0  0.4506966658101561  0.42876088693691367  0.9718245021670668  1.0000
  C   C6        1.0  0.445024408439224  0.5559308871530675  0.0265013224695636  1.0000
  C   C7        1.0  0.46002664873262944  0.5578398058141119  0.9749902273769064  1.0000
  C   C8        1.0  0.464530115668552  0.42784169879838857  0.023469811455207393  1.0000
  C   C9        1.0  0.4585109532078277  0.4940671552918231  0.9483820583648281  1.0000
  C   C10       1.0  0.4574727697301455  0.49135426717032965  0.05003706373400259  1.0000
  C   C11       1.0  0.4357963952852941  0.368822173342231  0.9441959349226677  1.0000
  C   C12       1.0  0.5031448168226477  0.6359424651061829  0.497704841276331  1.0000
  C   C13       1.0  0.424655327340389  0.614717127167907  0.053920483035483385  1.0000
  C   C14       1.0  0.44032375118742106  0.37118684768302757  0.8935367808461192  1.0000
  C   C15       1.0  0.4286090661100488  0.6128885351925605  0.1045589150965966  1.0000
  C   C16       1.0  0.4978117365178534  0.4937397917046553  0.4060475907341186  1.0000
  C   C17       1.0  0.49943022936560777  0.5067106254549782  0.59230820269169  1.0000
  C   C18       1.0  0.4889462106651763  0.3683304348270795  0.04726580771883699  1.0000
  C   C19       1.0  0.4804312251302961  0.6189226758344331  0.9514940064214699  1.0000
  C   C20       1.0  0.4737394320939003  0.24684628583462132  0.4679779546847057  1.0000
  C   C21       1.0  0.5349594576912011  0.745916330940332  0.5424084408297603  1.0000
  C   C22       1.0  0.4575885847822009  0.7531466445054986  0.47069513150338327  1.0000
  C   C23       1.0  0.46430274633426194  0.4902327584724802  0.1008783465642651  1.0000
  C   C24       1.0  0.5141850292631034  0.25602845432131716  0.5511080089272298  1.0000
  C   C25       1.0  0.4658699393445433  0.17434465819681577  0.4728676148353657  1.0000
  C   C26       1.0  0.5231095340744999  0.8171701435166197  0.5511488417088373  1.0000
  C   C27       1.0  0.44775723053116684  0.8247374712882728  0.47840962694932887  1.0000
  C   C28       1.0  0.5063298888139584  0.18367246540714885  0.556097099227017  1.0000
  C   C29       1.0  0.48131686263209156  0.14298313910548896  0.5171352546195961  1.0000
  C   C30       1.0  0.48110450980829716  0.8566752069660377  0.5184313767542861  1.0000
  C   C31       1.0  0.4978442659301194  0.28742211964074466  0.5069758256803851  1.0000
  C   C32       1.0  0.5007287487488128  0.7139676952061151  0.5027958682976247  1.0000
  C   C33       1.0  0.4783812172649036  0.9333091131516154  0.5232907296762406  1.0000
  C   C34       1.0  0.46639084125211383  0.4958166296619239  0.8975966735646209  1.0000
  C   C35       1.0  0.47841216068668774  0.0661002724109707  0.5221719219385292  1.0000
  C   C36       1.0  0.7301247110604906  0.465205742388612  0.46453853652526783  1.0000
  C   C37       1.0  0.2711575996548703  0.540301606295216  0.5318617376645989  1.0000
  C   C38       1.0  0.7278629632654087  0.5324548750446496  0.5337395721588081  1.0000
  C   C39       1.0  0.2717637950668816  0.4635162166028832  0.4674731579616278  1.0000
  C   C40       1.0  0.8078748573012148  0.4637669977480599  0.4642308632391234  1.0000
  C   C41       1.0  0.19341578101229834  0.541623980367845  0.5330900433741945  1.0000
  C   C42       1.0  0.805465539306077  0.535808197737751  0.5355503928870604  1.0000
  C   C43       1.0  0.19409918827079767  0.46082039064758357  0.4664199823754984  1.0000
  C   C44       1.0  0.8469257963747694  0.4997650592685899  0.5003969119903502  1.0000
  C   C45       1.0  0.4889513108871952  0.4285992160205864  0.12388755073870068  1.0000
  C   C46       1.0  0.1535294695753322  0.500934088761383  0.4998093883681064  1.0000
  C   C47       1.0  0.07064167947769562  0.5003720356872493  0.49994148101921343  1.0000
  C   C48       1.0  0.9297800615810771  0.5001001995235299  0.500564292185892  1.0000
  C   C49       1.0  0.5048325742272439  0.42947488905642933  0.17551434521023174  1.0000
  C   C50       1.0  0.5045261733501718  0.5591108992324364  0.8234307695639629  1.0000
  C   C51       1.0  0.45255155047770046  0.5497294746926114  0.1806943300016854  1.0000
  C   C52       1.0  0.46013450344606355  0.4362623152945061  0.8174485248823586  1.0000
  C   C53       1.0  0.5581890747284036  0.5024737448676502  0.2755074392916086  1.0000
  C   C54       1.0  0.5593694333435549  0.488246502301372  0.7222991606639511  1.0000
  C   C55       1.0  0.5596718461137514  0.5048905696483172  0.32567438482170263  1.0000
  C   C56       1.0  0.4871487548360349  0.5589463118666412  0.8749213459116802  1.0000
  C   C57       1.0  0.5609899892849198  0.4885594877114059  0.6721252338940358  1.0000
  C   C58       1.0  0.4283051824345634  0.4767277559990645  0.3288377226828628  1.0000
  C   C59       1.0  0.43014416696347985  0.519285401079614  0.670126718911831  1.0000
  C   C60       1.0  0.4257052222585004  0.4754822130264457  0.2790391408484538  1.0000
  C   C61       1.0  0.4274141988111282  0.5172503804497949  0.7199320567133894  1.0000
  C   C62       1.0  0.4904302257625943  0.487907983356436  0.2527101963944389  1.0000
  C   C63       1.0  0.4918600607531404  0.5022860375765532  0.7456900591651844  1.0000
  C   C64       1.0  0.44634320198453287  0.1292757988444393  0.4303592037596644  1.0000
  C   C65       1.0  0.5516024036168049  0.848343524184507  0.5970976059446186  1.0000
  C   C66       1.0  0.4096379425400869  0.8697818974764999  0.44153904970941216  1.0000
  C   C67       1.0  0.503424746113872  0.36885746900671273  0.09670179947452338  1.0000
  C   C68       1.0  0.5236630857533271  0.14798870427119937  0.6025241005639614  1.0000
  C   C69       1.0  0.8480119702698589  0.4212432995804106  0.4272553944977631  1.0000
  C   C70       1.0  0.15379313209561474  0.5885628521932771  0.5675845111885778  1.0000
  C   C71       1.0  0.8426443961023011  0.5803956655536737  0.5723914930609695  1.0000
  C   C72       1.0  0.15555616363660357  0.4129783725758145  0.43214157910915657  1.0000
  C   C73       1.0  0.5317993741822846  0.30216836089260807  0.11825013977409778  1.0000
  C   C74       1.0  0.5198587963830974  0.6879234625530514  0.8808248691523984  1.0000
  C   C75       1.0  0.6302577728580658  0.47258735130291996  0.7487682108077749  1.0000
  C   C76       1.0  0.629708395979705  0.5170155625353416  0.2491953711187733  1.0000
  C   C77       1.0  0.4237561619489868  0.30555348780934816  0.8653271833849843  1.0000
  C   C78       1.0  0.49641041804699887  0.6194604718548433  0.902220078681644  1.0000
  C   C79       1.0  0.406490452796291  0.677183395163496  0.1327482352226426  1.0000
  C   C80       1.0  0.40564381110431214  0.3043945467561144  0.9678504783649942  1.0000
  C   C81       1.0  0.389358830174011  0.6764852306514867  0.0299562229109398  1.0000
  C   C82       1.0  0.4568732292649145  0.2828575354698941  0.42165082713341917  1.0000
  C   C83       1.0  0.5769700976582115  0.7021460474953328  0.5783544449538738  1.0000
  C   C84       1.0  0.4241037671848034  0.7191929778491823  0.42694597700737086  1.0000
  C   C85       1.0  0.5379191510600309  0.3016923869753967  0.5926445521241774  1.0000
  C   C86       1.0  0.44982046364049916  0.5517010868905744  0.1277847794904261  1.0000
  N   N1        1.0  0.48437540189731715  0.48909331054121435  0.2009779630594792  1.0000
  N   N2        1.0  0.03670334581376271  0.5354992417118607  0.4645132356795115  1.0000
  N   N3        1.0  0.9631496559470775  0.5356107620018163  0.4649898445084942  1.0000
  N   N4        1.0  0.0372729883401135  0.4642894068318455  0.5353410641421235  1.0000
  N   N5        1.0  0.4864941831451831  0.49918909841658626  0.7974659962346136  1.0000
  N   N6        1.0  0.5447856999802453  0.03412012549545548  0.527802911878382  1.0000
  N   N7        1.0  0.41169109194196096  0.9654490740883404  0.5237176614971375  1.0000
  N   N8        1.0  0.5447858171622643  0.9654742005856249  0.5285085013533006  1.0000
  N   N9        1.0  0.41158874905642057  0.03441048706242359  0.5233022725867612  1.0000
  N   N10       1.0  0.6915238498579441  0.49835911511019043  0.49892314752487  1.0000
  N   N11       1.0  0.3089732750083769  0.5022125766707858  0.4995848044923719  1.0000
  N   N12       1.0  0.9638466680118754  0.46386711731435776  0.5355286674363384  1.0000
  O   O1        1.0  0.4375610400192258  0.3953297194228113  0.5084284221595752  1.0000
  O   O2        1.0  0.5347355389465491  0.6091648816098  0.8032665417318654  1.0000
  O   O3        1.0  0.44112360581699767  0.3878143336400938  0.7913014098171656  1.0000
  O   O4        1.0  0.4290286385464626  0.5966280671801129  0.206671085292264  1.0000
  O   O5        1.0  0.3946805969480636  0.088458152199749  0.4283928404965564  1.0000
  O   O6        1.0  0.49621416816972197  0.13845341348851997  0.39399899982380054  1.0000
  O   O7        1.0  0.6097633833151619  0.8323294673079855  0.6166177122456631  1.0000
  O   O8        1.0  0.5021527077258269  0.8944850654137042  0.616345150368396  1.0000
  O   O9        1.0  0.4442707371037288  0.9008745702705382  0.4105766467269091  1.0000
  O   O10       1.0  0.33543013307302527  0.8724131881773687  0.4473143188625457  1.0000
  O   O11       1.0  0.48791300538245963  0.09983497430422969  0.6193033330114517  1.0000
  O   O12       1.0  0.5655010351156591  0.6063289936053807  0.5031374439995133  1.0000
  O   O13       1.0  0.5850125194817792  0.1753201590777635  0.6238109736804276  1.0000
  O   O14       1.0  0.9099347554485745  0.3965946697151422  0.43255328172571683  1.0000
  O   O15       1.0  0.8061544506205892  0.4119349849686174  0.3871132448864357  1.0000
  O   O16       1.0  0.0895443794238346  0.6077231469119653  0.5630744990128917  1.0000
  O   O17       1.0  0.1985318541734244  0.6088517408185155  0.6044695706436016  1.0000
  O   O18       1.0  0.9079888901660028  0.5970931581326369  0.5717335017379738  1.0000
  O   O19       1.0  0.7942548673307359  0.6026247865836112  0.6072783424132453  1.0000
  O   O20       1.0  0.09155968957939112  0.39306358131999264  0.43644998271872737  1.0000
  O   O21       1.0  0.20093324036618304  0.3924059382305742  0.39536494177463055  1.0000
  O   O22       1.0  0.4913186421660426  0.2551942863395169  0.1314601562231417  1.0000
  O   O23       1.0  0.4405933772729966  0.6071774605912522  0.4899875402158571  1.0000
  O   O24       1.0  0.6070736982311048  0.2985414787685698  0.11608726075309757  1.0000
  O   O25       1.0  0.47589337836900103  0.7313896390248613  0.8666505263885255  1.0000
  O   O26       1.0  0.5943745561993409  0.6974614261590444  0.8842701777847565  1.0000
  O   O27       1.0  0.6651630814045077  0.4188478621852382  0.7431756988718374  1.0000
  O   O28       1.0  0.6548006114276745  0.5236382299893946  0.7787461549749394  1.0000
  O   O29       1.0  0.6653962534674065  0.5701098669122828  0.2554490014616135  1.0000
  O   O30       1.0  0.6540927021682919  0.46603250744428226  0.21912955027688946  1.0000
  O   O31       1.0  0.361010685937309  0.28232094518251927  0.8612937610019458  1.0000
  O   O32       1.0  0.4864300460712484  0.2744121788646581  0.8492237423857174  1.0000
  O   O33       1.0  0.34199336851292367  0.6959213500718847  0.13661521812104377  1.0000
  O   O34       1.0  0.562794739672853  0.3936683287190874  0.4955112090628404  1.0000
  O   O35       1.0  0.46633108440936893  0.7123709051888268  0.14910433465991696  1.0000
  O   O36       1.0  0.35031902667911646  0.3047573565098318  0.9930733958339673  1.0000
  O   O37       1.0  0.44563835938326685  0.2461516355063793  0.9571792589277306  1.0000
  O   O38       1.0  0.3349779744943149  0.6716627802955342  0.004213517856911198  1.0000
  O   O39       1.0  0.4234682373871125  0.7377035053410522  0.0409799461260647  1.0000
  O   O40       1.0  0.49523344207604236  0.32816285825053626  0.40378147447287915  1.0000
  O   O41       1.0  0.3920129960685514  0.2599956254469973  0.40169351504177087  1.0000
  O   O42       1.0  0.5463350568220804  0.6724103517821334  0.6115435774092148  1.0000
  O   O43       1.0  0.650753389009573  0.6998721573093929  0.5694038339869393  1.0000
  O   O44       1.0  0.35913730755962814  0.724249444909283  0.41503888537996386  1.0000
  O   O45       1.0  0.4356438574291488  0.4865223609282692  0.427573017627317  1.0000
  O   O46       1.0  0.4766022124626161  0.6844070777466768  0.4010509044495051  1.0000
  O   O47       1.0  0.5949558750388348  0.3355754686022223  0.5937250629889661  1.0000
  O   O48       1.0  0.48581439360181367  0.3016900379463365  0.6281714059887165  1.0000
  O   O49       1.0  0.5622005087368863  0.4979713087525751  0.5720590136247949  1.0000
  O   O50       1.0  0.4374241753336321  0.5160406451193751  0.5710596576132829  1.0000
  O   O51       1.0  0.5606732511603952  0.503432915009874  0.4258052887859448  1.0000
  O   O52       1.0  0.5360841332037721  0.38039123452242046  0.19621198705226559  1.0000
