data_image0
_chemical_formula_structural       Zn2H32C34N4O8
_chemical_formula_sum              "Zn2 H32 C34 N4 O8"
_cell_length_a       7.791452070753314
_cell_length_b       10.291020718227344
_cell_length_c       10.428725410410156
_cell_angle_alpha    92.51877166143741
_cell_angle_beta     107.40918902701188
_cell_angle_gamma    106.59821073745285

_space_group_name_H-M_alt    "P 1"
_space_group_IT_number       1

loop_
  _space_group_symop_operation_xyz
  'x, y, z'

loop_
  _atom_site_type_symbol
  _atom_site_label
  _atom_site_symmetry_multiplicity
  _atom_site_fract_x
  _atom_site_fract_y
  _atom_site_fract_z
  _atom_site_occupancy
  Zn  Zn1       1.0  0.89567277143815  0.8566261382296575  0.47396807519862005  1.0000
  Zn  Zn2       1.0  0.1043264986111652  0.1433765093940522  0.5260314468994878  1.0000
  H   H1        1.0  0.8893671201862219  0.9753339594378262  0.9118269627453233  1.0000
  H   H2        1.0  0.11063171225062969  0.024664588835960895  0.08817323838625411  1.0000
  H   H3        1.0  0.8121134910003176  0.8303183148850476  0.08410545161778761  1.0000
  H   H4        1.0  0.18788444277963381  0.1696812590527088  0.9158945950027974  1.0000
  H   H5        1.0  0.4741618076812557  0.7309212646742009  0.07297221869423962  1.0000
  H   H6        1.0  0.5258361249278137  0.2690783101099967  0.927026868812327  1.0000
  H   H7        1.0  0.22134378964497606  0.7787227295647694  0.888983767561726  1.0000
  H   H8        1.0  0.7786545887775065  0.22127786949926784  0.11101546480868763  1.0000
  H   H9        1.0  0.7297172953355897  0.1723643217854089  0.7766995277191386  1.0000
  H   H10       1.0  0.27028108425776765  0.8276362764321875  0.22330066376529356  1.0000
  H   H11       1.0  0.5390777291169614  0.0732833458833753  0.6362849307766398  1.0000
  H   H12       1.0  0.4609215432741039  0.9267193000474523  0.36371650954950513  1.0000
  H   H13       1.0  0.4830810058505079  0.7248314886136028  0.3650868733538673  1.0000
  H   H14       1.0  0.5169182747415134  0.2751680822471414  0.634915390869594  1.0000
  H   H15       1.0  0.3791650972456111  0.289142839082885  0.2921465715216556  1.0000
  H   H16       1.0  0.6208373145878172  0.7108577558287479  0.7078535589732768  1.0000
  H   H17       1.0  0.7317891876800073  0.33725820978814613  0.3622979845841813  1.0000
  H   H18       1.0  0.2682132264951775  0.6627423834306043  0.6377040641387881  1.0000
  H   H19       1.0  0.9422877381889381  0.5813528786805336  0.4347840838368954  1.0000
  H   H20       1.0  0.05771333268680933  0.41864771507591303  0.5652186246252526  1.0000
  H   H21       1.0  0.11101208790540804  0.3841550987294013  0.2818567370540351  1.0000
  H   H22       1.0  0.8889880866600067  0.6158434498531308  0.7181418452243451  1.0000
  H   H23       1.0  0.1698446294982858  0.561271734603423  0.3413569827692983  1.0000
  H   H24       1.0  0.8301555462380038  0.438726813132668  0.6586425586231004  1.0000
  H   H25       1.0  0.025865700395037553  0.3166245939880953  0.03988443706606402  1.0000
  H   H26       1.0  0.9741349199837829  0.6833749788742767  0.9601142900761561  1.0000
  H   H27       1.0  0.2636777453046903  0.40783416696234553  0.0544189881258816  1.0000
  H   H28       1.0  0.7363233302593741  0.5921633542633344  0.9455816668915278  1.0000
  H   H29       1.0  0.9594052033351091  0.6304499938591803  0.18266283896318225  1.0000
  H   H30       1.0  0.040597208498319  0.36955060105245247  0.8173372915317502  1.0000
  H   H31       1.0  0.8365043649455188  0.4536560567490255  0.1187403183228213  1.0000
  H   H32       1.0  0.1634962566041835  0.5463435152669049  0.8812593679334242  1.0000
  C   C1        1.0  0.41256355986440246  0.9092690581840372  0.8027077128424696  1.0000
  C   C2        1.0  0.5874361630284001  0.09073153949586302  0.19729181890278377  1.0000
  C   C3        1.0  0.6025747100762691  0.9680662928229327  0.8096608456947935  1.0000
  C   C4        1.0  0.3974263584577286  0.03193430262638941  0.19033994453931774  1.0000
  C   C5        1.0  0.7427667885737466  0.9340070515828459  0.9092995538569755  1.0000
  C   C6        1.0  0.25723383297595603  0.0659925204330776  0.09070013239926313  1.0000
  C   C7        1.0  0.6994725506265239  0.8503941668419085  0.004081174192783927  1.0000
  C   C8        1.0  0.30052672645285844  0.14960540655815177  0.995918212688615  1.0000
  C   C9        1.0  0.5108314989270468  0.7944323424281236  0.9981102219833605  1.0000
  C   C10       1.0  0.4891664336820228  0.20556723235607421  0.0018888655232060924  1.0000
  C   C11       1.0  0.3693498067607309  0.8222403884408395  0.8962520716557736  1.0000
  C   C12       1.0  0.6306499161320714  0.17776020923906094  0.10374746008947969  1.0000
  C   C13       1.0  0.6631908382710492  0.06871812547881011  0.7187335643592692  1.0000
  C   C14       1.0  0.336809777419454  0.9312845199143214  0.28126721622769685  1.0000
  C   C15       1.0  0.7967885332762847  0.03871762425651331  0.6495275811078189  1.0000
  C   C16       1.0  0.20320850067588486  0.9612829761916544  0.35047135188775513  1.0000
  C   C17       1.0  0.25070791900963485  0.9346807697212611  0.6973118765799171  1.0000
  C   C18       1.0  0.7492895689568969  0.06531777993665601  0.3026880251768206  1.0000
  C   C19       1.0  0.5316262500076121  0.6358500317123443  0.3620975886970896  1.0000
  C   C20       1.0  0.46837481969726014  0.36415056289054354  0.6379041606510398  1.0000
  C   C21       1.0  0.4022592313172382  0.5042801877760609  0.31872368399022133  1.0000
  C   C22       1.0  0.5977413914033393  0.4957193833934285  0.6812769613800429  1.0000
  C   C23       1.0  0.47430199004863033  0.39433552812082695  0.320629485623222  1.0000
  C   C24       1.0  0.525699078485367  0.6056650673284948  0.6793713046108892  1.0000
  C   C25       1.0  0.6705373770479638  0.42024113214836234  0.36159301684762823  1.0000
  C   C26       1.0  0.3294636914860262  0.5797594633009595  0.6384077733864829  1.0000
  C   C27       1.0  0.7884309377372248  0.5547059378326582  0.40190560785160306  1.0000
  C   C28       1.0  0.21156878749732758  0.44529465815436725  0.5980958421216871  1.0000
  C   C29       1.0  0.19395275473549836  0.48887116205127507  0.27315877605919786  1.0000
  C   C30       1.0  0.8060487654711037  0.5111273843006855  0.7268410647080331  1.0000
  C   C31       1.0  0.12168173035877324  0.41812705659986454  0.03400886169632138  1.0000
  C   C32       1.0  0.878320234490367  0.58187251487837  0.9659901648207455  1.0000
  C   C33       1.0  0.9448915818204071  0.5456484981905377  0.10803919823408852  1.0000
  C   C34       1.0  0.05511038419960812  0.45435107244126266  0.8919607873969968  1.0000
  N   N1        1.0  0.7199819118239361  0.6608679366713588  0.40380677632991546  1.0000
  N   N2        1.0  0.28001646894031046  0.3391326606998036  0.5961943742685349  1.0000
  N   N3        1.0  0.12953081581041911  0.5236955824177869  0.1359893407726815  1.0000
  N   N4        1.0  0.8704711502095961  0.47630398821400627  0.8640106448583966  1.0000
  O   O1        1.0  0.7647159439369489  0.9148296282321836  0.6022398429054051  1.0000
  O   O2        1.0  0.23528466238172288  0.0851760930774788  0.39775915467022577  1.0000
  O   O3        1.0  0.9257631440476574  0.14206833428236376  0.6384004917772119  1.0000
  O   O4        1.0  0.07423432751696886  0.8579363655157337  0.3615977621848927  1.0000
  O   O5        1.0  0.2679918374523709  0.05697569292394181  0.673193105204632  1.0000
  O   O6        1.0  0.7320092217097879  0.9430279784419112  0.326805902018144  1.0000
  O   O7        1.0  0.10594005559233466  0.8303848288468884  0.6389384734928854  1.0000
  O   O8        1.0  0.8940605600981683  0.1696178165462499  0.36106230709408044  1.0000
