data_image0
_chemical_formula_structural       Al4H4C32S8Cl8O20
_chemical_formula_sum              "Al4 H4 C32 S8 Cl8 O20"
_cell_length_a       6.666075794145556
_cell_length_b       17.01757552050082
_cell_length_c       17.809698593260514
_cell_angle_alpha    89.95211319946846
_cell_angle_beta     90.79233588271303
_cell_angle_gamma    89.88228223730236

_space_group_name_H-M_alt    "P 1"
_space_group_IT_number       1

loop_
  _space_group_symop_operation_xyz
  'x, y, z'

loop_
  _atom_site_type_symbol
  _atom_site_label
  _atom_site_symmetry_multiplicity
  _atom_site_fract_x
  _atom_site_fract_y
  _atom_site_fract_z
  _atom_site_occupancy
  Al  Al1       1.0  0.033728432202814004  0.9970067455094876  0.5006796979743982  1.0000
  Al  Al2       1.0  0.5345473672125535  0.0022771990142303  0.5031036119241747  1.0000
  Al  Al3       1.0  0.965466185409781  0.4977237472251444  0.9968978005867655  1.0000
  Al  Al4       1.0  0.4662835660891745  0.502989347959833  0.999319794435145  1.0000
  H   H1        1.0  0.7922233789413726  0.09798397036646378  0.47269495965333863  1.0000
  H   H2        1.0  0.295579581935698  0.902151855491155  0.4712349991999929  1.0000
  H   H3        1.0  0.7077944599737407  0.4020163168579316  0.0273062843310825  1.0000
  H   H4        1.0  0.20444284479720662  0.5978447483655672  0.028772201273937998  1.0000
  C   C1        1.0  0.28454464159982257  0.09838192532686209  0.4035155875997987  1.0000
  C   C2        1.0  0.27223637956080193  0.09288313308380938  0.601853187904645  1.0000
  C   C3        1.0  0.7784939214626334  0.9043958843672611  0.5999109947220589  1.0000
  C   C4        1.0  0.7841942434084289  0.9029102049818362  0.40205092817780036  1.0000
  C   C5        1.0  0.21547016981064365  0.4016102662219082  0.09647549402681929  1.0000
  C   C6        1.0  0.22775160370052566  0.4071279427220205  0.8981385575508724  1.0000
  C   C7        1.0  0.7215089618593993  0.5956030246184767  0.9000902080072279  1.0000
  C   C8        1.0  0.7158115534294822  0.5970827542124368  0.097956281177936  1.0000
  C   C9        1.0  0.11069157198608082  0.20771134972273586  0.6723819374330944  1.0000
  C   C10       1.0  0.38928296348116487  0.2922909163055251  0.8276114611256418  1.0000
  C   C11       1.0  0.2641986792109422  0.154013752112057  0.6603199112838141  1.0000
  C   C12       1.0  0.23579380386270543  0.34599379636867406  0.8396712858364949  1.0000
  C   C13       1.0  0.3437511836052066  0.24174301500806905  0.76659423941868  1.0000
  C   C14       1.0  0.15621141175969203  0.2582592543353712  0.7334024970669261  1.0000
  C   C15       1.0  0.6198983752109086  0.7868211698520965  0.3309726435611253  1.0000
  C   C16       1.0  0.8800893515196792  0.713177674060681  0.16903170878218526  1.0000
  C   C17       1.0  0.769039345945238  0.842729292035443  0.3429877251593112  1.0000
  C   C18       1.0  0.7309528815155206  0.6572695500785597  0.1570166389085657  1.0000
  C   C19       1.0  0.8396933349326547  0.7604657091424584  0.23246214314568897  1.0000
  C   C20       1.0  0.6602958151942886  0.7395348987858483  0.2675382816452085  1.0000
  C   C21       1.0  0.9072496612005523  0.7829324407278192  0.6744851283928739  1.0000
  C   C22       1.0  0.5927335887373958  0.717061190849755  0.8255081642894737  1.0000
  C   C23       1.0  0.7742083316175582  0.8440826553210099  0.6587989712397686  1.0000
  C   C24       1.0  0.7257749429830298  0.6559133260312748  0.8411960050572417  1.0000
  C   C25       1.0  0.658900438635804  0.7634602567375735  0.7646477598604875  1.0000
  C   C26       1.0  0.8410812801363718  0.7365333761803824  0.7353438443174767  1.0000
  C   C27       1.0  0.12026829230330088  0.2139393282422546  0.3312972688067148  1.0000
  C   C28       1.0  0.37976605567639166  0.2860557926684635  0.168696108527719  1.0000
  C   C29       1.0  0.27065711804978326  0.15848869127911058  0.34418618062347406  1.0000
  C   C30       1.0  0.22937123834596213  0.3415029062567356  0.1558071825504967  1.0000
  C   C31       1.0  0.34012799851028325  0.23951786175940978  0.23271226772725837  1.0000
  C   C32       1.0  0.15991846415150235  0.26048136479354866  0.2672878775398004  1.0000
  S   S1        1.0  0.4651669169336898  0.16579383997123634  0.7226395079748826  1.0000
  S   S2        1.0  0.03481665992955389  0.3342166477821494  0.7773572797900314  1.0000
  S   S3        1.0  0.959674689065949  0.8368395193477267  0.2773077318424626  1.0000
  S   S4        1.0  0.540315995356636  0.6631599119824542  0.22269438194358318  1.0000
  S   S5        1.0  0.5673782495907178  0.8443347533090698  0.7175932240397529  1.0000
  S   S6        1.0  0.9326005583319558  0.6556600538434622  0.7824034256196555  1.0000
  S   S7        1.0  0.46176417322119084  0.1640327043860026  0.2787250768769454  1.0000
  S   S8        1.0  0.038271673436952404  0.3359630035539991  0.2212683041202936  1.0000
  Cl  Cl1       1.0  0.8969344435047903  0.21705814625309464  0.6190960095623338  1.0000
  Cl  Cl2       1.0  0.6030429724090994  0.2829416423288291  0.8808980097259748  1.0000
  Cl  Cl3       1.0  0.4139620789763328  0.7708140444895689  0.38519065053453966  1.0000
  Cl  Cl4       1.0  0.08603479925925231  0.7291837458056989  0.11481423688114488  1.0000
  Cl  Cl5       1.0  0.12103282606857138  0.7615658612316238  0.6268387775928161  1.0000
  Cl  Cl6       1.0  0.3789490293109381  0.738427897171057  0.8731527761855489  1.0000
  Cl  Cl7       1.0  0.9142014925816186  0.23032757174596696  0.3853062798257625  1.0000
  Cl  Cl8       1.0  0.5858236673580351  0.2696668408833532  0.1146843170441869  1.0000
  O   O1        1.0  0.12126569318801471  0.0806815424794536  0.43542170013396486  1.0000
  O   O2        1.0  0.4419892297107638  0.08011279626647648  0.5717867441396364  1.0000
  O   O3        1.0  0.6135704507085081  0.9410159157899186  0.5883300213466214  1.0000
  O   O4        1.0  0.9572753822054026  0.9331495263006174  0.4138098695898265  1.0000
  O   O5        1.0  0.9412622159640947  0.9153195369931166  0.5648669597233109  1.0000
  O   O6        1.0  0.6233105187478002  0.9192132665718021  0.436394671459034  1.0000
  O   O7        1.0  0.457976549159966  0.0693765187007642  0.4178040839657058  1.0000
  O   O8        1.0  0.10829648760760342  0.05855915751006789  0.5858640883537234  1.0000
  O   O9        1.0  0.785706230965701  0.0480474208591986  0.49887641933628396  1.0000
  O   O10       1.0  0.28693491298817975  0.9513914463649086  0.49850892333846997  1.0000
  O   O11       1.0  0.042044278226327905  0.4306139073160793  0.0821875755618819  1.0000
  O   O12       1.0  0.39169757541556294  0.44143781181668357  0.9141299247519824  1.0000
  O   O13       1.0  0.558736160368035  0.5846817243069041  0.9351342302998802  1.0000
  O   O14       1.0  0.8766969573372877  0.5807743994121566  0.0636215285263688  1.0000
  O   O15       1.0  0.8864340180701545  0.5589935671997707  0.9116773577266953  1.0000
  O   O16       1.0  0.542728871594342  0.5668440221098406  0.0861950894840717  1.0000
  O   O17       1.0  0.3787491728896343  0.419309472576927  0.0645721896437408  1.0000
  O   O18       1.0  0.05800331299562339  0.4198994515167556  0.928208381742074  1.0000
  O   O19       1.0  0.7143205229023409  0.45195051447449686  0.0011197952902151  1.0000
  O   O20       1.0  0.21305743359485524  0.5486063464699169  0.001494267756442  1.0000
