data_image0
_chemical_formula_structural       Zr6H28C108N24O80
_chemical_formula_sum              "Zr6 H28 C108 N24 O80"
_cell_length_a       19.056037910349612
_cell_length_b       19.056024423195588
_cell_length_c       19.05606908186166
_cell_angle_alpha    60.00004268530066
_cell_angle_beta     59.99997157783177
_cell_angle_gamma    59.99989872728343

_space_group_name_H-M_alt    "P 1"
_space_group_IT_number       1

loop_
  _space_group_symop_operation_xyz
  'x, y, z'

loop_
  _atom_site_type_symbol
  _atom_site_label
  _atom_site_symmetry_multiplicity
  _atom_site_fract_x
  _atom_site_fract_y
  _atom_site_fract_z
  _atom_site_occupancy
  Zr  Zr1       1.0  0.907086937781756  0.40708771774898594  0.59291321265669  1.0000
  Zr  Zr2       1.0  0.09291237614996112  0.5929175888371389  0.4070857614877356  1.0000
  Zr  Zr3       1.0  0.09291351953419273  0.4070876513747732  0.592911763728509  1.0000
  Zr  Zr4       1.0  0.9070905324363425  0.5929108483308023  0.40708799383923383  1.0000
  Zr  Zr5       1.0  0.9070864386233385  0.5929122676624554  0.5929131245001074  1.0000
  Zr  Zr6       1.0  0.09291216653861771  0.40708918153833196  0.4070872022630425  1.0000
  H   H1        1.0  0.9268709150419384  0.42687400275952536  0.7193848680633581  1.0000
  H   H2        1.0  0.9268681038238002  0.7193887922044196  0.4268745231438658  1.0000
  H   H3        1.0  0.2193844651876161  0.42687396571280084  0.4268708027249844  1.0000
  H   H4        1.0  0.9268709933007387  0.426870514543097  0.4268746495302623  1.0000
  H   H5        1.0  0.32156094863860585  0.38688705752892344  0.180245090053333  1.0000
  H   H6        1.0  0.31676993717292845  0.6160287930063575  0.1753627667514337  1.0000
  H   H7        1.0  0.6802421212371287  0.6113084479241733  0.8215614337219536  1.0000
  H   H8        1.0  0.6753572490073411  0.3918432478272107  0.8167658836071753  1.0000
  H   H9        1.0  0.8868839706532514  0.8215617526287244  0.6113095549390621  1.0000
  H   H10       1.0  0.1160255114110455  0.8167686814371534  0.39184506493221966  1.0000
  H   H11       1.0  0.11130539592756611  0.1802450646049393  0.3868873535659888  1.0000
  H   H12       1.0  0.8918427089639849  0.1753635209823583  0.61603125339105  1.0000
  H   H13       1.0  0.3215648547811157  0.18024158080673647  0.6113091681338789  1.0000
  H   H14       1.0  0.3167633696172061  0.17535791130846679  0.39184638477707523  1.0000
  H   H15       1.0  0.6802439875037367  0.8215596101121462  0.38688590205759976  1.0000
  H   H16       1.0  0.6753609033128075  0.8167639580704884  0.6160295471962769  1.0000
  H   H17       1.0  0.1113119992650978  0.38688129677881716  0.8215634512241935  1.0000
  H   H18       1.0  0.8918467497565387  0.616023026074515  0.8167678999977286  1.0000
  H   H19       1.0  0.8868857117968079  0.611307713424601  0.18024227282494829  1.0000
  H   H20       1.0  0.11602988462493612  0.39184385779010705  0.17536341347283727  1.0000
  H   H21       1.0  0.11130629490099166  0.8215642750542783  0.18024248242446822  1.0000
  H   H22       1.0  0.8918464569805595  0.8167639615680926  0.1753527145587481  1.0000
  H   H23       1.0  0.8868892086334059  0.18024553567470714  0.8215592331084665  1.0000
  H   H24       1.0  0.11603503525272163  0.1753584003632013  0.816765513095291  1.0000
  H   H25       1.0  0.3215621706623609  0.6113114640482704  0.38688283732183487  1.0000
  H   H26       1.0  0.3167689931959289  0.3918469831490937  0.6160228720672408  1.0000
  H   H27       1.0  0.6802426828851368  0.3868931666819576  0.6113052671088753  1.0000
  H   H28       1.0  0.6753628211760091  0.6160349560538163  0.3918401266815793  1.0000
  C   C1        1.0  0.7617012895125796  0.502399103179172  0.7336155333169146  1.0000
  C   C2        1.0  0.002281007916948878  0.7336129842456741  0.5024020211651958  1.0000
  C   C3        1.0  0.23361316032168852  0.5022842619489295  0.2617036354374703  1.0000
  C   C4        1.0  0.0023994444202273674  0.26170657693695876  0.5022804090122578  1.0000
  C   C5        1.0  0.0022851091565953816  0.2617048726294655  0.7336113218707041  1.0000
  C   C6        1.0  0.7617041935084146  0.5022841285312223  0.502399614182565  1.0000
  C   C7        1.0  0.0024006847632732117  0.733617917677357  0.26169894966304946  1.0000
  C   C8        1.0  0.23361141679222192  0.502405658131721  0.5022807021723352  1.0000
  C   C9        1.0  0.002404671852779867  0.5022811295988275  0.7336112222184853  1.0000
  C   C10       1.0  0.23361400307690158  0.2617038593236813  0.5024018098425955  1.0000
  C   C11       1.0  0.0022799335267649824  0.5024002595153759  0.2617058808275915  1.0000
  C   C12       1.0  0.761704416242914  0.7336100573326616  0.5022847548754114  1.0000
  C   C13       1.0  0.35086592635950364  0.43610283406563594  0.1494974096076476  1.0000
  C   C14       1.0  0.4242034607491689  0.43530619096156886  0.07555995167854954  1.0000
  C   C15       1.0  0.46441982181378466  0.37109553732339134  0.03599246312686687  1.0000
  C   C16       1.0  0.3478787381718504  0.5664480014678687  0.1464376951169299  1.0000
  C   C17       1.0  0.42319069138667237  0.5658268733723161  0.07456774318403347  1.0000
  C   C18       1.0  0.4635690518140194  0.6291733428060624  0.03534051232249173  1.0000
  C   C19       1.0  0.6494940684685915  0.5635337249629726  0.8508701891607018  1.0000
  C   C20       1.0  0.5755607584497611  0.5649300154693931  0.924206058894889  1.0000
  C   C21       1.0  0.5359978470244114  0.6284895438299498  0.9644254976265502  1.0000
  C   C22       1.0  0.6464328000690854  0.4392402170046095  0.8478762680827362  1.0000
  C   C23       1.0  0.5745619775182219  0.4364185603294498  0.9231902065642501  1.0000
  C   C24       1.0  0.5353325105217197  0.3719245966192229  0.963565196303158  1.0000
  C   C25       1.0  0.3127519339343082  0.5017903262926849  0.18354857693397963  1.0000
  C   C26       1.0  0.462116375706657  0.5004525381011858  0.036917951256285185  1.0000
  C   C27       1.0  0.6835471140304537  0.501909754444021  0.8127519753005714  1.0000
  C   C28       1.0  0.5369157967240664  0.5005157261576725  0.9621172917259743  1.0000
  C   C29       1.0  0.9360989058978719  0.8508690366499109  0.5635357484056697  1.0000
  C   C30       1.0  0.9353023370202752  0.9242066443212376  0.5649317280882898  1.0000
  C   C31       1.0  0.8710915884796011  0.9644239603295686  0.6284901769744027  1.0000
  C   C32       1.0  0.06644482917992195  0.8478775919817563  0.4392405610879636  1.0000
  C   C33       1.0  0.06582408428487  0.9231899274274084  0.43642097613570735  1.0000
  C   C34       1.0  0.12917337121706407  0.9635658563140905  0.37192405976715287  1.0000
  C   C35       1.0  0.06353517599244188  0.1494962681994919  0.43610340259748887  1.0000
  C   C36       1.0  0.06493012166836111  0.07555951521930376  0.4353078359678193  1.0000
  C   C37       1.0  0.12849229829391365  0.035991904982594664  0.37109462139053323  1.0000
  C   C38       1.0  0.9392396969582748  0.1464369915479721  0.56645187052618  1.0000
  C   C39       1.0  0.9364171828065653  0.07456636203154682  0.5658313188580948  1.0000
  C   C40       1.0  0.8719217443347632  0.0353385702321346  0.6291758062367522  1.0000
  C   C41       1.0  0.0017865390313148387  0.8127554217601725  0.5019123729756387  1.0000
  C   C42       1.0  0.0004489106963066175  0.962115823311748  0.5005193606495484  1.0000
  C   C43       1.0  0.0019107412017403758  0.18354675076900404  0.501791776977747  1.0000
  C   C44       1.0  0.000514941987305033  0.036915763542154395  0.5004560173211772  1.0000
  C   C45       1.0  0.3508694580976269  0.14949469377688726  0.5635349097021987  1.0000
  C   C46       1.0  0.4242058841739719  0.07555783710908054  0.5649316005244033  1.0000
  C   C47       1.0  0.4644243706958022  0.035994727197085206  0.6284902669704026  1.0000
  C   C48       1.0  0.34787156913412803  0.14643260114755205  0.4392437672482572  1.0000
  C   C49       1.0  0.42318430129080303  0.07456230767147069  0.43642213338412017  1.0000
  C   C50       1.0  0.4635601412382402  0.035327443311572816  0.3719282859963543  1.0000
  C   C51       1.0  0.6494958592385132  0.8508650712894903  0.43610351867670966  1.0000
  C   C52       1.0  0.5755573264296812  0.9242019203080857  0.43530736814694393  1.0000
  C   C53       1.0  0.5359894099369101  0.9644166497796361  0.3710982173767974  1.0000
  C   C54       1.0  0.6464361672577325  0.8478727316654893  0.56644915744463  1.0000
  C   C55       1.0  0.574565087268198  0.9231857268022451  0.5658287781121699  1.0000
  C   C56       1.0  0.5353385540533323  0.96356569972653  0.6291748001364044  1.0000
  C   C57       1.0  0.312751349552407  0.18354483269000343  0.5019138197900048  1.0000
  C   C58       1.0  0.4621131859845705  0.036911737862908585  0.5005185907729127  1.0000
  C   C59       1.0  0.6835472589236603  0.812749273107002  0.501790567239432  1.0000
  C   C60       1.0  0.5369132629900907  0.9621112579333365  0.5004560730984977  1.0000
  C   C61       1.0  0.06353772193517673  0.4360969766029965  0.8508697960497714  1.0000
  C   C62       1.0  0.06493550972255235  0.4353002854241623  0.924204988090729  1.0000
  C   C63       1.0  0.12849442225477511  0.37108953701829245  0.964422419929484  1.0000
  C   C64       1.0  0.939243719943562  0.5664416698069344  0.8478778890775517  1.0000
  C   C65       1.0  0.9364219033194062  0.5658229387902619  0.9231897082508597  1.0000
  C   C66       1.0  0.8719260242391728  0.6291713517078105  0.9635647973390038  1.0000
  C   C67       1.0  0.9361033214792869  0.5635353659353726  0.14949342675298977  1.0000
  C   C68       1.0  0.9353099094206813  0.5649311851435072  0.0755556623369812  1.0000
  C   C69       1.0  0.8710979511863217  0.6284899373940788  0.03599092438327037  1.0000
  C   C70       1.0  0.06645220031739295  0.43923925227612404  0.1464374660905392  1.0000
  C   C71       1.0  0.06583203912345681  0.4364181045964131  0.07456709092257092  1.0000
  C   C72       1.0  0.12917983952475257  0.37191846439580434  0.035338290793397696  1.0000
  C   C73       1.0  0.001914073017715607  0.5017864449726446  0.8127547314062227  1.0000
  C   C74       1.0  0.000519604938887276  0.5004499129197411  0.9621140277605917  1.0000
  C   C75       1.0  0.0017902403855460738  0.5019115035644288  0.1835446900495441  1.0000
  C   C76       1.0  0.0004585385710172718  0.5005166180697315  0.03691468838155033  1.0000
  C   C77       1.0  0.06353358914871164  0.8508695898723244  0.1494946511867425  1.0000
  C   C78       1.0  0.0649332524925726  0.9242066404729172  0.07555626634600544  1.0000
  C   C79       1.0  0.12849220764843494  0.9644228358286566  0.03599333681741977  1.0000
  C   C80       1.0  0.9392454628326022  0.8478741504579612  0.14642708436825552  1.0000
  C   C81       1.0  0.9364232920544499  0.9231847916650292  0.07455762831627039  1.0000
  C   C82       1.0  0.8719326534663738  0.9635597280817833  0.03532307404358195  1.0000
  C   C83       1.0  0.9361049804731394  0.14949705512578476  0.8508636446353537  1.0000
  C   C84       1.0  0.9353092598427183  0.07555907664976029  0.9242000119496582  1.0000
  C   C85       1.0  0.8711006207610481  0.03599042737934608  0.964413570425073  1.0000
  C   C86       1.0  0.06645214447015475  0.14643565582097295  0.8478734295191048  1.0000
  C   C87       1.0  0.06583192480904647  0.07456549990686777  0.9231858426411679  1.0000
  C   C88       1.0  0.12917718177460824  0.035337374697306044  0.9635636280483624  1.0000
  C   C89       1.0  0.0019117419847776637  0.8127521263551853  0.1835441625458998  1.0000
  C   C90       1.0  0.0005209715329213668  0.9621148037919057  0.036909904327231326  1.0000
  C   C91       1.0  0.0017940780381379476  0.18354703046407642  0.8127504868638981  1.0000
  C   C92       1.0  0.0004565468843508061  0.036914702941331264  0.9621116296253193  1.0000
  C   C93       1.0  0.350868256025379  0.5635395290799677  0.4360963557596094  1.0000
  C   C94       1.0  0.4242054206233661  0.5649361568352941  0.4353001744810783  1.0000
  C   C95       1.0  0.46442269406102116  0.6284951391876348  0.37108965545345285  1.0000
  C   C96       1.0  0.34787906145939473  0.439243768278608  0.5664417292233352  1.0000
  C   C97       1.0  0.4231909482464006  0.4364228421378582  0.5658220748569108  1.0000
  C   C98       1.0  0.46356654704359823  0.3719286680846493  0.6291688138514078  1.0000
  C   C99       1.0  0.6494955861954566  0.43610717352513007  0.5635329220642546  1.0000
  C   C100      1.0  0.5755586100449508  0.4353114066517634  0.5649276994099495  1.0000
  C   C101      1.0  0.5359912358053407  0.37109984579291927  0.6284879076897738  1.0000
  C   C102      1.0  0.6464367331043877  0.5664550199927019  0.4392384508576868  1.0000
  C   C103      1.0  0.5745647243268622  0.5658350474853293  0.4364155031121087  1.0000
  C   C104      1.0  0.535338446862298  0.6291811023417607  0.37191775961258605  1.0000
  C   C105      1.0  0.3127542649432796  0.5019138088847511  0.5017879670818388  1.0000
  C   C106      1.0  0.46211550851500516  0.5005205530984752  0.5004483475486269  1.0000
  C   C107      1.0  0.6835472020925482  0.5017960482631522  0.5019082223851115  1.0000
  C   C108      1.0  0.5369164037352547  0.5004600481964729  0.5005125780577658  1.0000
  N   N1        1.0  0.571760103594791  0.3058069925565972  0.923855720852842  1.0000
  N   N2        1.0  0.4288744567102185  0.3009426856984802  0.07615446170697743  1.0000
  N   N3        1.0  0.5761569736009092  0.6940265255408274  0.9288879478439754  1.0000
  N   N4        1.0  0.42385993079928164  0.6985721759360997  0.07176863066194976  1.0000
  N   N5        1.0  0.8058040983634953  0.07176717132238489  0.6985757563814519  1.0000
  N   N6        1.0  0.800931400226851  0.9288859535086684  0.6940275082671692  1.0000
  N   N7        1.0  0.1940340159071071  0.07614736980100632  0.30094945921509725  1.0000
  N   N8        1.0  0.19856482943373535  0.9238619544502311  0.3058027551950885  1.0000
  N   N9        1.0  0.5717683175511113  0.9238557695309167  0.6985733466416734  1.0000
  N   N10       1.0  0.428884716392524  0.0761562533695255  0.6940249591054197  1.0000
  N   N11       1.0  0.5761523055628291  0.9288720676425367  0.30094440581304827  1.0000
  N   N12       1.0  0.42385204345700345  0.0717516924975285  0.30581016287153784  1.0000
  N   N13       1.0  0.1985781723978094  0.305803641651046  0.07176627148616889  1.0000
  N   N14       1.0  0.19402918071578062  0.3009294613693213  0.9288849689351439  1.0000
  N   N15       1.0  0.8009476519815594  0.6940292246730376  0.07614942291785101  1.0000
  N   N16       1.0  0.8058040682236227  0.69856674941974  0.9238583150768919  1.0000
  N   N17       1.0  0.19857653946905887  0.0717655113693921  0.9238552625159857  1.0000
  N   N18       1.0  0.19402514610395374  0.9288874335886346  0.07615553644581029  1.0000
  N   N19       1.0  0.8009450195871184  0.07615380225927726  0.9288722640461273  1.0000
  N   N20       1.0  0.8058122378764807  0.9238540643607321  0.07175093469736978  1.0000
  N   N21       1.0  0.5717672371475476  0.6985769141237337  0.3058028656468678  1.0000
  N   N22       1.0  0.42888555259169436  0.6940315857147537  0.30092962338350304  1.0000
  N   N23       1.0  0.5761473407147762  0.3009558667410557  0.6940308722972475  1.0000
  N   N24       1.0  0.4238597246151701  0.30580604561767877  0.6985624988132529  1.0000
  O   O1        1.0  0.792306580371637  0.4427262117363923  0.7031183439952073  1.0000
  O   O2        1.0  0.06184723032759365  0.703116179132678  0.4427294933652704  1.0000
  O   O3        1.0  0.203115347912025  0.5618494766836193  0.29230706947910085  1.0000
  O   O4        1.0  0.9427240093997398  0.2923132857593768  0.5618430351458557  1.0000
  O   O5        1.0  0.061849755991829576  0.29230963511256647  0.7031153283719861  1.0000
  O   O6        1.0  0.7923095642922324  0.5618493824916936  0.4427242029791643  1.0000
  O   O7        1.0  0.9427292798417997  0.7031192165109769  0.29230430679353964  1.0000
  O   O8        1.0  0.20311539347405735  0.44273039802257586  0.5618494400297322  1.0000
  O   O9        1.0  0.9427322888502447  0.5618475382784706  0.7031154709660826  1.0000
  O   O10       1.0  0.2031159706411288  0.29230565135541997  0.4427320530729162  1.0000
  O   O11       1.0  0.06184662036213241  0.4427300167632494  0.2923083785632628  1.0000
  O   O12       1.0  0.7923068466064511  0.7031116136886764  0.5618502412151686  1.0000
  O   O13       1.0  0.2034236437002974  0.29260404890851527  0.5616712810752916  1.0000
  O   O14       1.0  0.9422994247396091  0.5616712241459465  0.29260600149599714  1.0000
  O   O15       1.0  0.7926042504871164  0.7034172435297917  0.4423066965056465  1.0000
  O   O16       1.0  0.061677674193227006  0.44230242154329585  0.7034174946275799  1.0000
  O   O17       1.0  0.9423097152413861  0.29260448335345035  0.7034161457565773  1.0000
  O   O18       1.0  0.20341734861774077  0.5616762510009394  0.44230548591789903  1.0000
  O   O19       1.0  0.061670425523033146  0.7034250960957847  0.2926006593430586  1.0000
  O   O20       1.0  0.7926026014815549  0.44230834479400016  0.5616699894977374  1.0000
  O   O21       1.0  0.06167057629981091  0.29260447414632296  0.44230514382821434  1.0000
  O   O22       1.0  0.7926013502862406  0.5616702983730376  0.7034204282170367  1.0000
  O   O23       1.0  0.942305050979314  0.7034174545692763  0.5616741022899704  1.0000
  O   O24       1.0  0.2034200855145372  0.4423063259179471  0.2926041864122411  1.0000
  O   O25       1.0  0.9476503507071784  0.4476499310403166  0.44764942254757056  1.0000
  O   O26       1.0  0.15705062438407683  0.44765199724392335  0.44764984065272984  1.0000
  O   O27       1.0  0.9476484930944838  0.6570541610671721  0.44765064915332436  1.0000
  O   O28       1.0  0.9476486382362951  0.4476485177052892  0.657052684790024  1.0000
  O   O29       1.0  0.038487796616564755  0.5384868227351589  0.53848201137221  1.0000
  O   O30       1.0  0.8845396632170905  0.5384877395251805  0.5384869077204613  1.0000
  O   O31       1.0  0.03848727583148546  0.5384881811141254  0.38453823501080114  1.0000
  O   O32       1.0  0.03848727647002191  0.3845378470509502  0.538487742631709  1.0000
  O   O33       1.0  0.6498551573101211  0.26660252495193487  0.9078011226634642  1.0000
  O   O34       1.0  0.5213862021348704  0.2969212686197054  0.908903301663841  1.0000
  O   O35       1.0  0.3509789035876097  0.32286973308409017  0.0919313184066155  1.0000
  O   O36       1.0  0.4797921291386587  0.22704299671219993  0.09164117396724697  1.0000
  O   O37       1.0  0.5919404149358204  0.734217953115582  0.8509949216656242  1.0000
  O   O38       1.0  0.5916316757648944  0.7015237776684982  0.9798156645396149  1.0000
  O   O39       1.0  0.4078113107054547  0.6757268311879087  0.14986635895334646  1.0000
  O   O40       1.0  0.4089005286723905  0.7727825497317155  0.021402511856500356  1.0000
  O   O41       1.0  0.7666015848944812  0.14986312912931493  0.675738474721122  1.0000
  O   O42       1.0  0.7969197895128561  0.0213925866433441  0.772787147593988  1.0000
  O   O43       1.0  0.8228489537848206  0.850992452198717  0.7342178646642454  1.0000
  O   O44       1.0  0.7270309886060248  0.9798165476028796  0.7015209835548362  1.0000
  O   O45       1.0  0.23422797749348948  0.09190395737155643  0.3228930222843332  1.0000
  O   O46       1.0  0.20153293500988678  0.09164892757201672  0.2270473088794134  1.0000
  O   O47       1.0  0.17571052624391137  0.9078159213407202  0.2666026784973072  1.0000
  O   O48       1.0  0.2727793105564092  0.9089045597898247  0.2969055805176311  1.0000
  O   O49       1.0  0.64986589116274  0.9078003416212891  0.6757324466635949  1.0000
  O   O50       1.0  0.5213976142457568  0.9089017889586869  0.7727840458144328  1.0000
  O   O51       1.0  0.3509953031523524  0.09193812840770464  0.7342181224476009  1.0000
  O   O52       1.0  0.47981520642247955  0.09163655293161793  0.7015177231891486  1.0000
  O   O53       1.0  0.591926819311908  0.8509763434678773  0.3228713224506449  1.0000
  O   O54       1.0  0.5916444378468739  0.9797871015444168  0.22704592307110258  1.0000
  O   O55       1.0  0.4077951331161173  0.1498467333237912  0.2666049012565638  1.0000
  O   O56       1.0  0.4089061155392884  0.021373299625047085  0.29692369208309805  1.0000
  O   O57       1.0  0.17574213841236744  0.2666011782930866  0.14986144253421682  1.0000
  O   O58       1.0  0.27278924916513614  0.29692066277601714  0.021390117656913784  1.0000
  O   O59       1.0  0.23422049716921123  0.32285035138320217  0.8509911548019249  1.0000
  O   O60       1.0  0.2015201718353198  0.22702984864399398  0.9798087835806015  1.0000
  O   O61       1.0  0.8228858228394885  0.7342241771550916  0.0919123602575311  1.0000
  O   O62       1.0  0.7270466749212333  0.7015241000356338  0.09164930375857937  1.0000
  O   O63       1.0  0.7666040676351925  0.6757153368663465  0.9078099420169327  1.0000
  O   O64       1.0  0.7969090622989796  0.772779442270533  0.9089031770670887  1.0000
  O   O65       1.0  0.1757366122694179  0.1498617778504894  0.9078060170201854  1.0000
  O   O66       1.0  0.27278716218579296  0.021393858851851372  0.9088978261241965  1.0000
  O   O67       1.0  0.23421691953059554  0.8509946224821334  0.09194407244568488  1.0000
  O   O68       1.0  0.20151911513353576  0.9798207982155417  0.09162984973857384  1.0000
  O   O69       1.0  0.8228672721621706  0.09193407332144683  0.8509768463850735  1.0000
  O   O70       1.0  0.7270471697235339  0.09164199457961049  0.979791805562158  1.0000
  O   O71       1.0  0.7666045694364174  0.9078034768566209  0.14984322188292523  1.0000
  O   O72       1.0  0.7969248724888944  0.908905527648514  0.021372876722232172  1.0000
  O   O73       1.0  0.6498630965519824  0.6757397277488622  0.26659900593620733  1.0000
  O   O74       1.0  0.5213946675626532  0.7727897680730036  0.29691777812458753  1.0000
  O   O75       1.0  0.35099130152126906  0.7342229692146274  0.32284892042590496  1.0000
  O   O76       1.0  0.47981186318276065  0.7015237476347236  0.2270296750175121  1.0000
  O   O77       1.0  0.5919009355082282  0.3229007708462958  0.7342251958837807  1.0000
  O   O78       1.0  0.5916519634834145  0.22705030872888432  0.7015300315731352  1.0000
  O   O79       1.0  0.40781334498019817  0.2666067838966199  0.6757070601848981  1.0000
  O   O80       1.0  0.40890020775536584  0.2969087499171436  0.772777259600595  1.0000
