data_image0
_chemical_formula_structural       Ag4H20C16O8
_chemical_formula_sum              "Ag4 H20 C16 O8"
_cell_length_a       6.601897552090186
_cell_length_b       7.703630072819324
_cell_length_c       8.816459804171927
_cell_angle_alpha    90.0012806657849
_cell_angle_beta     90.00102865053806
_cell_angle_gamma    103.56674195908283

_space_group_name_H-M_alt    "P 1"
_space_group_IT_number       1

loop_
  _space_group_symop_operation_xyz
  'x, y, z'

loop_
  _atom_site_type_symbol
  _atom_site_label
  _atom_site_symmetry_multiplicity
  _atom_site_fract_x
  _atom_site_fract_y
  _atom_site_fract_z
  _atom_site_occupancy
  Ag  Ag1       1.0  0.041696503281187326  0.513415675568723  0.1541113436555506  1.0000
  Ag  Ag2       1.0  0.5416842328513808  0.513402027276328  0.345895811613822  1.0000
  Ag  Ag3       1.0  0.9583231245434475  0.4865895833800026  0.8458904632636006  1.0000
  Ag  Ag4       1.0  0.4583155548373767  0.48659104639278183  0.654113934746519  1.0000
  H   H1        1.0  0.4690396674463741  0.8383539833717677  0.8177806213595105  1.0000
  H   H2        1.0  0.9690532522059524  0.8383500199294075  0.6822092047444103  1.0000
  H   H3        1.0  0.5309479696318816  0.1616389678583019  0.182215514011439  1.0000
  H   H4        1.0  0.030925398166218098  0.16163751381158423  0.3177835277863181  1.0000
  H   H5        1.0  0.30244324789253346  0.6904835960729944  0.9407525793988043  1.0000
  H   H6        1.0  0.8024499295281657  0.6904703109126514  0.5592377739786798  1.0000
  H   H7        1.0  0.6975558131894316  0.30952411962466203  0.059256032856666294  1.0000
  H   H8        1.0  0.19753618873298248  0.3095226250216855  0.440757227139656  1.0000
  H   H9        1.0  0.5150110877214472  0.8257360709342053  0.16327660886189935  1.0000
  H   H10       1.0  0.014995584488580951  0.8257193112570889  0.336713563977689  1.0000
  H   H11       1.0  0.48500550222965433  0.17426915718530722  0.836708184404543  1.0000
  H   H12       1.0  0.9850039810299122  0.17426710123445588  0.6632871083795351  1.0000
  H   H13       1.0  0.8472486327338302  0.05148563932434771  0.1262576318041155  1.0000
  H   H14       1.0  0.3472336047114055  0.0514847155822906  0.3737424492106598  1.0000
  H   H15       1.0  0.152756503414075  0.9485221373550844  0.8737430407985728  1.0000
  H   H16       1.0  0.6527555511839579  0.9485082509435186  0.6262548204129104  1.0000
  H   H17       1.0  0.79911543674185  0.05633466085714638  0.9288357277811131  1.0000
  H   H18       1.0  0.2991087823706947  0.0563414759905214  0.571166082052855  1.0000
  H   H19       1.0  0.20089564847791042  0.9436785027198978  0.071166079156562  1.0000
  H   H20       1.0  0.7008829367979741  0.9436555115796708  0.428830053385127  1.0000
  C   C1        1.0  0.4049912337943837  0.8257457116090735  0.9333910923796154  1.0000
  C   C2        1.0  0.9049952127890888  0.8257446201957918  0.5666066893867097  1.0000
  C   C3        1.0  0.59501624365906  0.17425942513835221  0.0666118486976259  1.0000
  C   C4        1.0  0.09499172807094418  0.1742456606205138  0.4333962514062364  1.0000
  C   C5        1.0  0.7138427111861673  0.7102487551758331  0.0269341353907038  1.0000
  C   C6        1.0  0.2138720405787922  0.7102461206447545  0.4730451635041675  1.0000
  C   C7        1.0  0.2861577422402063  0.2897643012579109  0.9730551948102004  1.0000
  C   C8        1.0  0.7861370820540184  0.2897537058483266  0.5269725226801896  1.0000
  C   C9        1.0  0.5817224876479229  0.8454374568182744  0.048368320751969  1.0000
  C   C10       1.0  0.08170014839636508  0.8454535949687596  0.4516231446813279  1.0000
  C   C11       1.0  0.41829378450899657  0.15454912357889583  0.9516232777838809  1.0000
  C   C12       1.0  0.9182901783358516  0.15453805177391194  0.5483866016006544  1.0000
  C   C13       1.0  0.7229642337777448  0.035566111494979694  0.0408561384028232  1.0000
  C   C14       1.0  0.22294685120286317  0.0355598994121991  0.4591374016677463  1.0000
  C   C15       1.0  0.27703621972226233  0.9644469450119147  0.9591377287665351  1.0000
  C   C16       1.0  0.7770424003716483  0.9644450537132414  0.5408473914096348  1.0000
  O   O1        1.0  0.7962191669255599  0.6632238531742087  0.1478886850604368  1.0000
  O   O2        1.0  0.29622362538700736  0.6632357527767282  0.3521237166968519  1.0000
  O   O3        1.0  0.20379099983208704  0.33677997873834903  0.8521063163276709  1.0000
  O   O4        1.0  0.703773695130991  0.3367652868682356  0.6479007748715091  1.0000
  O   O5        1.0  0.7407267910399824  0.6573851488056024  0.8935469550890076  1.0000
  O   O6        1.0  0.24073460328959573  0.6573919042304367  0.606462330420186  1.0000
  O   O7        1.0  0.2592957480198023  0.34262546624808726  0.10644124099665221  1.0000
  O   O8        1.0  0.7592568941322141  0.34259842258281037  0.39355081858330015  1.0000
