data_image0
_chemical_formula_structural       Zn4H28C40N12O16
_chemical_formula_sum              "Zn4 H28 C40 N12 O16"
_cell_length_a       8.944449293784391
_cell_length_b       10.475261751703027
_cell_length_c       13.052840473656289
_cell_angle_alpha    71.61005469254681
_cell_angle_beta     85.8289059749071
_cell_angle_gamma    91.0268613554613

_space_group_name_H-M_alt    "P 1"
_space_group_IT_number       1

loop_
  _space_group_symop_operation_xyz
  'x, y, z'

loop_
  _atom_site_type_symbol
  _atom_site_label
  _atom_site_symmetry_multiplicity
  _atom_site_fract_x
  _atom_site_fract_y
  _atom_site_fract_z
  _atom_site_occupancy
  Zn  Zn1       1.0  0.2230055226705545  0.5739903653332304  0.5145548536951027  1.0000
  Zn  Zn2       1.0  0.7769949892289246  0.42601088177727303  0.48544418700499403  1.0000
  Zn  Zn3       1.0  0.31461440234220117  0.046387052453631776  0.6965366864638441  1.0000
  Zn  Zn4       1.0  0.6853827518384106  0.9536141638551423  0.303464068296613  1.0000
  H   H1        1.0  0.21724120596655175  0.21113735897137084  0.8024019667705461  1.0000
  H   H2        1.0  0.7827593156851052  0.7888638875038224  0.1975993719448682  1.0000
  H   H3        1.0  0.22017567136958144  0.2805963366750531  0.672396159909141  1.0000
  H   H4        1.0  0.7798237660516207  0.7194059065677577  0.32760498289153633  1.0000
  H   H5        1.0  0.048495306188392796  0.9260237587241845  0.6829643766556688  1.0000
  H   H6        1.0  0.951503901673412  0.07397244358009658  0.3170367737235296  1.0000
  H   H7        1.0  0.19417930269073472  0.8301996249901004  0.6828254270014755  1.0000
  H   H8        1.0  0.8058209959029766  0.16979558012302218  0.3171774513026833  1.0000
  H   H9        1.0  0.5291976029374794  0.3931270980373895  0.13740837358168534  1.0000
  H   H10       1.0  0.47080395926684554  0.6068721452000503  0.8625918856363841  1.0000
  H   H11       1.0  0.28401306020059286  0.4584044283772002  0.05822340059389572  1.0000
  H   H12       1.0  0.7159874145225584  0.5415958118396205  0.9417758967043215  1.0000
  H   H13       1.0  0.05453915447530729  0.4508469540650993  0.1827986986463231  1.0000
  H   H14       1.0  0.945462370552697  0.5491512822786645  0.8172018171698668  1.0000
  H   H15       1.0  0.48400113408283113  0.5988657180185228  0.36711711128756275  1.0000
  H   H16       1.0  0.5160017419113457  0.40113856938982195  0.6328833362667228  1.0000
  H   H17       1.0  0.5554902690786107  0.6999871733263703  0.16738291948370693  1.0000
  H   H18       1.0  0.4445124888851382  0.3000140938244868  0.8326167658547234  1.0000
  H   H19       1.0  0.11170148823244122  0.8527069733846774  0.13256983559789856  1.0000
  H   H20       1.0  0.888303583646774  0.1472963280174184  0.8674284491724151  1.0000
  H   H21       1.0  0.0560403735046435  0.7443586597064068  0.3325630384878836  1.0000
  H   H22       1.0  0.9439624183847002  0.25564361454989637  0.6674356242473254  1.0000
  H   H23       1.0  0.8071831501042225  0.8628645293746185  0.8575282874308531  1.0000
  H   H24       1.0  0.19281059942901627  0.13713564987406807  0.14247213997277444  1.0000
  H   H25       1.0  0.8775567357677969  0.029706365874126592  0.5217032435416017  1.0000
  H   H26       1.0  0.12244150264326235  0.9702938536670372  0.47829770713359937  1.0000
  H   H27       1.0  0.6061995307626588  0.08754356723251527  0.5124726379769557  1.0000
  H   H28       1.0  0.3937999001570915  0.9124586764338287  0.48752697281350527  1.0000
  C   C1        1.0  0.1697543123384335  0.37581657292830767  0.32733953522890863  1.0000
  C   C2        1.0  0.8302449261982401  0.6241806366931968  0.6726598265419526  1.0000
  C   C3        1.0  0.3073687657291158  0.340501756354783  0.37155994070364795  1.0000
  C   C4        1.0  0.6926305908379858  0.6594984735242092  0.6284401832830613  1.0000
  C   C5        1.0  0.43693699964436655  0.3500403587663996  0.30132997319955024  1.0000
  C   C6        1.0  0.5630634039768622  0.6499578674512987  0.6986706033000234  1.0000
  C   C7        1.0  0.4268967434276475  0.3889478964777595  0.18929891582798322  1.0000
  C   C8        1.0  0.5731037312955038  0.611052343739061  0.810700381470234  1.0000
  C   C9        1.0  0.29021473080019417  0.42535185271761106  0.14578207557911335  1.0000
  C   C10       1.0  0.7097869736079757  0.57465141851808  0.8542156252362434  1.0000
  C   C11       1.0  0.16239796263426595  0.4210570730923919  0.21476886637177733  1.0000
  C   C12       1.0  0.8376024377362367  0.5789411533370765  0.7852309441226881  1.0000
  C   C13       1.0  0.030460224563242398  0.3652240365803293  0.400953395703141  1.0000
  C   C14       1.0  0.9695423070918349  0.6347711894202276  0.5990470632189258  1.0000
  C   C15       1.0  0.31146887282353214  0.29246330399187304  0.49303829560663825  1.0000
  C   C16       1.0  0.6885292912348786  0.7075349017619388  0.5069631682648109  1.0000
  C   C17       1.0  0.5899179592306749  0.33619820311736237  0.3428125830251645  1.0000
  C   C18       1.0  0.4100857649331003  0.6637990470083821  0.657186536012162  1.0000
  C   C19       1.0  0.4053098526695747  0.6559033994259095  0.3119887695606778  1.0000
  C   C20       1.0  0.5946940332024012  0.34409787742746534  0.6880123871045855  1.0000
  C   C21       1.0  0.44472088790156755  0.7126518619387667  0.2022801952377691  1.0000
  C   C22       1.0  0.5552806743027644  0.28734738129866605  0.797720063980293  1.0000
  C   C23       1.0  0.339421767105918  0.7849495407531604  0.13420605553820059  1.0000
  C   C24       1.0  0.6605809100037235  0.2150497130338777  0.8657926109862688  1.0000
  C   C25       1.0  0.19667464497504028  0.7968257833457669  0.18195626991668945  1.0000
  C   C26       1.0  0.8033293119988585  0.20317750750673716  0.8180436075472244  1.0000
  C   C27       1.0  0.16475699663790516  0.736853412098135  0.2924979233216052  1.0000
  C   C28       1.0  0.8352457613258434  0.2631478550527148  0.7075017620168325  1.0000
  C   C29       1.0  0.3794412430197696  0.845325556787955  0.018876637246833635  1.0000
  C   C30       1.0  0.6205615925473538  0.15467772393848378  0.9811233009004641  1.0000
  C   C31       1.0  0.5016394050960569  0.9081759887192644  0.8674622188481395  1.0000
  C   C32       1.0  0.4983589076676508  0.09182624460925132  0.13253821863081336  1.0000
  C   C33       1.0  0.610410615930604  0.938895814771328  0.7744303538908073  1.0000
  C   C34       1.0  0.3895854540195529  0.06110639830506409  0.22557020495491295  1.0000
  C   C35       1.0  0.7628036072025351  0.9106379645324976  0.7796065279466478  1.0000
  C   C36       1.0  0.2371923851442475  0.08936223496831269  0.22039377809021238  1.0000
  C   C37       1.0  0.802020754483479  0.003605068587972899  0.5949384107057584  1.0000
  C   C38       1.0  0.19797636252080514  0.9963951408271254  0.40506260065282634  1.0000
  C   C39       1.0  0.6510001538881267  0.0348838529898359  0.5891177920089847  1.0000
  C   C40       1.0  0.3489970374688056  0.9651183702126146  0.41088270615335193  1.0000
  N   N1        1.0  0.2669482472912534  0.6668660105487801  0.35661239999260635  1.0000
  N   N2        1.0  0.7330545106724954  0.3331352566020768  0.6433872853458242  1.0000
  N   N3        1.0  0.5184818335800685  0.8385955761739794  0.9710844908792283  1.0000
  N   N4        1.0  0.4815187963498315  0.1614086911940191  0.02891531203671601  1.0000
  N   N5        1.0  0.36129427698587335  0.9545382899374956  0.8525570193330412  1.0000
  N   N6        1.0  0.638702920872518  0.045463932841421695  0.14744501083951184  1.0000
  N   N7        1.0  0.2815675904909369  0.9148929888276666  0.949156504961451  1.0000
  N   N8        1.0  0.7184318906080519  0.08511026088527976  0.05084591325131532  1.0000
  N   N9        1.0  0.8574327027104118  0.9425869197584476  0.6902290247682146  1.0000
  N   N10       1.0  0.1425632896363709  0.057413279742362995  0.3097712812686453  1.0000
  N   N11       1.0  0.5557333731641235  0.002445209941065199  0.6779381779848921  1.0000
  N   N12       1.0  0.4442649767759049  0.9975580302811339  0.3220620028959401  1.0000
  O   O1        1.0  0.9517537588762576  0.47208448533365305  0.3794402865468103  1.0000
  O   O2        1.0  0.04825107227306089  0.5279117665420897  0.6205643904410183  1.0000
  O   O3        1.0  0.9971438048354171  0.2596911473557952  0.4779258010015256  1.0000
  O   O4        1.0  0.0028541877625941027  0.7403030323056966  0.5220713272266622  1.0000
  O   O5        1.0  0.27468225798550355  0.3725212837572797  0.5469978687340318  1.0000
  O   O6        1.0  0.725315973924097  0.6274789362074243  0.453001549930953  1.0000
  O   O7        1.0  0.3447827928813751  0.17176202108265667  0.5370018548880894  1.0000
  O   O8        1.0  0.6552097204653861  0.8282351275707142  0.46299863698818206  1.0000
  O   O9        1.0  0.597377736904498  0.37133024401546066  0.42876343587237653  1.0000
  O   O10       1.0  0.40262482867617416  0.6286659890905498  0.5712360004464614  1.0000
  O   O11       1.0  0.6959081161911198  0.29968524953548586  0.29185024281543553  1.0000
  O   O12       1.0  0.3040910284885355  0.7003099475692806  0.7081450361210245  1.0000
  O   O13       1.0  0.1907764804847289  0.19721262415938406  0.7356503306980289  1.0000
  O   O14       1.0  0.8092218727060326  0.8027906158510375  0.2643506161879118  1.0000
  O   O15       1.0  0.16082125599545088  0.9245192391376594  0.6659715286781636  1.0000
  O   O16       1.0  0.8391790830253142  0.075476972657377  0.33403185903298305  1.0000
