data_image0
_chemical_formula_structural       Cd2H28C38N20
_chemical_formula_sum              "Cd2 H28 C38 N20"
_cell_length_a       7.79434724182616
_cell_length_b       9.127754740102873
_cell_length_c       15.238718986358212
_cell_angle_alpha    77.2152448044554
_cell_angle_beta     90.10589856905435
_cell_angle_gamma    66.69870943595112

_space_group_name_H-M_alt    "P 1"
_space_group_IT_number       1

loop_
  _space_group_symop_operation_xyz
  'x, y, z'

loop_
  _atom_site_type_symbol
  _atom_site_label
  _atom_site_symmetry_multiplicity
  _atom_site_fract_x
  _atom_site_fract_y
  _atom_site_fract_z
  _atom_site_occupancy
  Cd  Cd1       1.0  0.6965248513237084  0.3379149840507554  0.29646305851550653  1.0000
  Cd  Cd2       1.0  0.3034701926164799  0.662085342573896  0.7035376708866963  1.0000
  H   H1        1.0  0.13839215566888197  0.9877227855639603  0.0776227811173698  1.0000
  H   H2        1.0  0.8616112856444572  0.012278783986609206  0.9223771172430093  1.0000
  H   H3        1.0  0.0794326869192331  0.3839257203392777  0.16639029000408806  1.0000
  H   H4        1.0  0.9205676112211022  0.6160770787926496  0.8336087935673575  1.0000
  H   H5        1.0  0.947387488575707  0.5389663185661462  0.06961583218513571  1.0000
  H   H6        1.0  0.05260768745647939  0.4610364713937615  0.9303839152608333  1.0000
  H   H7        1.0  0.018056268119920536  0.280710945500097  0.03305545485881821  1.0000
  H   H8        1.0  0.9819427617844524  0.7192918456668949  0.9669449438205504  1.0000
  H   H9        1.0  0.7759380830342621  0.363740426307338  0.04697234107188559  1.0000
  H   H10       1.0  0.22406265459780889  0.6362586801836231  0.9530278862054474  1.0000
  H   H11       1.0  0.802171329751374  0.9337032429832065  0.3863818814881128  1.0000
  H   H12       1.0  0.1978305440246757  0.06629340813742601  0.6136180126375167  1.0000
  H   H13       1.0  0.943470173819719  0.6279306464768978  0.4139933319589417  1.0000
  H   H14       1.0  0.056532382561634544  0.37206724839658994  0.5860037720070393  1.0000
  H   H15       1.0  0.14605373446697456  0.4896063372321607  0.3058827797695542  1.0000
  H   H16       1.0  0.8539469610242846  0.5103927887054172  0.6941135076016138  1.0000
  H   H17       1.0  0.21577385577683814  0.6482642384110024  0.1677963715997421  1.0000
  H   H18       1.0  0.7842264212930985  0.3517385704442334  0.8322007420186212  1.0000
  H   H19       1.0  0.7500247988635707  0.7474710855629855  0.12323634432090808  1.0000
  H   H20       1.0  0.24997724212180822  0.25252801268738523  0.8767658511036274  1.0000
  H   H21       1.0  0.5338190039275543  0.9765896162838673  0.1753170349489821  1.0000
  H   H22       1.0  0.4661767507118242  0.0234119411292255  0.82468353089768  1.0000
  H   H23       1.0  0.3237185863263505  0.08672234376007279  0.29130588619264597  1.0000
  H   H24       1.0  0.6762764505903792  0.9132779861056832  0.7086941865585246  1.0000
  H   H25       1.0  0.269269682900173  0.8841729781541405  0.4185888737591483  1.0000
  H   H26       1.0  0.7307253540165489  0.11582735171161572  0.581411198992015  1.0000
  H   H27       1.0  0.42048561348075  0.5854873334719246  0.42101071358931824  1.0000
  H   H28       1.0  0.579510719765814  0.4145129913943534  0.5789906706580297  1.0000
  C   C1        1.0  0.9434266806140672  0.43936381321669427  0.124547026372241  1.0000
  C   C2        1.0  0.05657049542367079  0.5606402057732823  0.8754532123633467  1.0000
  C   C3        1.0  0.917338670450313  0.3098649834757695  0.08354919041012471  1.0000
  C   C4        1.0  0.0826609099673731  0.6901365881088212  0.9164494000658294  1.0000
  C   C5        1.0  0.9462061800760039  0.15182938004290494  0.1485800064618772  1.0000
  C   C6        1.0  0.05379399299580688  0.8481709525126607  0.8514207157168202  1.0000
  C   C7        1.0  0.04328161993881698  0.8819284023282493  0.19869253052306138  1.0000
  C   C8        1.0  0.9567172427562196  0.11807194170899753  0.8013055668574014  1.0000
  C   C9        1.0  0.9283677011077739  0.9631137450170544  0.2601219105712858  1.0000
  C   C10       1.0  0.07163045088807961  0.03688536823175071  0.7398763503647174  1.0000
  C   C11       1.0  0.8916122370835494  0.872891817297294  0.339062344794499  1.0000
  C   C12       1.0  0.10838790087092323  0.12710853146379011  0.6609350941290658  1.0000
  C   C13       1.0  0.9713341489622919  0.7021843392920389  0.3538919494770383  1.0000
  C   C14       1.0  0.028665271269531355  0.29781478192170857  0.646104996351035  1.0000
  C   C15       1.0  0.08526027044558042  0.6232273030375383  0.29226643482733994  1.0000
  C   C16       1.0  0.9147417143520542  0.3767718211416665  0.7077305073889804  1.0000
  C   C17       1.0  0.12379049593951658  0.7113335923098206  0.2135403807973688  1.0000
  C   C18       1.0  0.8762092025232276  0.2886704490922299  0.7864559144203085  1.0000
  C   C19       1.0  0.7191966705336483  0.6585172198507152  0.1750739442027083  1.0000
  C   C20       1.0  0.280803509561636  0.34148310946374505  0.8249274346270141  1.0000
  C   C21       1.0  0.5862874002294802  0.7259359751758367  0.2387588968858907  1.0000
  C   C22       1.0  0.4137116296748858  0.274066815991148  0.761241501793485  1.0000
  C   C23       1.0  0.5044141115953663  0.8951771822534627  0.23110611272161208  1.0000
  C   C24       1.0  0.4955847791935426  0.10482314881937073  0.7688946112629581  1.0000
  C   C25       1.0  0.3882434876800857  0.9550789037508666  0.2958409501562898  1.0000
  C   C26       1.0  0.611753549242195  0.04492265514495129  0.7041596138844995  1.0000
  C   C27       1.0  0.3573730271745603  0.8441790080240921  0.3659171293222273  1.0000
  C   C28       1.0  0.6426227204413449  0.15582255263010586  0.6340827798734099  1.0000
  C   C29       1.0  0.44305296454745496  0.6764625701812578  0.3681209845164944  1.0000
  C   C30       1.0  0.5569459332649199  0.3235377576504775  0.6318803961191009  1.0000
  C   C31       1.0  0.44187795462325163  0.32229110290148805  0.1232926007927233  1.0000
  C   C32       1.0  0.5581350423525605  0.6776981812812438  0.8767082529956198  1.0000
  C   C33       1.0  0.568136600136178  0.163738810311429  0.0234844500943794  1.0000
  C   C34       1.0  0.4318778112145336  0.8362529386892847  0.9765154199318643  1.0000
  C   C35       1.0  0.11026398501024909  0.23135088454498745  0.4264639148674547  1.0000
  C   C36       1.0  0.8897298946920955  0.7686519104143984  0.573534521082337  1.0000
  C   C37       1.0  0.40977927410020937  0.22437820157186655  0.42963825720644894  1.0000
  C   C38       1.0  0.590211950010193  0.7756331708403013  0.5703649545490778  1.0000
  N   N1        1.0  0.7987453396478515  0.5035616578893921  0.18212193763226037  1.0000
  N   N2        1.0  0.20125240797360527  0.49644113179486754  0.8178784628529813  1.0000
  N   N3        1.0  0.8696895558073906  0.1318720702178666  0.22657226461039676  1.0000
  N   N4        1.0  0.13030989251830508  0.86812703803146  0.7734273078217839  1.0000
  N   N5        1.0  0.0519787928306528  0.0050125554177852995  0.1300624897573925  1.0000
  N   N6        1.0  0.948023937783503  0.994987783344343  0.869937572158527  1.0000
  N   N7        1.0  0.5545143669767326  0.6187268469482133  0.3062235530844363  1.0000
  N   N8        1.0  0.44548395925191625  0.3812747101892315  0.6937776658014982  1.0000
  N   N9        1.0  0.43648205765588693  0.370111975753197  0.18979210314668657  1.0000
  N   N10       1.0  0.5635271065181444  0.6298772974991423  0.8102100693613397  1.0000
  N   N11       1.0  0.4305018134490838  0.27930238273683716  0.04861049305694821  1.0000
  N   N12       1.0  0.5695120333413753  0.720690592328488  0.9513898718706599  1.0000
  N   N13       1.0  0.6845787069502689  0.06030471859305922  0.9957520082463134  1.0000
  N   N14       1.0  0.31543500774819205  0.9396857931370094  0.004249338637521294  1.0000
  N   N15       1.0  0.951934583687823  0.2688550416328681  0.4016364166674507  1.0000
  N   N16       1.0  0.0480649837578682  0.7311354732338131  0.5983610101748553  1.0000
  N   N17       1.0  0.2811344159057469  0.17906151143163387  0.4618458922296469  1.0000
  N   N18       1.0  0.7188549402910878  0.8209510952857288  0.5381558462800413  1.0000
  N   N19       1.0  0.5387084697475969  0.25616434103098845  0.40791617971773775  1.0000
  N   N20       1.0  0.4612805101687272  0.7438519291574085  0.5920903249453032  1.0000
