data_image0
_chemical_formula_structural       Zn6H42C64O36
_chemical_formula_sum              "Zn6 H42 C64 O36"
_cell_length_a       18.50176421046633
_cell_length_b       18.558793960866318
_cell_length_c       18.670645866468153
_cell_angle_alpha    109.25662469515984
_cell_angle_beta     109.48363403239922
_cell_angle_gamma    109.32957528216194

_space_group_name_H-M_alt    "P 1"
_space_group_IT_number       1

loop_
  _space_group_symop_operation_xyz
  'x, y, z'

loop_
  _atom_site_type_symbol
  _atom_site_label
  _atom_site_symmetry_multiplicity
  _atom_site_fract_x
  _atom_site_fract_y
  _atom_site_fract_z
  _atom_site_occupancy
  Zn  Zn1       1.0  0.9291121288784582  0.4911302588094627  0.9341646993969592  1.0000
  Zn  Zn2       1.0  0.053826617334081575  0.48700737364167407  0.05798816888933088  1.0000
  Zn  Zn3       1.0  0.4958501557594063  0.06223564892903249  0.07044864964642983  1.0000
  Zn  Zn4       1.0  0.49044519581286744  0.9323408540324248  0.9434549024635716  1.0000
  Zn  Zn5       1.0  0.9447047257989141  0.9381823915503914  0.5019881097009603  1.0000
  Zn  Zn6       1.0  0.0696319926144326  0.06368196346725337  0.49910686718448016  1.0000
  H   H1        1.0  0.3332059426147397  0.681500279348036  0.974616549398519  1.0000
  H   H2        1.0  0.8750652978065787  0.16039204440166802  0.4151586561919345  1.0000
  H   H3        1.0  0.7459580115964711  0.16076889808230277  0.31365900569917937  1.0000
  H   H4        1.0  0.2935232514621757  0.913581601754714  0.7513263890461205  1.0000
  H   H5        1.0  0.3470564198100591  0.1667289983039311  0.9268988338182711  1.0000
  H   H6        1.0  0.30655674407587685  0.8753436411495839  0.11992762137926133  1.0000
  H   H7        1.0  0.2836032482392312  0.7105390788316368  0.10651723620910043  1.0000
  H   H8        1.0  0.9914955304256166  0.23764653436592906  0.6326192216308614  1.0000
  H   H9        1.0  0.7763972889421709  0.36292596656148385  0.1865968775291336  1.0000
  H   H10       1.0  0.6707903965634117  0.2727355080898164  0.14303114627331592  1.0000
  H   H11       1.0  0.7597874905376684  0.30578837943252063  0.24474004315665338  1.0000
  H   H12       1.0  0.00020642766573080481  0.358094646840371  0.7534264139154276  1.0000
  H   H13       1.0  0.7354597798303857  0.17144205130796317  0.12796702939106547  1.0000
  H   H14       1.0  0.838981792391067  0.2613213083940522  0.1679669424801275  1.0000
  H   H15       1.0  0.5964836825586133  0.15887841765099608  0.6757352690546767  1.0000
  H   H16       1.0  0.18942138910608014  0.908561973287206  0.27182713207350423  1.0000
  H   H17       1.0  0.25097636301389054  0.9050028439584352  0.36541420167362293  1.0000
  H   H18       1.0  0.2763821329717615  0.8851662638033133  0.2796883178966141  1.0000
  H   H19       1.0  0.19226417249594607  0.7429474798082861  0.2715237920548289  1.0000
  H   H20       1.0  0.13608116583172603  0.7470495133479317  0.17804194367157317  1.0000
  H   H21       1.0  0.6687059842267756  0.7802891937582997  0.09318416904180536  1.0000
  H   H22       1.0  0.747882230739009  0.8403874807660542  0.07186084574767178  1.0000
  H   H23       1.0  0.8587510763859356  0.3443644969345953  0.09129611715029273  1.0000
  H   H24       1.0  0.7563952713751119  0.7590750116987406  0.09858707539031993  1.0000
  H   H25       1.0  0.8667879078503588  0.9042921455280747  0.22884018417663293  1.0000
  H   H26       1.0  0.7865299675028937  0.8485247022772171  0.2494361917432143  1.0000
  H   H27       1.0  0.1495716499577213  0.7789055484769348  0.5370518997464658  1.0000
  H   H28       1.0  0.28683487969441757  0.30622670111134187  0.8958076065353354  1.0000
  H   H29       1.0  0.058211890051957475  0.6359431255788905  0.7434394216500452  1.0000
  H   H30       1.0  0.03309024892362085  0.7142960106350882  0.7984189718964743  1.0000
  H   H31       1.0  0.05761689849921938  0.7182313689977063  0.7150886939717581  1.0000
  H   H32       1.0  0.18800318936573734  0.8355519835850627  0.8631229610947955  1.0000
  H   H33       1.0  0.21364695678301607  0.758674471329982  0.8080814894784467  1.0000
  H   H34       1.0  0.5936113722556655  0.08567705157788909  0.8220152464689932  1.0000
  H   H35       1.0  0.059850877869621275  0.8235323865769429  0.06470337571610663  1.0000
  H   H36       1.0  0.9501539426744757  0.21274793250999113  0.9826898696048474  1.0000
  H   H37       1.0  0.946783736969465  0.9876804882773128  0.8003794164717704  1.0000
  H   H38       1.0  0.12046305109795702  0.8816201211988215  0.3578477065179726  1.0000
  H   H39       1.0  0.8654307667154695  0.6853007815640807  0.28360785222063356  1.0000
  H   H40       1.0  0.8745799313602163  0.5735869300713006  0.17223869359741426  1.0000
  H   H41       1.0  0.667045206367156  0.9067607742253257  0.11524950333870966  1.0000
  H   H42       1.0  0.15169137915263045  0.597724871867072  0.8462145320923186  1.0000
  C   C1        1.0  0.014844472205439304  0.3712101163759201  0.9031244833534304  1.0000
  C   C2        1.0  0.005962909157439392  0.2957226814196757  0.8321735313724903  1.0000
  C   C3        1.0  0.79926368114792  0.28753413035037306  0.03255343464663687  1.0000
  C   C4        1.0  0.08913119788080337  0.6104784905226877  0.9796648864948951  1.0000
  C   C5        1.0  0.743486070169041  0.22206176727424068  0.04024570826652503  1.0000
  C   C6        1.0  0.6683336676488735  0.14889010538222175  0.9622941404325476  1.0000
  C   C7        1.0  0.6513920187770594  0.1434782070012801  0.8812816005402698  1.0000
  C   C8        1.0  0.706881618465431  0.21099177907127847  0.8751550035016536  1.0000
  C   C9        1.0  0.7820539335420023  0.28424098058186326  0.9524139834296436  1.0000
  C   C10       1.0  0.07665658911130188  0.7514599362893506  0.25860605646872165  1.0000
  C   C11       1.0  0.06804013326632938  0.8133538679261959  0.3170818475784927  1.0000
  C   C12       1.0  0.27352813559473077  0.8130150511174958  0.05960766759205422  1.0000
  C   C13       1.0  0.9928822305717163  0.7900169713521448  0.3264471897889721  1.0000
  C   C14       1.0  0.9236235808986777  0.7030043791599638  0.2759492693558698  1.0000
  C   C15       1.0  0.9294064327032602  0.6409094680241195  0.21471960590353223  1.0000
  C   C16       1.0  0.007329243525020921  0.5973069937879385  0.1370303381409314  1.0000
  C   C17       1.0  0.005143667204400458  0.6645439693190552  0.20653498464234576  1.0000
  C   C18       1.0  0.6215671466288342  0.028985750613031797  0.1446960875740615  1.0000
  C   C19       1.0  0.37486525199857823  0.8633636417793227  0.9910034442843102  1.0000
  C   C20       1.0  0.3834106383301972  0.03231982082901649  0.918940078467891  1.0000
  C   C21       1.0  0.6024847422326262  0.07968442917210442  0.9662639381125832  1.0000
  C   C22       1.0  0.911545191264828  0.027578292029318194  0.3869609817440675  1.0000
  C   C23       1.0  0.26105544342013337  0.722756474255668  0.05197264315115283  1.0000
  C   C24       1.0  0.983188808239511  0.08980848871406977  0.6198896652970022  1.0000
  C   C25       1.0  0.1536699657970217  0.041806417986933304  0.6256202525130732  1.0000
  C   C26       1.0  0.9879686290798732  0.8597712207388853  0.38952191972580863  1.0000
  C   C27       1.0  0.7127859485102517  0.9609298135403531  0.18185270576510248  1.0000
  C   C28       1.0  0.8478937637366711  0.361439596625864  0.9570973877741552  1.0000
  C   C29       1.0  0.7821605539602103  0.9578295396957016  0.23793934093733052  1.0000
  C   C30       1.0  0.8400167222596266  0.03118435842873169  0.32285106079236664  1.0000
  C   C31       1.0  0.8283488090681885  0.1043539709880648  0.34945896143961624  1.0000
  C   C32       1.0  0.7567759087519191  0.10492298609972289  0.29321038135309146  1.0000
  C   C33       1.0  0.6985803865616731  0.032636341201438795  0.20887011021139307  1.0000
  C   C34       1.0  0.1622799219256876  0.6772677079694843  0.9813687250535494  1.0000
  C   C35       1.0  0.2843269952492235  0.9703278888411687  0.7615262035522649  1.0000
  C   C36       1.0  0.23232515344959379  0.9739059450603307  0.6905474672609202  1.0000
  C   C37       1.0  0.22041853553044888  0.047536459495553594  0.7038031690819581  1.0000
  C   C38       1.0  0.26229030423308325  0.1171950585003785  0.7897628061839512  1.0000
  C   C39       1.0  0.31511755701502137  0.11287466303312498  0.8606407902648601  1.0000
  C   C40       1.0  0.18842805917593344  0.6601451991516567  0.9074167237619976  1.0000
  C   C41       1.0  0.326140423136735  0.03965346569363959  0.8467635068115983  1.0000
  C   C42       1.0  0.2872620949573559  0.7053606816629027  0.9787231277430808  1.0000
  C   C43       1.0  0.3012003481463381  0.796823294550066  0.9883534631899951  1.0000
  C   C44       1.0  0.20078674804051388  0.75046048773342  0.913980106023857  1.0000
  C   C45       1.0  0.004296153680264984  0.22194990723112795  0.8387086051576348  1.0000
  C   C46       1.0  0.17373188035551826  0.7674281042628976  0.9867999187808181  1.0000
  C   C47       1.0  0.7672010548798838  0.23446034009971575  0.13071514690646774  1.0000
  C   C48       1.0  0.7420344350437063  0.2977921078405786  0.17923969737061887  1.0000
  C   C49       1.0  0.6896882462201575  0.19983202008318554  0.7871090929493364  1.0000
  C   C50       1.0  0.15777128686479358  0.775811733520271  0.2483171785315505  1.0000
  C   C51       1.0  0.22200740110118028  0.8740775371814563  0.29405392451533163  1.0000
  C   C52       1.0  0.7965946572313812  0.8797657241311612  0.21003173270975836  1.0000
  C   C53       1.0  0.7391626403819344  0.8113271571545582  0.11308143243363107  1.0000
  C   C54       1.0  0.1920238415951445  0.9004925263441237  0.600406584742025  1.0000
  C   C55       1.0  0.24708261520630256  0.19370431652608028  0.8067189907608069  1.0000
  C   C56       1.0  0.9973336772245106  0.15357494536099384  0.7701552146746665  1.0000
  C   C57       1.0  0.17269763526055454  0.7666196235536372  0.8382702194485816  1.0000
  C   C58       1.0  0.07472504760373508  0.7051893828610714  0.7699647049165108  1.0000
  C   C59       1.0  0.11519008804177838  0.8037737525514002  0.9966664136077767  1.0000
  C   C60       1.0  0.01006437255747269  0.21504051386217068  0.9180945792189377  1.0000
  C   C61       1.0  0.0024866742356977026  0.0778746344608621  0.7798386971422036  1.0000
  C   C62       1.0  0.99211457830782  0.160026573975891  0.6959410608705738  1.0000
  C   C63       1.0  0.9944280632089005  0.2340488410279917  0.6905018715645355  1.0000
  C   C64       1.0  4.4112670373407644e-05  0.300841665414346  0.7574981495967991  1.0000
  O   O1        1.0  0.971024945440675  0.406855515004679  0.8790887626042618  1.0000
  O   O2        1.0  0.9921593800007785  0.08018407270738237  0.41285042860752696  1.0000
  O   O3        1.0  0.9321532984773808  0.0091544241592629  0.5952534476915615  1.0000
  O   O4        1.0  0.06744845813580014  0.3961372717272553  0.9829700679599827  1.0000
  O   O5        1.0  0.024461763165106693  0.11491338393842908  0.5831107582221549  1.0000
  O   O6        1.0  0.07527095100451228  0.9845986025119516  0.5965312242246841  1.0000
  O   O7        1.0  0.17842001349374925  0.09001370811088087  0.5934071128386693  1.0000
  O   O8        1.0  0.9342971854175486  0.8351926209039745  0.4176708575200648  1.0000
  O   O9        1.0  0.035976874667682124  0.9388981964486618  0.4112972905397356  1.0000
  O   O10       1.0  0.008857440633612206  0.5852055203250757  0.9265080262735168  1.0000
  O   O11       1.0  0.11263671088733669  0.5819739217015395  0.0315604554977326  1.0000
  O   O12       1.0  0.5842622078499886  0.9696505198841974  0.06537300645406653  1.0000
  O   O13       1.0  0.9552302138037516  0.5726921497859792  0.05856774609492259  1.0000
  O   O14       1.0  0.06174311753246535  0.5700144214498905  0.16138489297570394  1.0000
  O   O15       1.0  0.8222655613855069  0.3931253709184617  0.9083146561838762  1.0000
  O   O16       1.0  0.9272938700868424  0.39317965389448517  0.014485044433953915  1.0000
  O   O17       1.0  0.5967162698751736  0.0848998500371039  0.17183915973417638  1.0000
  O   O18       1.0  0.7451853012988251  0.21569600617625181  0.7646620383803153  1.0000
  O   O19       1.0  0.602056864695939  0.16615429899246686  0.732092249830167  1.0000
  O   O20       1.0  0.17766518833193598  0.9079477447147253  0.5352362326584198  1.0000
  O   O21       1.0  0.17405064095872538  0.8220294018159178  0.5981613627221164  1.0000
  O   O22       1.0  0.19069366248115213  0.19778256983403245  0.753734296570457  1.0000
  O   O23       1.0  0.405818122833665  0.9436056587332473  0.04494762054898156  1.0000
  O   O24       1.0  0.3042744504502508  0.2611739584603256  0.8906100886533893  1.0000
  O   O25       1.0  0.08725960780378729  0.8376258444018276  0.9565376071062702  1.0000
  O   O26       1.0  0.09751237841769715  0.7974306188649152  0.06064622186328702  1.0000
  O   O27       1.0  0.06805076096220827  0.20814953375626286  0.9656218722817443  1.0000
  O   O28       1.0  0.9409395770414832  0.2147549551823289  0.9287033107616198  1.0000
  O   O29       1.0  0.0609475053370119  0.06089845134789578  0.7813859954235767  1.0000
  O   O30       1.0  0.9353637682457928  0.032042124564462406  0.7893904897637755  1.0000
  O   O31       1.0  0.4005793314321622  0.8345700368179576  0.9368211416074743  1.0000
  O   O32       1.0  0.41383982569228545  0.088365151370283  0.999010928901811  1.0000
  O   O33       1.0  0.3992473313317007  0.9694578413246048  0.8953597785223124  1.0000
  O   O34       1.0  0.5801713017413802  0.10731362205676477  0.02238299580356791  1.0000
  O   O35       1.0  0.5716797872299819  0.9979438413276823  0.9134729655991478  1.0000
  O   O36       1.0  0.8860163870944218  0.9717847495497549  0.41063311547903664  1.0000
