data_image0
_chemical_formula_structural       Zn8H48C72N8O26
_chemical_formula_sum              "Zn8 H48 C72 N8 O26"
_cell_length_a       18.375620826888042
_cell_length_b       18.3756282469054
_cell_length_c       25.224934650942675
_cell_angle_alpha    68.6425517706885
_cell_angle_beta     68.64267056095888
_cell_angle_gamma    90.00708456232515

_space_group_name_H-M_alt    "P 1"
_space_group_IT_number       1

loop_
  _space_group_symop_operation_xyz
  'x, y, z'

loop_
  _atom_site_type_symbol
  _atom_site_label
  _atom_site_symmetry_multiplicity
  _atom_site_fract_x
  _atom_site_fract_y
  _atom_site_fract_z
  _atom_site_occupancy
  Zn  Zn1       1.0  0.2272447204394439  0.6370415439941367  0.5528451629178832  1.0000
  Zn  Zn2       1.0  0.7800208657200187  0.3629896639569309  0.4471601442729138  1.0000
  Zn  Zn3       1.0  0.6370130968432264  0.21997941472371002  0.5528393157713865  1.0000
  Zn  Zn4       1.0  0.36295394945260273  0.7727527078132255  0.44715819005854485  1.0000
  Zn  Zn5       1.0  0.2199209152665489  0.8101817526866739  0.5528350086750748  1.0000
  Zn  Zn6       1.0  0.77282419057979  0.18982999984415025  0.4471639201061635  1.0000
  Zn  Zn7       1.0  0.8101684252257968  0.22717597399407194  0.552833844742402  1.0000
  Zn  Zn8       1.0  0.1898190157717394  0.7800770150880894  0.4471668903927366  1.0000
  H   H1        1.0  0.9586041647173289  0.44852854615956506  0.2579553009635802  1.0000
  H   H2        1.0  0.21905405186596738  0.5544335673361971  0.7419847064907686  1.0000
  H   H3        1.0  0.4455685080784235  0.7809503937423584  0.25801393478337087  1.0000
  H   H4        1.0  0.5514734205836402  0.041399173800371426  0.742045648630466  1.0000
  H   H5        1.0  0.7834838041033478  0.29356100595901324  0.257931574015835  1.0000
  H   H6        1.0  0.038905228755453394  0.7035692021309642  0.7420368612935492  1.0000
  H   H7        1.0  0.2964309186680794  0.961095936485961  0.25796591044044703  1.0000
  H   H8        1.0  0.7064415340132939  0.21651981651724836  0.7420675721462119  1.0000
  H   H9        1.0  0.07325617016016389  0.4572007257274534  0.5706294926806948  1.0000
  H   H10       1.0  0.9303541510511835  0.5472262793071322  0.42987008994536763  1.0000
  H   H11       1.0  0.4571642072133812  0.35612625653987345  0.5706363645757121  1.0000
  H   H12       1.0  0.5472004187424558  0.6398213831936913  0.42989700158987904  1.0000
  H   H13       1.0  0.35610086272440356  0.9721372532805715  0.570641054191718  1.0000
  H   H14       1.0  0.639775452805452  0.022947138081235753  0.4298592274964079  1.0000
  H   H15       1.0  0.9721957025115984  0.07323054300951531  0.5706260249501725  1.0000
  H   H16       1.0  0.022981307258518796  0.9303692739072178  0.4298292973271317  1.0000
  H   H17       1.0  0.643870892829085  0.5428394284560554  0.4293654896166431  1.0000
  H   H18       1.0  0.3601782975930661  0.4527933603582355  0.570106023204019  1.0000
  H   H19       1.0  0.027867191105570996  0.6439003796200355  0.4293602796936256  1.0000
  H   H20       1.0  0.9770491134762977  0.3602223913676853  0.5701416645033818  1.0000
  H   H21       1.0  0.9267709355226826  0.027802791145717178  0.429370817712254  1.0000
  H   H22       1.0  0.0696312166717163  0.977022048451012  0.5701708892935501  1.0000
  H   H23       1.0  0.5427965909211139  0.9267404671103279  0.42937287315848505  1.0000
  H   H24       1.0  0.4527786621418953  0.06964736962193291  0.5701295254545045  1.0000
  H   H25       1.0  0.0185311660004572  0.5032463420129147  0.1430775425457327  1.0000
  H   H26       1.0  0.16415709061178058  0.499957795147722  0.8568186140532745  1.0000
  H   H27       1.0  0.5000437465005376  0.8358503232485434  0.1431806654437154  1.0000
  H   H28       1.0  0.49675031416005294  0.9814738068030807  0.8569237700009612  1.0000
  H   H29       1.0  0.8384183334709334  0.3536961854582898  0.1430682959619603  1.0000
  H   H30       1.0  0.9790080254526712  0.6432083460751555  0.8568898833410544  1.0000
  H   H31       1.0  0.35678940361612627  0.020994453461128194  0.14311337031526963  1.0000
  H   H32       1.0  0.6463037727470251  0.1615886319207575  0.8569304635448348  1.0000
  H   H33       1.0  0.025126382867775004  0.3113331333850197  0.05533963456060323  1.0000
  H   H34       1.0  0.9357082008881648  0.30447936814798726  0.05674647982972663  1.0000
  H   H35       1.0  0.0746217152247581  0.6904916690184849  0.9446849857902961  1.0000
  H   H36       1.0  0.9864723491937538  0.6941251559039399  0.9432291953887032  1.0000
  H   H37       1.0  0.3095107688859216  0.9253876354652987  0.055315582965249584  1.0000
  H   H38       1.0  0.30587274327537267  0.013535145859947273  0.05677299843852523  1.0000
  H   H39       1.0  0.6886686822853108  0.9748854529348846  0.9446477757630165  1.0000
  H   H40       1.0  0.6955188679115308  0.06429178598793302  0.9432659409364067  1.0000
  H   H41       1.0  0.9195164012313626  0.633269418263154  0.05539662961580663  1.0000
  H   H42       1.0  0.007577999146761301  0.6388614037060094  0.056703284540077434  1.0000
  H   H43       1.0  0.9807072909385255  0.36484639870743546  0.9446987825490751  1.0000
  H   H44       1.0  0.070330657778797  0.36261829009152524  0.9431978602758734  1.0000
  H   H45       1.0  0.6351224489076301  0.019298944649698103  0.055334699921914435  1.0000
  H   H46       1.0  0.6374159296801166  0.9297088851264377  0.05676719212401356  1.0000
  H   H47       1.0  0.3667317334352447  0.08049441085859842  0.9446027050749138  1.0000
  H   H48       1.0  0.3611364320928203  0.992431536468466  0.9432996346737426  1.0000
  C   C1        1.0  0.9332577728704122  0.42735340548361467  0.2323549135482424  1.0000
  C   C2        1.0  0.16699963624009226  0.5743353417412892  0.7675703786917367  1.0000
  C   C3        1.0  0.5282405003377093  0.5775158795894767  0.4603190514470442  1.0000
  C   C4        1.0  0.41829703379107025  0.98394924410173  0.5399382378287713  1.0000
  C   C5        1.0  0.5774742614450118  0.011465982830337423  0.4602873505155998  1.0000
  C   C6        1.0  0.984002987701494  0.041728127840734305  0.5399286455615738  1.0000
  C   C7        1.0  0.011518565179436299  0.9622355391409131  0.4602609988419318  1.0000
  C   C8        1.0  0.5816760868467341  0.5239325512591931  0.4600811353370986  1.0000
  C   C9        1.0  0.42248172134313927  0.47175292279943903  0.5396854533102626  1.0000
  C   C10       1.0  0.016053702859039697  0.5817040552707907  0.4600633163712402  1.0000
  C   C11       1.0  0.9885305191750079  0.4225261294297837  0.5397127508039077  1.0000
  C   C12       1.0  0.958274032051534  0.01599804739926469  0.4600687130367974  1.0000
  C   C13       1.0  0.4256666765972524  0.8330040557380016  0.2324299252020127  1.0000
  C   C14       1.0  0.037767605822772096  0.9884823914924394  0.5397374571506575  1.0000
  C   C15       1.0  0.5238864386707148  0.958213936533369  0.46009249043108724  1.0000
  C   C16       1.0  0.4717459453159734  0.037768556261369185  0.5397068204353133  1.0000
  C   C17       1.0  0.041784231854585095  0.47610963246665233  0.5399103518364897  1.0000
  C   C18       1.0  0.9622314945513962  0.5282573208952498  0.460292750764431  1.0000
  C   C19       1.0  0.4760705164931166  0.4183234660719747  0.539920226145938  1.0000
  C   C20       1.0  0.5726475275565761  0.0667447161118134  0.7676465556498256  1.0000
  C   C21       1.0  0.9483229848009527  0.44834968819429094  0.5000143118234988  1.0000
  C   C22       1.0  0.834424236156316  0.3403339922375253  0.2323287732750999  1.0000
  C   C23       1.0  0.05597049753502149  0.5559509766749785  0.4999870212203774  1.0000
  C   C24       1.0  0.4483246517953318  0.5516734673531614  0.5000002966899899  1.0000
  C   C25       1.0  0.5559239561968141  0.44407415912534304  0.50000267368889  1.0000
  C   C26       1.0  0.5516515661511505  0.051674419486708666  0.49998727220762623  1.0000
  C   C27       1.0  0.4440490748539431  0.9440304145320724  0.5000123859511733  1.0000
  C   C28       1.0  0.05167540187692049  0.948326003587837  0.4999992242005932  1.0000
  C   C29       1.0  0.944086675253814  0.05591373244632775  0.499999192983907  1.0000
  C   C30       1.0  0.0653596452997718  0.6580761448075378  0.7676189549863252  1.0000
  C   C31       1.0  0.34192446927956144  0.9346418323234432  0.23238274828767666  1.0000
  C   C32       1.0  0.6596680641630641  0.16558017022147437  0.7676704352333915  1.0000
  C   C33       1.0  0.9326732313915257  0.4326782749450757  0.1346750357244417  1.0000
  C   C34       1.0  0.06738943803937758  0.5673716399927853  0.8652828772907953  1.0000
  C   C35       1.0  0.43262954537305376  0.9326181444205159  0.13471816201494144  1.0000
  C   C36       1.0  0.5673214287239005  0.06733408498051574  0.8653252736441246  1.0000
  C   C37       1.0  0.9661208758872559  0.45832818616223386  0.1680383817450989  1.0000
  C   C38       1.0  0.1355762786488981  0.5434553754529929  0.8318837797262121  1.0000
  C   C39       1.0  0.45654646510835306  0.8644312564432822  0.16811566498400055  1.0000
  C   C40       1.0  0.5416700565886359  0.03388201937639928  0.8319634921765201  1.0000
  C   C41       1.0  0.86586844208324  0.373684869647711  0.16801312464526325  1.0000
  C   C42       1.0  0.0325153325632428  0.6246492861497541  0.8319426207308496  1.0000
  C   C43       1.0  0.3753484315317479  0.9674877499519351  0.16806005306231245  1.0000
  C   C44       1.0  0.6263157498151343  0.13413645428951085  0.8319856658569478  1.0000
  C   C45       1.0  0.8675002615883968  0.3674840769399665  0.2650258791749423  1.0000
  C   C46       1.0  0.1325038273978194  0.6325527726409987  0.7349161155841771  1.0000
  C   C47       1.0  0.3674506844277729  0.8674986013431506  0.2650846682630572  1.0000
  C   C48       1.0  0.6325180572356998  0.13250083227224968  0.7349742843776284  1.0000
  C   C49       1.0  0.9855045383832033  0.4176007825802726  0.032611589363441086  1.0000
  C   C50       1.0  0.0157494671133449  0.5824445467994864  0.9673690626505191  1.0000
  C   C51       1.0  0.4175561287830618  0.9842651678178811  0.03263256794302561  1.0000
  C   C52       1.0  0.582399479286451  0.014506583750431798  0.9673889184471491  1.0000
  C   C53       1.0  0.9819799546560686  0.5498117424866392  0.03261672946389656  1.0000
  C   C54       1.0  0.0170026273669279  0.4501943162223226  0.9673561994942049  1.0000
  C   C55       1.0  0.5498054547275829  0.9830083693180426  0.03264543415070879  1.0000
  C   C56       1.0  0.4501881569062292  0.01802958950256062  0.9673847315998856  1.0000
  C   C57       1.0  0.03309065361303709  0.5330178875635667  0.9339718218062103  1.0000
  C   C58       1.0  0.9670323609374448  0.46701813204919057  0.06599538917171098  1.0000
  C   C59       1.0  0.5329812270715094  0.032975660850425394  0.9340053838977556  1.0000
  C   C60       1.0  0.4669821554480079  0.9669232061458146  0.06602989807687731  1.0000
  C   C61       1.0  0.3329715925000656  0.833068265784405  0.33386083915473824  1.0000
  C   C62       1.0  0.6669811773292764  0.1669388629787179  0.6661969629840527  1.0000
  C   C63       1.0  0.8330625753661066  0.33302269657152533  0.33380335690056034  1.0000
  C   C64       1.0  0.16693205274179226  0.6670294433068094  0.6661405796268697  1.0000
  C   C65       1.0  0.3908140712910537  0.609175995418525  0.5000029548011256  1.0000
  C   C66       1.0  0.6134919082926231  0.3865133490427438  0.499998639594196  1.0000
  C   C67       1.0  0.609182655039092  0.10917104853776038  0.49999080663656775  1.0000
  C   C68       1.0  0.3864759759210301  0.8864615336633578  0.5000022218897585  1.0000
  C   C69       1.0  0.1091729753746478  0.8908282487374776  0.5000013834385585  1.0000
  C   C70       1.0  0.8865234495872727  0.11347550231212014  0.4999986237666931  1.0000
  C   C71       1.0  0.8908244210732049  0.3908251547806927  0.5000056375100358  1.0000
  C   C72       1.0  0.1135400524370027  0.6135173952671237  0.5000013564883474  1.0000
  N   N1        1.0  0.9731545435389176  0.3333981860133191  0.0667442759181116  1.0000
  N   N2        1.0  0.0351160183254606  0.6667759276582715  0.9332496756974464  1.0000
  N   N3        1.0  0.3332245974761534  0.9648929970221471  0.06675203299371903  1.0000
  N   N4        1.0  0.6666004413754294  0.026858482521554122  0.9332571729679984  1.0000
  N   N5        1.0  0.9601625532358468  0.5998806134535002  0.06674559005349337  1.0000
  N   N6        1.0  0.0316739719835226  0.3999731155872935  0.9332480795453932  1.0000
  N   N7        1.0  0.6000281110766608  0.9683257711576018  0.06675279976252568  1.0000
  N   N8        1.0  0.4001191030665723  0.03984610413105818  0.9332554992946314  1.0000
  O   O1        1.0  0.24996956871186873  0.7500263743825356  0.5000023439791336  1.0000
  O   O2        1.0  0.6223641023995937  0.15879780199044533  0.6392062544712261  1.0000
  O   O3        1.0  0.7979340784840971  0.2614201109562586  0.36075377871198094  1.0000
  O   O4        1.0  0.15834180314205779  0.7384756705986889  0.639205454379507  1.0000
  O   O5        1.0  0.2615254118713892  0.8416559817881363  0.36079534397435975  1.0000
  O   O6        1.0  0.7385784289816256  0.2020636874887458  0.6392463741313393  1.0000
  O   O7        1.0  0.8412037955628122  0.3776343591745572  0.36079313097832266  1.0000
  O   O8        1.0  0.20254389518961347  0.622606355139723  0.6391406882273359  1.0000
  O   O9        1.0  0.377396179779339  0.7974590620408434  0.3608608691589908  1.0000
  O   O10       1.0  0.7500050173227847  0.24999377077974566  0.49999881824748377  1.0000
  O   O11       1.0  0.41928753760688414  0.6821117104262625  0.46736113515400046  1.0000
  O   O12       1.0  0.5874508786104684  0.3163669289213258  0.5411587294779069  1.0000
  O   O13       1.0  0.6820816396999092  0.11346192749753925  0.4672521221145588  1.0000
  O   O14       1.0  0.3163675806931607  0.8713058971402461  0.5411973103347095  1.0000
  O   O15       1.0  0.11334558820804122  0.8505581679246959  0.46734521260542994  1.0000
  O   O16       1.0  0.8714638556764667  0.14251638998657493  0.5411239855214875  1.0000
  O   O17       1.0  0.8506812841239224  0.419259980056303  0.46724043978120033  1.0000
  O   O18       1.0  0.1424610087636538  0.587520996818128  0.5412040434552665  1.0000
  O   O19       1.0  0.8865339228677839  0.31791895952991206  0.5327466426375908  1.0000
  O   O20       1.0  0.1286977767279751  0.6836309154055299  0.45880259790389744  1.0000
  O   O21       1.0  0.14943986955456978  0.8866556524212612  0.532653483214297  1.0000
  O   O22       1.0  0.857483041952662  0.12853386899337943  0.4588752170171518  1.0000
  O   O23       1.0  0.5807451098703708  0.1493191705184883  0.5327578155740939  1.0000
  O   O24       1.0  0.4124755190480514  0.857537405700732  0.45879795660887623  1.0000
  O   O25       1.0  0.31788807714139006  0.5807067617029275  0.5326416600069522  1.0000
  O   O26       1.0  0.6836276236784257  0.41254866552830555  0.4588434082597246  1.0000
