data_image0
_chemical_formula_structural       Cd4H20C28S8N12
_chemical_formula_sum              "Cd4 H20 C28 S8 N12"
_cell_length_a       5.929179138214735
_cell_length_b       12.175435637270786
_cell_length_c       13.67103733383059
_cell_angle_alpha    90.0006049259909
_cell_angle_beta     102.63522277278022
_cell_angle_gamma    90.00030843709959

_space_group_name_H-M_alt    "P 1"
_space_group_IT_number       1

loop_
  _space_group_symop_operation_xyz
  'x, y, z'

loop_
  _atom_site_type_symbol
  _atom_site_label
  _atom_site_symmetry_multiplicity
  _atom_site_fract_x
  _atom_site_fract_y
  _atom_site_fract_z
  _atom_site_occupancy
  Cd  Cd1       1.0  0.39856526097549505  0.8400689077476996  0.5222319603046586  1.0000
  Cd  Cd2       1.0  0.1014329658492628  0.3400679908896507  0.9777645077716743  1.0000
  Cd  Cd3       1.0  0.6014592531589855  0.15992479850492455  0.4777755531944265  1.0000
  Cd  Cd4       1.0  0.8985620774638006  0.6599314645364133  0.022230749343904704  1.0000
  H   H1        1.0  0.6975040876293406  0.712133718462425  0.3854021667063422  1.0000
  H   H2        1.0  0.8025182330277687  0.21214427026264088  0.11460615519209233  1.0000
  H   H3        1.0  0.30249107032270217  0.2878542384799303  0.614605536186865  1.0000
  H   H4        1.0  0.19747684400353901  0.7878518998830231  0.885392762446827  1.0000
  H   H5        1.0  0.6954435515876654  0.539502727182608  0.2872057705191154  1.0000
  H   H6        1.0  0.8045721306963286  0.03951862143645709  0.21280551839066675  1.0000
  H   H7        1.0  0.3045463806538322  0.46049015767882645  0.7127970563969727  1.0000
  H   H8        1.0  0.19542636265173738  0.9604750847096921  0.7871893288224143  1.0000
  H   H9        1.0  0.37313904607325543  0.40377991107617117  0.2828540966125743  1.0000
  H   H10       1.0  0.12686087298653348  0.9037925634133824  0.21715063642729865  1.0000
  H   H11       1.0  0.626823069556771  0.5962228295401814  0.7171285818701705  1.0000
  H   H12       1.0  0.8731514747764421  0.09620771338040157  0.7828484281982926  1.0000
  H   H13       1.0  0.0683188968357911  0.44734003124766275  0.37844017497126714  1.0000
  H   H14       1.0  0.43167660441567784  0.9473488332565407  0.12155941309946171  1.0000
  H   H15       1.0  0.9316501662126697  0.5526618880770541  0.6215468085203923  1.0000
  H   H16       1.0  0.5683340149894605  0.0526580141412154  0.8784394904429433  1.0000
  H   H17       1.0  0.0984938693736268  0.6240932755589269  0.4749416079030624  1.0000
  H   H18       1.0  0.4015076848585649  0.12409633957310717  0.025055670969926804  1.0000
  H   H19       1.0  0.9014977845220072  0.37589796664902747  0.5250606480142466  1.0000
  H   H20       1.0  0.5984942991845797  0.8759088651635166  0.9749431590813347  1.0000
  C   C1        1.0  0.8520444879561495  0.9186358681391695  0.4073555504362219  1.0000
  C   C2        1.0  0.647957449917186  0.4186450019008844  0.09264758672461681  1.0000
  C   C3        1.0  0.14798349664705768  0.08137180066768927  0.5926537495896512  1.0000
  C   C4        1.0  0.3520393488911465  0.5813626668048569  0.9073507599853983  1.0000
  C   C5        1.0  0.9594393509446063  0.7814915847874315  0.6332349233177439  1.0000
  C   C6        1.0  0.5405388543416761  0.2814768293291364  0.8667652878011652  1.0000
  C   C7        1.0  0.04057126843748899  0.2185127986327871  0.3667639802115589  1.0000
  C   C8        1.0  0.45944932925419824  0.7185185194932442  0.13323518168542142  1.0000
  C   C9        1.0  0.5624738774189737  0.6507599895249925  0.3830803543285627  1.0000
  C   C10       1.0  0.9375403749078187  0.15077167251297396  0.116925938425247  1.0000
  C   C11       1.0  0.437533399732814  0.3492296101025119  0.6169306727246706  1.0000
  C   C12       1.0  0.0624494831627445  0.8492294255563735  0.8830688353447229  1.0000
  C   C13       1.0  0.5606606468331916  0.554092878298121  0.32848886564212887  1.0000
  C   C14       1.0  0.9393587246777456  0.05410853502993259  0.17151850798671833  1.0000
  C   C15       1.0  0.43932928542366767  0.44590164921500985  0.6715139612826847  1.0000
  C   C16       1.0  0.06064147686326039  0.9458876350827763  0.828474304033094  1.0000
  C   C17       1.0  0.38194831068729945  0.4792510032285477  0.32625280172227633  1.0000
  C   C18       1.0  0.11806337695438879  0.9792614503273356  0.1737522362616559  1.0000
  C   C19       1.0  0.6180277537395541  0.5207459882120843  0.673744343621749  1.0000
  C   C20       1.0  0.8819506654942585  0.0207404690979658  0.8262433289499711  1.0000
  C   C21       1.0  0.2119346892708123  0.5034227781363114  0.37918936855871277  1.0000
  C   C22       1.0  0.2880681121071119  0.003430092482304299  0.12081207427394963  1.0000
  C   C23       1.0  0.7880361494070911  0.4965750345941585  0.6208029007863588  1.0000
  C   C24       1.0  0.7119442154218447  0.9965718269493847  0.8791847940358865  1.0000
  C   C25       1.0  0.2263925114619738  0.6017259718300281  0.4319041681743556  1.0000
  C   C26       1.0  0.2736138434596711  0.10173259499471497  0.06809701678730562  1.0000
  C   C27       1.0  0.7736043412371886  0.3982701983506302  0.5681000353398248  1.0000
  C   C28       1.0  0.7263881405911548  0.898273431067757  0.9319018132683183  1.0000
  S   S1        1.0  0.5807771035866053  0.9574151234630293  0.3780290240628545  1.0000
  S   S2        1.0  0.9192238041145585  0.45741697578422696  0.12197143583769332  1.0000
  S   S3        1.0  0.4192422253514608  0.04258515338796089  0.6219780061168195  1.0000
  S   S4        1.0  0.08076956479293071  0.5425841223275112  0.8780295170338022  1.0000
  S   S5        1.0  0.22790162822229124  0.7413216325863982  0.6671874238755466  1.0000
  S   S6        1.0  0.2720757457899979  0.24131925259283094  0.8328069540492181  1.0000
  S   S7        1.0  0.7721263224936905  0.2586712523322063  0.33281821553091373  1.0000
  S   S8        1.0  0.7279158945983609  0.758671168280081  0.16719383764739607  1.0000
  N   N1        1.0  0.04608255186334279  0.8889844527365723  0.424409944399045  1.0000
  N   N2        1.0  0.45390325631868217  0.3889923661158292  0.07559261024649541  1.0000
  N   N3        1.0  0.9539350961113867  0.11103799994169349  0.5756020495375369  1.0000
  N   N4        1.0  0.5460865951019399  0.6110194091849407  0.9244014314720774  1.0000
  N   N5        1.0  0.7644247645514924  0.8098023460251296  0.6112278073332434  1.0000
  N   N6        1.0  0.7355850953183845  0.3097899147702278  0.8887770691609802  1.0000
  N   N7        1.0  0.23561695283974157  0.1901979308071802  0.38877253208398344  1.0000
  N   N8        1.0  0.2644134588700098  0.6902136473274821  0.11122436707796622  1.0000
  N   N9        1.0  0.39819904281408464  0.6744742779359709  0.4337898072291679  1.0000
  N   N10       1.0  0.10181732835263088  0.17447969892369738  0.06621442104577112  1.0000
  N   N11       1.0  0.6018030221113831  0.325518606968103  0.5662178080545319  1.0000
  N   N12       1.0  0.8981760068289332  0.8255238631425996  0.9337828712980143  1.0000
